MODEL 1
REMARK VINA RESULT:      -7.8      0.000      0.000
REMARK  Name = 
REMARK  9 active torsions:
REMARK  status: ('A' for Active; 'I' for Inactive)
REMARK    1  A    between atoms: C_1  and  C_2
REMARK    2  A    between atoms: C_5  and  C_6
REMARK    3  A    between atoms: C_7  and  C_8
REMARK    4  A    between atoms: C_8  and  C_9
REMARK    5  A    between atoms: C_9  and  C_10
REMARK    6  A    between atoms: C_15  and  C_16
REMARK    7  A    between atoms: C_16  and  C_17
REMARK    8  A    between atoms: C_17  and  C_18
REMARK    9  A    between atoms: C_17  and  C_19
REMARK                            x       y       z     vdW  Elec       q    Type
REMARK                         _______ _______ _______ _____ _____    ______ ____
ROOT
ATOM      1  C   UNL     1       4.846   4.719  16.790  0.00  0.00    +0.000 C 
ATOM      2  O   UNL     1       4.205   3.891  16.151  0.00  0.00    +0.000 OA
ATOM      3  N   UNL     1       6.022   5.335  16.396  0.00  0.00    +0.000 N 
ATOM      4  C   UNL     1       6.575   5.056  15.168  0.00  0.00    +0.000 A 
ATOM      5  N   UNL     1       6.135   4.242  14.241  0.00  0.00    +0.000 NA
ATOM      6  C   UNL     1       7.027   4.379  13.216  0.00  0.00    +0.000 A 
ATOM      7  N   UNL     1       8.033   5.226  13.464  0.00  0.00    +0.000 NA
ATOM      8  N   UNL     1       7.728   5.638  14.708  0.00  0.00    +0.000 N 
ATOM      9  H   UNL     1       6.469   6.005  17.005  0.00  0.00    +0.000 HD
ATOM     10  H   UNL     1       8.331   6.310  15.164  0.00  0.00    +0.000 HD
ENDROOT
BRANCH   1  11
ATOM     11  C   UNL     1       4.374   5.180  18.158  0.00  0.00    +0.000 C 
BRANCH  11  12
ATOM     12  C   UNL     1       2.849   5.086  18.241  0.00  0.00    +0.000 C 
BRANCH  12  19
ATOM     13  C   UNL     1       1.380   5.986  21.010  0.00  0.00    +0.000 C 
ATOM     14  C   UNL     1       1.720   4.618  20.556  0.00  0.00    +0.000 A 
ATOM     15  N   UNL     1       1.405   3.562  21.314  0.00  0.00    +0.000 NA
ATOM     16  O   UNL     1       1.825   2.452  20.609  0.00  0.00    +0.000 OA
ATOM     17  C   UNL     1       2.397   2.845  19.440  0.00  0.00    +0.000 A 
ATOM     18  C   UNL     1       2.882   1.766  18.559  0.00  0.00    +0.000 C 
ATOM     19  C   UNL     1       2.368   4.221  19.354  0.00  0.00    +0.000 A 
ENDBRANCH  12  19
ENDBRANCH  11  12
ENDBRANCH   1  11
BRANCH   6  20
ATOM     20  C   UNL     1       6.840   3.670  11.922  0.00  0.00    +0.000 C 
BRANCH  20  21
ATOM     21  C   UNL     1       5.672   2.663  11.950  0.00  0.00    +0.000 C 
ATOM     22  C   UNL     1       4.391   3.251  11.354  0.00  0.00    +0.000 C 
ATOM     23  C   UNL     1       6.056   1.389  11.196  0.00  0.00    +0.000 C 
ENDBRANCH  20  21
ENDBRANCH   6  20
TORSDOF 5
ENDMDL
MODEL 2
REMARK VINA RESULT:      -7.7      1.396      1.803
REMARK  Name = 
REMARK  9 active torsions:
REMARK  status: ('A' for Active; 'I' for Inactive)
REMARK    1  A    between atoms: C_1  and  C_2
REMARK    2  A    between atoms: C_5  and  C_6
REMARK    3  A    between atoms: C_7  and  C_8
REMARK    4  A    between atoms: C_8  and  C_9
REMARK    5  A    between atoms: C_9  and  C_10
REMARK    6  A    between atoms: C_15  and  C_16
REMARK    7  A    between atoms: C_16  and  C_17
REMARK    8  A    between atoms: C_17  and  C_18
REMARK    9  A    between atoms: C_17  and  C_19
REMARK                            x       y       z     vdW  Elec       q    Type
REMARK                         _______ _______ _______ _____ _____    ______ ____
ROOT
ATOM      1  C   UNL     1       5.322   3.903  17.124  0.00  0.00    +0.000 C 
ATOM      2  O   UNL     1       4.747   3.057  16.446  0.00  0.00    +0.000 OA
ATOM      3  N   UNL     1       6.314   4.770  16.696  0.00  0.00    +0.000 N 
ATOM      4  C   UNL     1       6.731   4.755  15.386  0.00  0.00    +0.000 A 
ATOM      5  N   UNL     1       6.310   3.998  14.404  0.00  0.00    +0.000 NA
ATOM      6  C   UNL     1       7.017   4.425  13.316  0.00  0.00    +0.000 A 
ATOM      7  N   UNL     1       7.892   5.406  13.572  0.00  0.00    +0.000 NA
ATOM      8  N   UNL     1       7.696   5.594  14.890  0.00  0.00    +0.000 N 
ATOM      9  H   UNL     1       6.722   5.429  17.343  0.00  0.00    +0.000 HD
ATOM     10  H   UNL     1       8.235   6.303  15.370  0.00  0.00    +0.000 HD
ENDROOT
BRANCH   1  11
ATOM     11  C   UNL     1       4.973   4.092  18.590  0.00  0.00    +0.000 C 
BRANCH  11  12
ATOM     12  C   UNL     1       3.491   3.786  18.816  0.00  0.00    +0.000 C 
BRANCH  12  19
ATOM     13  C   UNL     1       3.040   6.936  18.102  0.00  0.00    +0.000 C 
ATOM     14  C   UNL     1       2.586   6.193  19.302  0.00  0.00    +0.000 A 
ATOM     15  N   UNL     1       1.883   6.819  20.251  0.00  0.00    +0.000 NA
ATOM     16  O   UNL     1       1.595   5.860  21.201  0.00  0.00    +0.000 OA
ATOM     17  C   UNL     1       2.131   4.670  20.825  0.00  0.00    +0.000 A 
ATOM     18  C   UNL     1       1.892   3.533  21.732  0.00  0.00    +0.000 C 
ATOM     19  C   UNL     1       2.787   4.822  19.621  0.00  0.00    +0.000 A 
ENDBRANCH  12  19
ENDBRANCH  11  12
ENDBRANCH   1  11
BRANCH   6  20
ATOM     20  C   UNL     1       6.774   3.863  11.961  0.00  0.00    +0.000 C 
BRANCH  20  21
ATOM     21  C   UNL     1       5.716   2.741  11.954  0.00  0.00    +0.000 C 
ATOM     22  C   UNL     1       4.385   3.210  11.361  0.00  0.00    +0.000 C 
ATOM     23  C   UNL     1       6.233   1.533  11.172  0.00  0.00    +0.000 C 
ENDBRANCH  20  21
ENDBRANCH   6  20
TORSDOF 5
ENDMDL
MODEL 3
REMARK VINA RESULT:      -7.7      1.437      1.922
REMARK  Name = 
REMARK  9 active torsions:
REMARK  status: ('A' for Active; 'I' for Inactive)
REMARK    1  A    between atoms: C_1  and  C_2
REMARK    2  A    between atoms: C_5  and  C_6
REMARK    3  A    between atoms: C_7  and  C_8
REMARK    4  A    between atoms: C_8  and  C_9
REMARK    5  A    between atoms: C_9  and  C_10
REMARK    6  A    between atoms: C_15  and  C_16
REMARK    7  A    between atoms: C_16  and  C_17
REMARK    8  A    between atoms: C_17  and  C_18
REMARK    9  A    between atoms: C_17  and  C_19
REMARK                            x       y       z     vdW  Elec       q    Type
REMARK                         _______ _______ _______ _____ _____    ______ ____
ROOT
ATOM      1  C   UNL     1       5.637   4.122  17.171  0.00  0.00    +0.000 C 
ATOM      2  O   UNL     1       4.951   3.308  16.560  0.00  0.00    +0.000 OA
ATOM      3  N   UNL     1       6.652   4.905  16.647  0.00  0.00    +0.000 N 
ATOM      4  C   UNL     1       6.963   4.834  15.309  0.00  0.00    +0.000 A 
ATOM      5  N   UNL     1       6.412   4.091  14.382  0.00  0.00    +0.000 NA
ATOM      6  C   UNL     1       7.061   4.445  13.232  0.00  0.00    +0.000 A 
ATOM      7  N   UNL     1       8.021   5.362  13.396  0.00  0.00    +0.000 NA
ATOM      8  N   UNL     1       7.944   5.589  14.720  0.00  0.00    +0.000 N 
ATOM      9  H   UNL     1       7.156   5.544  17.244  0.00  0.00    +0.000 HD
ATOM     10  H   UNL     1       8.568   6.265  15.139  0.00  0.00    +0.000 HD
ENDROOT
BRANCH   1  11
ATOM     11  C   UNL     1       5.418   4.364  18.655  0.00  0.00    +0.000 C 
BRANCH  11  12
ATOM     12  C   UNL     1       4.086   3.752  19.091  0.00  0.00    +0.000 C 
BRANCH  12  19
ATOM     13  C   UNL     1       2.122   3.480  21.681  0.00  0.00    +0.000 C 
ATOM     14  C   UNL     1       2.272   4.632  20.761  0.00  0.00    +0.000 A 
ATOM     15  N   UNL     1       1.559   5.746  20.958  0.00  0.00    +0.000 NA
ATOM     16  O   UNL     1       1.944   6.622  19.965  0.00  0.00    +0.000 OA
ATOM     17  C   UNL     1       2.876   6.031  19.172  0.00  0.00    +0.000 A 
ATOM     18  C   UNL     1       3.406   6.853  18.068  0.00  0.00    +0.000 C 
ATOM     19  C   UNL     1       3.121   4.752  19.626  0.00  0.00    +0.000 A 
ENDBRANCH  12  19
ENDBRANCH  11  12
ENDBRANCH   1  11
BRANCH   6  20
ATOM     20  C   UNL     1       6.672   3.876  11.914  0.00  0.00    +0.000 C 
BRANCH  20  21
ATOM     21  C   UNL     1       5.566   2.807  12.021  0.00  0.00    +0.000 C 
ATOM     22  C   UNL     1       4.259   3.266  11.368  0.00  0.00    +0.000 C 
ATOM     23  C   UNL     1       6.032   1.499  11.380  0.00  0.00    +0.000 C 
ENDBRANCH  20  21
ENDBRANCH   6  20
TORSDOF 5
ENDMDL
MODEL 4
REMARK VINA RESULT:      -7.4      1.288      1.578
REMARK  Name = 
REMARK  9 active torsions:
REMARK  status: ('A' for Active; 'I' for Inactive)
REMARK    1  A    between atoms: C_1  and  C_2
REMARK    2  A    between atoms: C_5  and  C_6
REMARK    3  A    between atoms: C_7  and  C_8
REMARK    4  A    between atoms: C_8  and  C_9
REMARK    5  A    between atoms: C_9  and  C_10
REMARK    6  A    between atoms: C_15  and  C_16
REMARK    7  A    between atoms: C_16  and  C_17
REMARK    8  A    between atoms: C_17  and  C_18
REMARK    9  A    between atoms: C_17  and  C_19
REMARK                            x       y       z     vdW  Elec       q    Type
REMARK                         _______ _______ _______ _____ _____    ______ ____
ROOT
ATOM      1  C   UNL     1       5.307   3.906  17.495  0.00  0.00    +0.000 C 
ATOM      2  O   UNL     1       4.698   3.094  16.805  0.00  0.00    +0.000 OA
ATOM      3  N   UNL     1       6.295   4.777  17.067  0.00  0.00    +0.000 N 
ATOM      4  C   UNL     1       6.671   4.806  15.744  0.00  0.00    +0.000 A 
ATOM      5  N   UNL     1       6.208   4.091  14.749  0.00  0.00    +0.000 NA
ATOM      6  C   UNL     1       6.885   4.550  13.656  0.00  0.00    +0.000 A 
ATOM      7  N   UNL     1       7.781   5.510  13.919  0.00  0.00    +0.000 NA
ATOM      8  N   UNL     1       7.630   5.650  15.249  0.00  0.00    +0.000 N 
ATOM      9  H   UNL     1       6.733   5.405  17.725  0.00  0.00    +0.000 HD
ATOM     10  H   UNL     1       8.194   6.334  15.737  0.00  0.00    +0.000 HD
ENDROOT
BRANCH   1  11
ATOM     11  C   UNL     1       5.007   4.045  18.978  0.00  0.00    +0.000 C 
BRANCH  11  12
ATOM     12  C   UNL     1       3.683   4.787  19.174  0.00  0.00    +0.000 C 
BRANCH  12  19
ATOM     13  C   UNL     1       1.184   4.379  17.119  0.00  0.00    +0.000 C 
ATOM     14  C   UNL     1       1.428   3.700  18.413  0.00  0.00    +0.000 A 
ATOM     15  N   UNL     1       0.568   2.777  18.858  0.00  0.00    +0.000 NA
ATOM     16  O   UNL     1       1.086   2.324  20.054  0.00  0.00    +0.000 OA
ATOM     17  C   UNL     1       2.245   2.979  20.326  0.00  0.00    +0.000 A 
ATOM     18  C   UNL     1       2.935   2.589  21.569  0.00  0.00    +0.000 C 
ATOM     19  C   UNL     1       2.511   3.880  19.317  0.00  0.00    +0.000 A 
ENDBRANCH  12  19
ENDBRANCH  11  12
ENDBRANCH   1  11
BRANCH   6  20
ATOM     20  C   UNL     1       6.591   4.043  12.289  0.00  0.00    +0.000 C 
BRANCH  20  21
ATOM     21  C   UNL     1       5.481   2.973  12.269  0.00  0.00    +0.000 C 
ATOM     22  C   UNL     1       4.194   3.491  11.622  0.00  0.00    +0.000 C 
ATOM     23  C   UNL     1       5.964   1.724  11.530  0.00  0.00    +0.000 C 
ENDBRANCH  20  21
ENDBRANCH   6  20
TORSDOF 5
ENDMDL
MODEL 5
REMARK VINA RESULT:      -6.9      3.447      5.316
REMARK  Name = 
REMARK  9 active torsions:
REMARK  status: ('A' for Active; 'I' for Inactive)
REMARK    1  A    between atoms: C_1  and  C_2
REMARK    2  A    between atoms: C_5  and  C_6
REMARK    3  A    between atoms: C_7  and  C_8
REMARK    4  A    between atoms: C_8  and  C_9
REMARK    5  A    between atoms: C_9  and  C_10
REMARK    6  A    between atoms: C_15  and  C_16
REMARK    7  A    between atoms: C_16  and  C_17
REMARK    8  A    between atoms: C_17  and  C_18
REMARK    9  A    between atoms: C_17  and  C_19
REMARK                            x       y       z     vdW  Elec       q    Type
REMARK                         _______ _______ _______ _____ _____    ______ ____
ROOT
ATOM      1  C   UNL     1       2.311   5.664  19.624  0.00  0.00    +0.000 C 
ATOM      2  O   UNL     1       1.807   5.199  18.606  0.00  0.00    +0.000 OA
ATOM      3  N   UNL     1       3.654   5.649  19.961  0.00  0.00    +0.000 N 
ATOM      4  C   UNL     1       4.578   5.093  19.107  0.00  0.00    +0.000 A 
ATOM      5  N   UNL     1       4.378   4.536  17.939  0.00  0.00    +0.000 NA
ATOM      6  C   UNL     1       5.628   4.201  17.502  0.00  0.00    +0.000 A 
ATOM      7  N   UNL     1       6.613   4.497  18.359  0.00  0.00    +0.000 NA
ATOM      8  N   UNL     1       5.923   5.056  19.369  0.00  0.00    +0.000 N 
ATOM      9  H   UNL     1       3.961   6.061  20.829  0.00  0.00    +0.000 HD
ATOM     10  H   UNL     1       6.426   5.392  20.180  0.00  0.00    +0.000 HD
ENDROOT
BRANCH   1  11
ATOM     11  C   UNL     1       1.452   6.349  20.673  0.00  0.00    +0.000 C 
BRANCH  11  12
ATOM     12  C   UNL     1       1.972   7.766  20.927  0.00  0.00    +0.000 C 
BRANCH  12  19
ATOM     13  C   UNL     1       1.655   9.127  17.980  0.00  0.00    +0.000 C 
ATOM     14  C   UNL     1       0.883   9.415  19.211  0.00  0.00    +0.000 A 
ATOM     15  N   UNL     1      -0.097  10.325  19.190  0.00  0.00    +0.000 NA
ATOM     16  O   UNL     1      -0.628  10.338  20.464  0.00  0.00    +0.000 OA
ATOM     17  C   UNL     1       0.037   9.445  21.243  0.00  0.00    +0.000 A 
ATOM     18  C   UNL     1      -0.430   9.325  22.637  0.00  0.00    +0.000 C 
ATOM     19  C   UNL     1       1.023   8.831  20.500  0.00  0.00    +0.000 A 
ENDBRANCH  12  19
ENDBRANCH  11  12
ENDBRANCH   1  11
BRANCH   6  20
ATOM     20  C   UNL     1       5.849   3.605  16.158  0.00  0.00    +0.000 C 
BRANCH  20  21
ATOM     21  C   UNL     1       6.325   4.634  15.113  0.00  0.00    +0.000 C 
ATOM     22  C   UNL     1       6.311   4.060  13.693  0.00  0.00    +0.000 C 
ATOM     23  C   UNL     1       5.453   5.889  15.172  0.00  0.00    +0.000 C 
ENDBRANCH  20  21
ENDBRANCH   6  20
TORSDOF 5
ENDMDL
MODEL 6
REMARK VINA RESULT:      -6.9      3.470      8.264
REMARK  Name = 
REMARK  9 active torsions:
REMARK  status: ('A' for Active; 'I' for Inactive)
REMARK    1  A    between atoms: C_1  and  C_2
REMARK    2  A    between atoms: C_5  and  C_6
REMARK    3  A    between atoms: C_7  and  C_8
REMARK    4  A    between atoms: C_8  and  C_9
REMARK    5  A    between atoms: C_9  and  C_10
REMARK    6  A    between atoms: C_15  and  C_16
REMARK    7  A    between atoms: C_16  and  C_17
REMARK    8  A    between atoms: C_17  and  C_18
REMARK    9  A    between atoms: C_17  and  C_19
REMARK                            x       y       z     vdW  Elec       q    Type
REMARK                         _______ _______ _______ _____ _____    ______ ____
ROOT
ATOM      1  C   UNL     1       3.742   5.499  18.125  0.00  0.00    +0.000 C 
ATOM      2  O   UNL     1       3.750   6.336  17.228  0.00  0.00    +0.000 OA
ATOM      3  N   UNL     1       3.151   5.632  19.371  0.00  0.00    +0.000 N 
ATOM      4  C   UNL     1       2.468   6.780  19.698  0.00  0.00    +0.000 A 
ATOM      5  N   UNL     1       2.270   7.847  18.965  0.00  0.00    +0.000 NA
ATOM      6  C   UNL     1       1.495   8.657  19.746  0.00  0.00    +0.000 A 
ATOM      7  N   UNL     1       1.216   8.160  20.957  0.00  0.00    +0.000 NA
ATOM      8  N   UNL     1       1.847   6.973  20.904  0.00  0.00    +0.000 N 
ATOM      9  H   UNL     1       3.207   4.876  20.039  0.00  0.00    +0.000 HD
ATOM     10  H   UNL     1       1.801   6.357  21.706  0.00  0.00    +0.000 HD
ENDROOT
BRANCH   1  11
ATOM     11  C   UNL     1       4.418   4.152  17.939  0.00  0.00    +0.000 C 
BRANCH  11  12
ATOM     12  C   UNL     1       5.913   4.274  18.240  0.00  0.00    +0.000 C 
BRANCH  12  19
ATOM     13  C   UNL     1       6.061   3.683  15.036  0.00  0.00    +0.000 C 
ATOM     14  C   UNL     1       6.723   4.766  15.800  0.00  0.00    +0.000 A 
ATOM     15  N   UNL     1       7.483   5.666  15.166  0.00  0.00    +0.000 NA
ATOM     16  O   UNL     1       7.923   6.541  16.139  0.00  0.00    +0.000 OA
ATOM     17  C   UNL     1       7.436   6.159  17.349  0.00  0.00    +0.000 A 
ATOM     18  C   UNL     1       7.803   7.011  18.495  0.00  0.00    +0.000 C 
ATOM     19  C   UNL     1       6.668   5.023  17.198  0.00  0.00    +0.000 A 
ENDBRANCH  12  19
ENDBRANCH  11  12
ENDBRANCH   1  11
BRANCH   6  20
ATOM     20  C   UNL     1       0.977   9.958  19.244  0.00  0.00    +0.000 C 
BRANCH  20  21
ATOM     21  C   UNL     1      -0.473  10.241  19.687  0.00  0.00    +0.000 C 
ATOM     22  C   UNL     1      -0.589  11.550  20.472  0.00  0.00    +0.000 C 
ATOM     23  C   UNL     1      -1.398  10.284  18.470  0.00  0.00    +0.000 C 
ENDBRANCH  20  21
ENDBRANCH   6  20
TORSDOF 5
ENDMDL
MODEL 7
REMARK VINA RESULT:      -6.9      4.210      8.749
REMARK  Name = 
REMARK  9 active torsions:
REMARK  status: ('A' for Active; 'I' for Inactive)
REMARK    1  A    between atoms: C_1  and  C_2
REMARK    2  A    between atoms: C_5  and  C_6
REMARK    3  A    between atoms: C_7  and  C_8
REMARK    4  A    between atoms: C_8  and  C_9
REMARK    5  A    between atoms: C_9  and  C_10
REMARK    6  A    between atoms: C_15  and  C_16
REMARK    7  A    between atoms: C_16  and  C_17
REMARK    8  A    between atoms: C_17  and  C_18
REMARK    9  A    between atoms: C_17  and  C_19
REMARK                            x       y       z     vdW  Elec       q    Type
REMARK                         _______ _______ _______ _____ _____    ______ ____
ROOT
ATOM      1  C   UNL     1       3.177   7.445  17.900  0.00  0.00    +0.000 C 
ATOM      2  O   UNL     1       2.723   6.729  18.788  0.00  0.00    +0.000 OA
ATOM      3  N   UNL     1       2.766   8.730  17.587  0.00  0.00    +0.000 N 
ATOM      4  C   UNL     1       1.769   9.338  18.314  0.00  0.00    +0.000 A 
ATOM      5  N   UNL     1       1.097   8.862  19.332  0.00  0.00    +0.000 NA
ATOM      6  C   UNL     1       0.272   9.886  19.703  0.00  0.00    +0.000 A 
ATOM      7  N   UNL     1       0.373  10.984  18.944  0.00  0.00    +0.000 NA
ATOM      8  N   UNL     1       1.323  10.610  18.068  0.00  0.00    +0.000 N 
ATOM      9  H   UNL     1       3.210   9.231  16.831  0.00  0.00    +0.000 HD
ATOM     10  H   UNL     1       1.617  11.265  17.355  0.00  0.00    +0.000 HD
ENDROOT
BRANCH   1  11
ATOM     11  C   UNL     1       4.308   6.959  17.011  0.00  0.00    +0.000 C 
BRANCH  11  12
ATOM     12  C   UNL     1       4.459   5.442  17.143  0.00  0.00    +0.000 C 
BRANCH  12  19
ATOM     13  C   UNL     1       6.827   5.472  19.384  0.00  0.00    +0.000 C 
ATOM     14  C   UNL     1       6.892   4.979  17.988  0.00  0.00    +0.000 A 
ATOM     15  N   UNL     1       8.026   4.451  17.516  0.00  0.00    +0.000 NA
ATOM     16  O   UNL     1       7.753   4.070  16.218  0.00  0.00    +0.000 OA
ATOM     17  C   UNL     1       6.465   4.378  15.914  0.00  0.00    +0.000 A 
ATOM     18  C   UNL     1       6.011   4.012  14.560  0.00  0.00    +0.000 C 
ATOM     19  C   UNL     1       5.864   4.972  17.005  0.00  0.00    +0.000 A 
ENDBRANCH  12  19
ENDBRANCH  11  12
ENDBRANCH   1  11
BRANCH   6  20
ATOM     20  C   UNL     1      -0.616   9.778  20.891  0.00  0.00    +0.000 C 
BRANCH  20  21
ATOM     21  C   UNL     1      -0.041  10.476  22.140  0.00  0.00    +0.000 C 
ATOM     22  C   UNL     1      -0.882  11.684  22.562  0.00  0.00    +0.000 C 
ATOM     23  C   UNL     1       0.058   9.484  23.301  0.00  0.00    +0.000 C 
ENDBRANCH  20  21
ENDBRANCH   6  20
TORSDOF 5
ENDMDL
MODEL 8
REMARK VINA RESULT:      -6.8      4.317      6.362
REMARK  Name = 
REMARK  9 active torsions:
REMARK  status: ('A' for Active; 'I' for Inactive)
REMARK    1  A    between atoms: C_1  and  C_2
REMARK    2  A    between atoms: C_5  and  C_6
REMARK    3  A    between atoms: C_7  and  C_8
REMARK    4  A    between atoms: C_8  and  C_9
REMARK    5  A    between atoms: C_9  and  C_10
REMARK    6  A    between atoms: C_15  and  C_16
REMARK    7  A    between atoms: C_16  and  C_17
REMARK    8  A    between atoms: C_17  and  C_18
REMARK    9  A    between atoms: C_17  and  C_19
REMARK                            x       y       z     vdW  Elec       q    Type
REMARK                         _______ _______ _______ _____ _____    ______ ____
ROOT
ATOM      1  C   UNL     1       6.043   6.066  16.595  0.00  0.00    +0.000 C 
ATOM      2  O   UNL     1       5.801   6.984  15.818  0.00  0.00    +0.000 OA
ATOM      3  N   UNL     1       6.919   6.102  17.668  0.00  0.00    +0.000 N 
ATOM      4  C   UNL     1       7.606   7.256  17.965  0.00  0.00    +0.000 A 
ATOM      5  N   UNL     1       7.561   8.413  17.353  0.00  0.00    +0.000 NA
ATOM      6  C   UNL     1       8.392   9.216  18.082  0.00  0.00    +0.000 A 
ATOM      7  N   UNL     1       8.986   8.608  19.116  0.00  0.00    +0.000 NA
ATOM      8  N   UNL     1       8.477   7.367  19.018  0.00  0.00    +0.000 N 
ATOM      9  H   UNL     1       7.043   5.283  18.245  0.00  0.00    +0.000 HD
ATOM     10  H   UNL     1       8.753   6.669  19.696  0.00  0.00    +0.000 HD
ENDROOT
BRANCH   1  11
ATOM     11  C   UNL     1       5.354   4.721  16.448  0.00  0.00    +0.000 C 
BRANCH  11  12
ATOM     12  C   UNL     1       5.025   4.150  17.829  0.00  0.00    +0.000 C 
BRANCH  12  19
ATOM     13  C   UNL     1       3.440   1.338  18.292  0.00  0.00    +0.000 C 
ATOM     14  C   UNL     1       2.882   2.710  18.261  0.00  0.00    +0.000 A 
ATOM     15  N   UNL     1       1.574   2.907  18.455  0.00  0.00    +0.000 NA
ATOM     16  O   UNL     1       1.384   4.272  18.394  0.00  0.00    +0.000 OA
ATOM     17  C   UNL     1       2.572   4.887  18.156  0.00  0.00    +0.000 A 
ATOM     18  C   UNL     1       2.539   6.360  18.083  0.00  0.00    +0.000 C 
ATOM     19  C   UNL     1       3.568   3.939  18.051  0.00  0.00    +0.000 A 
ENDBRANCH  12  19
ENDBRANCH  11  12
ENDBRANCH   1  11
BRANCH   6  20
ATOM     20  C   UNL     1       8.562  10.657  17.757  0.00  0.00    +0.000 C 
BRANCH  20  21
ATOM     21  C   UNL     1       9.789  11.290  18.444  0.00  0.00    +0.000 C 
ATOM     22  C   UNL     1      10.623  12.129  17.473  0.00  0.00    +0.000 C 
ATOM     23  C   UNL     1       9.346  12.154  19.626  0.00  0.00    +0.000 C 
ENDBRANCH  20  21
ENDBRANCH   6  20
TORSDOF 5
ENDMDL
MODEL 9
REMARK VINA RESULT:      -6.8      3.386      5.042
REMARK  Name = 
REMARK  9 active torsions:
REMARK  status: ('A' for Active; 'I' for Inactive)
REMARK    1  A    between atoms: C_1  and  C_2
REMARK    2  A    between atoms: C_5  and  C_6
REMARK    3  A    between atoms: C_7  and  C_8
REMARK    4  A    between atoms: C_8  and  C_9
REMARK    5  A    between atoms: C_9  and  C_10
REMARK    6  A    between atoms: C_15  and  C_16
REMARK    7  A    between atoms: C_16  and  C_17
REMARK    8  A    between atoms: C_17  and  C_18
REMARK    9  A    between atoms: C_17  and  C_19
REMARK                            x       y       z     vdW  Elec       q    Type
REMARK                         _______ _______ _______ _____ _____    ______ ____
ROOT
ATOM      1  C   UNL     1       2.338   5.555  19.649  0.00  0.00    +0.000 C 
ATOM      2  O   UNL     1       1.845   5.043  18.648  0.00  0.00    +0.000 OA
ATOM      3  N   UNL     1       3.685   5.611  19.968  0.00  0.00    +0.000 N 
ATOM      4  C   UNL     1       4.625   5.081  19.115  0.00  0.00    +0.000 A 
ATOM      5  N   UNL     1       4.437   4.489  17.962  0.00  0.00    +0.000 NA
ATOM      6  C   UNL     1       5.697   4.205  17.517  0.00  0.00    +0.000 A 
ATOM      7  N   UNL     1       6.677   4.567  18.354  0.00  0.00    +0.000 NA
ATOM      8  N   UNL     1       5.973   5.115  19.360  0.00  0.00    +0.000 N 
ATOM      9  H   UNL     1       3.982   6.058  20.824  0.00  0.00    +0.000 HD
ATOM     10  H   UNL     1       6.469   5.493  20.157  0.00  0.00    +0.000 HD
ENDROOT
BRANCH   1  11
ATOM     11  C   UNL     1       1.461   6.221  20.694  0.00  0.00    +0.000 C 
BRANCH  11  12
ATOM     12  C   UNL     1       1.969   7.637  20.974  0.00  0.00    +0.000 C 
BRANCH  12  19
ATOM     13  C   UNL     1      -0.427   9.243  22.495  0.00  0.00    +0.000 C 
ATOM     14  C   UNL     1       0.044   9.407  21.100  0.00  0.00    +0.000 A 
ATOM     15  N   UNL     1      -0.522  10.319  20.303  0.00  0.00    +0.000 NA
ATOM     16  O   UNL     1       0.151  10.240  19.101  0.00  0.00    +0.000 OA
ATOM     17  C   UNL     1       1.109   9.280  19.177  0.00  0.00    +0.000 A 
ATOM     18  C   UNL     1       1.934   9.087  17.970  0.00  0.00    +0.000 C 
ATOM     19  C   UNL     1       1.083   8.703  20.430  0.00  0.00    +0.000 A 
ENDBRANCH  12  19
ENDBRANCH  11  12
ENDBRANCH   1  11
BRANCH   6  20
ATOM     20  C   UNL     1       5.930   3.589  16.183  0.00  0.00    +0.000 C 
BRANCH  20  21
ATOM     21  C   UNL     1       5.408   4.456  15.020  0.00  0.00    +0.000 C 
ATOM     22  C   UNL     1       5.568   5.953  15.301  0.00  0.00    +0.000 C 
ATOM     23  C   UNL     1       6.134   4.093  13.723  0.00  0.00    +0.000 C 
ENDBRANCH  20  21
ENDBRANCH   6  20
TORSDOF 5
ENDMDL
