MODEL 1
REMARK VINA RESULT:      -7.4      0.000      0.000
REMARK  Name = 
REMARK  4 active torsions:
REMARK  status: ('A' for Active; 'I' for Inactive)
REMARK    1  A    between atoms: C_6  and  N_7
REMARK    2  A    between atoms: N_7  and  C_8
REMARK    3  A    between atoms: N_7  and  C_20
REMARK    4  A    between atoms: C_8  and  C_9
REMARK                            x       y       z     vdW  Elec       q    Type
REMARK                         _______ _______ _______ _____ _____    ______ ____
ROOT
ATOM      1  C   UNL     1       2.884   6.975  17.790  0.00  0.00    +0.000 C 
ENDROOT
BRANCH   1   2
ATOM      2  C   UNL     1       2.138   8.062  18.553  0.00  0.00    +0.000 A 
ATOM      3  C   UNL     1       2.072   8.062  19.958  0.00  0.00    +0.000 A 
ATOM      4  C   UNL     1       1.177   8.902  20.632  0.00  0.00    +0.000 A 
ATOM      5 CL   UNL     1       1.098   8.805  22.356  0.00  0.00    +0.000 Cl
ATOM      6  C   UNL     1       0.325   9.746  19.914  0.00  0.00    +0.000 A 
ATOM      7  C   UNL     1       0.430   9.777  18.519  0.00  0.00    +0.000 A 
ATOM      8  C   UNL     1       1.382   9.010  17.857  0.00  0.00    +0.000 A 
ATOM      9  O   UNL     1      -0.427  10.483  17.712  0.00  0.00    +0.000 OA
ATOM     10  C   UNL     1      -1.645  10.759  18.413  0.00  0.00    +0.000 C 
ATOM     11  C   UNL     1      -1.308  11.405  19.743  0.00  0.00    +0.000 C 
ATOM     12  O   UNL     1      -0.617  10.480  20.593  0.00  0.00    +0.000 OA
ENDBRANCH   1   2
BRANCH   1  13
ATOM     13  N   UNL     1       3.231   5.757  18.592  0.00  0.00    +0.000 NA
BRANCH  13  19
ATOM     14  O   UNL     1       7.766   4.425  18.091  0.00  0.00    +0.000 OA
ATOM     15  S   UNL     1       6.944   5.175  17.156  0.00  0.00    +0.000 S 
ATOM     16  O   UNL     1       7.527   6.080  16.185  0.00  0.00    +0.000 OA
ATOM     17  C   UNL     1       5.854   4.056  16.345  0.00  0.00    +0.000 C 
ATOM     18  C   UNL     1       4.437   4.481  16.742  0.00  0.00    +0.000 C 
ATOM     19  C   UNL     1       4.495   5.083  18.171  0.00  0.00    +0.000 C 
ATOM     20  C   UNL     1       5.696   6.043  18.082  0.00  0.00    +0.000 C 
ENDBRANCH  13  19
BRANCH  13  21
ATOM     21  C   UNL     1       2.042   4.862  18.713  0.00  0.00    +0.000 C 
ATOM     22  C   UNL     1       2.077   3.461  19.253  0.00  0.00    +0.000 C 
ATOM     23  C   UNL     1       1.517   4.557  20.099  0.00  0.00    +0.000 C 
ENDBRANCH  13  21
ENDBRANCH   1  13
TORSDOF 4
ENDMDL
MODEL 2
REMARK VINA RESULT:      -7.3      1.782      2.588
REMARK  Name = 
REMARK  4 active torsions:
REMARK  status: ('A' for Active; 'I' for Inactive)
REMARK    1  A    between atoms: C_6  and  N_7
REMARK    2  A    between atoms: N_7  and  C_8
REMARK    3  A    between atoms: N_7  and  C_20
REMARK    4  A    between atoms: C_8  and  C_9
REMARK                            x       y       z     vdW  Elec       q    Type
REMARK                         _______ _______ _______ _____ _____    ______ ____
ROOT
ATOM      1  C   UNL     1       3.143   7.612  17.736  0.00  0.00    +0.000 C 
ENDROOT
BRANCH   1   2
ATOM      2  C   UNL     1       2.023   8.234  18.559  0.00  0.00    +0.000 A 
ATOM      3  C   UNL     1       1.217   9.266  18.045  0.00  0.00    +0.000 A 
ATOM      4  C   UNL     1       0.375  10.004  18.886  0.00  0.00    +0.000 A 
ATOM      5 CL   UNL     1      -0.538  11.302  18.202  0.00  0.00    +0.000 Cl
ATOM      6  C   UNL     1       0.335   9.733  20.257  0.00  0.00    +0.000 A 
ATOM      7  C   UNL     1       1.102   8.674  20.754  0.00  0.00    +0.000 A 
ATOM      8  C   UNL     1       1.867   7.883  19.904  0.00  0.00    +0.000 A 
ATOM      9  O   UNL     1       1.222   8.390  22.093  0.00  0.00    +0.000 OA
ATOM     10  C   UNL     1       0.878   9.543  22.870  0.00  0.00    +0.000 C 
ATOM     11  C   UNL     1      -0.480  10.048  22.422  0.00  0.00    +0.000 C 
ATOM     12  O   UNL     1      -0.416  10.540  21.077  0.00  0.00    +0.000 OA
ENDBRANCH   1   2
BRANCH   1  13
ATOM     13  N   UNL     1       3.539   6.225  18.145  0.00  0.00    +0.000 NA
BRANCH  13  19
ATOM     14  O   UNL     1       7.823   4.177  17.917  0.00  0.00    +0.000 OA
ATOM     15  S   UNL     1       7.482   5.484  18.453  0.00  0.00    +0.000 S 
ATOM     16  O   UNL     1       8.292   6.125  19.470  0.00  0.00    +0.000 OA
ATOM     17  C   UNL     1       7.229   6.593  17.110  0.00  0.00    +0.000 C 
ATOM     18  C   UNL     1       5.764   7.030  17.189  0.00  0.00    +0.000 C 
ATOM     19  C   UNL     1       4.942   5.857  17.787  0.00  0.00    +0.000 C 
ATOM     20  C   UNL     1       5.789   5.438  19.003  0.00  0.00    +0.000 C 
ENDBRANCH  13  19
BRANCH  13  21
ATOM     21  C   UNL     1       2.496   5.244  17.723  0.00  0.00    +0.000 C 
ATOM     22  C   UNL     1       2.715   3.763  17.601  0.00  0.00    +0.000 C 
ATOM     23  C   UNL     1       1.946   4.296  18.766  0.00  0.00    +0.000 C 
ENDBRANCH  13  21
ENDBRANCH   1  13
TORSDOF 4
ENDMDL
MODEL 3
REMARK VINA RESULT:      -7.2      1.533      2.265
REMARK  Name = 
REMARK  4 active torsions:
REMARK  status: ('A' for Active; 'I' for Inactive)
REMARK    1  A    between atoms: C_6  and  N_7
REMARK    2  A    between atoms: N_7  and  C_8
REMARK    3  A    between atoms: N_7  and  C_20
REMARK    4  A    between atoms: C_8  and  C_9
REMARK                            x       y       z     vdW  Elec       q    Type
REMARK                         _______ _______ _______ _____ _____    ______ ____
ROOT
ATOM      1  C   UNL     1       3.217   7.228  17.952  0.00  0.00    +0.000 C 
ENDROOT
BRANCH   1   2
ATOM      2  C   UNL     1       2.109   7.973  18.684  0.00  0.00    +0.000 A 
ATOM      3  C   UNL     1       1.398   9.021  18.072  0.00  0.00    +0.000 A 
ATOM      4  C   UNL     1       0.574   9.864  18.829  0.00  0.00    +0.000 A 
ATOM      5 CL   UNL     1      -0.219  11.174  18.027  0.00  0.00    +0.000 Cl
ATOM      6  C   UNL     1       0.457   9.682  20.209  0.00  0.00    +0.000 A 
ATOM      7  C   UNL     1       1.128   8.608  20.804  0.00  0.00    +0.000 A 
ATOM      8  C   UNL     1       1.872   7.718  20.039  0.00  0.00    +0.000 A 
ATOM      9  O   UNL     1       1.172   8.401  22.161  0.00  0.00    +0.000 OA
ATOM     10  C   UNL     1       0.875   9.620  22.852  0.00  0.00    +0.000 C 
ATOM     11  C   UNL     1      -0.425  10.184  22.312  0.00  0.00    +0.000 C 
ATOM     12  O   UNL     1      -0.271  10.586  20.944  0.00  0.00    +0.000 OA
ENDBRANCH   1   2
BRANCH   1  13
ATOM     13  N   UNL     1       3.365   5.782  18.320  0.00  0.00    +0.000 NA
BRANCH  13  19
ATOM     14  O   UNL     1       7.888   4.392  17.876  0.00  0.00    +0.000 OA
ATOM     15  S   UNL     1       7.163   5.355  17.063  0.00  0.00    +0.000 S 
ATOM     16  O   UNL     1       7.845   6.416  16.349  0.00  0.00    +0.000 OA
ATOM     17  C   UNL     1       6.111   4.476  15.959  0.00  0.00    +0.000 C 
ATOM     18  C   UNL     1       4.679   4.869  16.333  0.00  0.00    +0.000 C 
ATOM     19  C   UNL     1       4.640   5.158  17.858  0.00  0.00    +0.000 C 
ATOM     20  C   UNL     1       5.869   6.063  18.060  0.00  0.00    +0.000 C 
ENDBRANCH  13  19
BRANCH  13  21
ATOM     21  C   UNL     1       2.123   5.031  17.968  0.00  0.00    +0.000 C 
ATOM     22  C   UNL     1       2.036   3.537  17.837  0.00  0.00    +0.000 C 
ATOM     23  C   UNL     1       1.463   4.201  19.046  0.00  0.00    +0.000 C 
ENDBRANCH  13  21
ENDBRANCH   1  13
TORSDOF 4
ENDMDL
MODEL 4
REMARK VINA RESULT:      -7.1      1.011      1.067
REMARK  Name = 
REMARK  4 active torsions:
REMARK  status: ('A' for Active; 'I' for Inactive)
REMARK    1  A    between atoms: C_6  and  N_7
REMARK    2  A    between atoms: N_7  and  C_8
REMARK    3  A    between atoms: N_7  and  C_20
REMARK    4  A    between atoms: C_8  and  C_9
REMARK                            x       y       z     vdW  Elec       q    Type
REMARK                         _______ _______ _______ _____ _____    ______ ____
ROOT
ATOM      1  C   UNL     1       2.526   6.875  17.983  0.00  0.00    +0.000 C 
ENDROOT
BRANCH   1   2
ATOM      2  C   UNL     1       1.923   8.049  18.743  0.00  0.00    +0.000 A 
ATOM      3  C   UNL     1       1.893   8.079  20.148  0.00  0.00    +0.000 A 
ATOM      4  C   UNL     1       1.113   9.023  20.828  0.00  0.00    +0.000 A 
ATOM      5 CL   UNL     1       1.068   8.963  22.554  0.00  0.00    +0.000 Cl
ATOM      6  C   UNL     1       0.340   9.943  20.114  0.00  0.00    +0.000 A 
ATOM      7  C   UNL     1       0.412   9.941  18.717  0.00  0.00    +0.000 A 
ATOM      8  C   UNL     1       1.257   9.063  18.047  0.00  0.00    +0.000 A 
ATOM      9  O   UNL     1      -0.383  10.723  17.917  0.00  0.00    +0.000 OA
ATOM     10  C   UNL     1      -1.545  11.142  18.642  0.00  0.00    +0.000 C 
ATOM     11  C   UNL     1      -1.106  11.769  19.950  0.00  0.00    +0.000 C 
ATOM     12  O   UNL     1      -0.499  10.787  20.801  0.00  0.00    +0.000 OA
ENDBRANCH   1   2
BRANCH   1  13
ATOM     13  N   UNL     1       3.332   5.923  18.815  0.00  0.00    +0.000 NA
BRANCH  13  19
ATOM     14  O   UNL     1       7.761   4.335  18.144  0.00  0.00    +0.000 OA
ATOM     15  S   UNL     1       7.318   5.709  18.316  0.00  0.00    +0.000 S 
ATOM     16  O   UNL     1       8.200   6.734  18.839  0.00  0.00    +0.000 OA
ATOM     17  C   UNL     1       6.599   6.259  16.807  0.00  0.00    +0.000 C 
ATOM     18  C   UNL     1       5.130   6.556  17.119  0.00  0.00    +0.000 C 
ATOM     19  C   UNL     1       4.670   5.589  18.243  0.00  0.00    +0.000 C 
ATOM     20  C   UNL     1       5.814   5.695  19.268  0.00  0.00    +0.000 C 
ENDBRANCH  13  19
BRANCH  13  21
ATOM     21  C   UNL     1       2.498   4.751  19.213  0.00  0.00    +0.000 C 
ATOM     22  C   UNL     1       3.022   3.522  19.901  0.00  0.00    +0.000 C 
ATOM     23  C   UNL     1       2.243   4.525  20.687  0.00  0.00    +0.000 C 
ENDBRANCH  13  21
ENDBRANCH   1  13
TORSDOF 4
ENDMDL
MODEL 5
REMARK VINA RESULT:      -6.9      0.929      1.324
REMARK  Name = 
REMARK  4 active torsions:
REMARK  status: ('A' for Active; 'I' for Inactive)
REMARK    1  A    between atoms: C_6  and  N_7
REMARK    2  A    between atoms: N_7  and  C_8
REMARK    3  A    between atoms: N_7  and  C_20
REMARK    4  A    between atoms: C_8  and  C_9
REMARK                            x       y       z     vdW  Elec       q    Type
REMARK                         _______ _______ _______ _____ _____    ______ ____
ROOT
ATOM      1  C   UNL     1       2.494   7.200  17.489  0.00  0.00    +0.000 C 
ENDROOT
BRANCH   1   2
ATOM      2  C   UNL     1       1.888   8.251  18.411  0.00  0.00    +0.000 A 
ATOM      3  C   UNL     1       1.929   8.114  19.810  0.00  0.00    +0.000 A 
ATOM      4  C   UNL     1       1.150   8.938  20.633  0.00  0.00    +0.000 A 
ATOM      5 CL   UNL     1       1.197   8.674  22.340  0.00  0.00    +0.000 Cl
ATOM      6  C   UNL     1       0.309   9.901  20.071  0.00  0.00    +0.000 A 
ATOM      7  C   UNL     1       0.309  10.065  18.681  0.00  0.00    +0.000 A 
ATOM      8  C   UNL     1       1.150   9.309  17.872  0.00  0.00    +0.000 A 
ATOM      9  O   UNL     1      -0.555  10.902  18.018  0.00  0.00    +0.000 OA
ATOM     10  C   UNL     1      -1.693  11.183  18.841  0.00  0.00    +0.000 C 
ATOM     11  C   UNL     1      -1.210  11.670  20.193  0.00  0.00    +0.000 C 
ATOM     12  O   UNL     1      -0.524  10.622  20.892  0.00  0.00    +0.000 OA
ENDBRANCH   1   2
BRANCH   1  13
ATOM     13  N   UNL     1       3.277   6.124  18.178  0.00  0.00    +0.000 NA
BRANCH  13  19
ATOM     14  O   UNL     1       7.733   7.004  16.777  0.00  0.00    +0.000 OA
ATOM     15  S   UNL     1       7.129   5.718  17.088  0.00  0.00    +0.000 S 
ATOM     16  O   UNL     1       7.623   4.484  16.510  0.00  0.00    +0.000 OA
ATOM     17  C   UNL     1       7.027   5.556  18.837  0.00  0.00    +0.000 C 
ATOM     18  C   UNL     1       5.535   5.472  19.171  0.00  0.00    +0.000 C 
ATOM     19  C   UNL     1       4.758   6.309  18.119  0.00  0.00    +0.000 C 
ATOM     20  C   UNL     1       5.378   5.839  16.791  0.00  0.00    +0.000 C 
ENDBRANCH  13  19
BRANCH  13  21
ATOM     21  C   UNL     1       2.786   4.778  17.758  0.00  0.00    +0.000 C 
ATOM     22  C   UNL     1       2.803   3.552  18.626  0.00  0.00    +0.000 C 
ATOM     23  C   UNL     1       1.510   4.258  18.381  0.00  0.00    +0.000 C 
ENDBRANCH  13  21
ENDBRANCH   1  13
TORSDOF 4
ENDMDL
MODEL 6
REMARK VINA RESULT:      -6.9      1.852      2.543
REMARK  Name = 
REMARK  4 active torsions:
REMARK  status: ('A' for Active; 'I' for Inactive)
REMARK    1  A    between atoms: C_6  and  N_7
REMARK    2  A    between atoms: N_7  and  C_8
REMARK    3  A    between atoms: N_7  and  C_20
REMARK    4  A    between atoms: C_8  and  C_9
REMARK                            x       y       z     vdW  Elec       q    Type
REMARK                         _______ _______ _______ _____ _____    ______ ____
ROOT
ATOM      1  C   UNL     1       3.231   7.635  17.827  0.00  0.00    +0.000 C 
ENDROOT
BRANCH   1   2
ATOM      2  C   UNL     1       2.073   8.225  18.622  0.00  0.00    +0.000 A 
ATOM      3  C   UNL     1       1.222   9.199  18.069  0.00  0.00    +0.000 A 
ATOM      4  C   UNL     1       0.336   9.919  18.880  0.00  0.00    +0.000 A 
ATOM      5 CL   UNL     1      -0.634  11.148  18.149  0.00  0.00    +0.000 Cl
ATOM      6  C   UNL     1       0.296   9.687  20.258  0.00  0.00    +0.000 A 
ATOM      7  C   UNL     1       1.109   8.684  20.794  0.00  0.00    +0.000 A 
ATOM      8  C   UNL     1       1.921   7.907  19.975  0.00  0.00    +0.000 A 
ATOM      9  O   UNL     1       1.230   8.446  22.142  0.00  0.00    +0.000 OA
ATOM     10  C   UNL     1       0.822   9.604  22.881  0.00  0.00    +0.000 C 
ATOM     11  C   UNL     1      -0.555  10.026  22.405  0.00  0.00    +0.000 C 
ATOM     12  O   UNL     1      -0.502  10.480  21.047  0.00  0.00    +0.000 OA
ENDBRANCH   1   2
BRANCH   1  13
ATOM     13  N   UNL     1       3.397   6.150  17.950  0.00  0.00    +0.000 NA
BRANCH  13  19
ATOM     14  O   UNL     1       6.179   3.215  15.451  0.00  0.00    +0.000 OA
ATOM     15  S   UNL     1       6.574   4.377  16.233  0.00  0.00    +0.000 S 
ATOM     16  O   UNL     1       7.903   4.497  16.799  0.00  0.00    +0.000 OA
ATOM     17  C   UNL     1       6.186   5.828  15.316  0.00  0.00    +0.000 C 
ATOM     18  C   UNL     1       5.142   6.585  16.141  0.00  0.00    +0.000 C 
ATOM     19  C   UNL     1       4.295   5.545  16.921  0.00  0.00    +0.000 C 
ATOM     20  C   UNL     1       5.369   4.619  17.520  0.00  0.00    +0.000 C 
ENDBRANCH  13  19
BRANCH  13  21
ATOM     21  C   UNL     1       2.065   5.492  18.099  0.00  0.00    +0.000 C 
ATOM     22  C   UNL     1       1.756   4.083  17.679  0.00  0.00    +0.000 C 
ATOM     23  C   UNL     1       1.924   4.394  19.130  0.00  0.00    +0.000 C 
ENDBRANCH  13  21
ENDBRANCH   1  13
TORSDOF 4
ENDMDL
MODEL 7
REMARK VINA RESULT:      -6.9      1.390      1.763
REMARK  Name = 
REMARK  4 active torsions:
REMARK  status: ('A' for Active; 'I' for Inactive)
REMARK    1  A    between atoms: C_6  and  N_7
REMARK    2  A    between atoms: N_7  and  C_8
REMARK    3  A    between atoms: N_7  and  C_20
REMARK    4  A    between atoms: C_8  and  C_9
REMARK                            x       y       z     vdW  Elec       q    Type
REMARK                         _______ _______ _______ _____ _____    ______ ____
ROOT
ATOM      1  C   UNL     1       2.530   4.894  18.881  0.00  0.00    +0.000 C 
ENDROOT
BRANCH   1   2
ATOM      2  C   UNL     1       2.322   6.347  19.290  0.00  0.00    +0.000 A 
ATOM      3  C   UNL     1       1.780   6.688  20.541  0.00  0.00    +0.000 A 
ATOM      4  C   UNL     1       1.351   7.996  20.803  0.00  0.00    +0.000 A 
ATOM      5 CL   UNL     1       0.632   8.335  22.337  0.00  0.00    +0.000 Cl
ATOM      6  C   UNL     1       1.445   8.979  19.814  0.00  0.00    +0.000 A 
ATOM      7  C   UNL     1       2.030   8.645  18.588  0.00  0.00    +0.000 A 
ATOM      8  C   UNL     1       2.538   7.371  18.362  0.00  0.00    +0.000 A 
ATOM      9  O   UNL     1       2.074   9.498  17.512  0.00  0.00    +0.000 OA
ATOM     10  C   UNL     1       1.075  10.515  17.654  0.00  0.00    +0.000 C 
ATOM     11  C   UNL     1       1.226  11.162  19.016  0.00  0.00    +0.000 C 
ATOM     12  O   UNL     1       0.919  10.225  20.057  0.00  0.00    +0.000 OA
ENDBRANCH   1   2
BRANCH   1  13
ATOM     13  N   UNL     1       3.741   4.234  19.469  0.00  0.00    +0.000 NA
BRANCH  13  19
ATOM     14  O   UNL     1       8.003   4.317  17.365  0.00  0.00    +0.000 OA
ATOM     15  S   UNL     1       6.826   5.106  17.038  0.00  0.00    +0.000 S 
ATOM     16  O   UNL     1       6.931   6.397  16.386  0.00  0.00    +0.000 OA
ATOM     17  C   UNL     1       5.695   4.087  16.155  0.00  0.00    +0.000 C 
ATOM     18  C   UNL     1       4.441   3.988  17.028  0.00  0.00    +0.000 C 
ATOM     19  C   UNL     1       4.879   4.076  18.515  0.00  0.00    +0.000 C 
ATOM     20  C   UNL     1       5.842   5.277  18.511  0.00  0.00    +0.000 C 
ENDBRANCH  13  19
BRANCH  13  21
ATOM     21  C   UNL     1       3.349   2.995  20.204  0.00  0.00    +0.000 C 
ATOM     22  C   UNL     1       2.391   2.954  21.361  0.00  0.00    +0.000 C 
ATOM     23  C   UNL     1       1.941   2.473  20.020  0.00  0.00    +0.000 C 
ENDBRANCH  13  21
ENDBRANCH   1  13
TORSDOF 4
ENDMDL
MODEL 8
REMARK VINA RESULT:      -6.9      3.000      6.963
REMARK  Name = 
REMARK  4 active torsions:
REMARK  status: ('A' for Active; 'I' for Inactive)
REMARK    1  A    between atoms: C_6  and  N_7
REMARK    2  A    between atoms: N_7  and  C_8
REMARK    3  A    between atoms: N_7  and  C_20
REMARK    4  A    between atoms: C_8  and  C_9
REMARK                            x       y       z     vdW  Elec       q    Type
REMARK                         _______ _______ _______ _____ _____    ______ ____
ROOT
ATOM      1  C   UNL     1       3.607   4.394  19.960  0.00  0.00    +0.000 C 
ENDROOT
BRANCH   1   2
ATOM      2  C   UNL     1       4.748   4.538  18.962  0.00  0.00    +0.000 A 
ATOM      3  C   UNL     1       5.838   5.392  19.208  0.00  0.00    +0.000 A 
ATOM      4  C   UNL     1       6.738   5.718  18.185  0.00  0.00    +0.000 A 
ATOM      5 CL   UNL     1       8.017   6.825  18.537  0.00  0.00    +0.000 Cl
ATOM      6  C   UNL     1       6.556   5.205  16.898  0.00  0.00    +0.000 A 
ATOM      7  C   UNL     1       5.499   4.318  16.671  0.00  0.00    +0.000 A 
ATOM      8  C   UNL     1       4.660   3.925  17.708  0.00  0.00    +0.000 A 
ATOM      9  O   UNL     1       5.163   3.843  15.427  0.00  0.00    +0.000 OA
ATOM     10  C   UNL     1       5.695   4.705  14.414  0.00  0.00    +0.000 C 
ATOM     11  C   UNL     1       7.176   4.901  14.668  0.00  0.00    +0.000 C 
ATOM     12  O   UNL     1       7.388   5.624  15.887  0.00  0.00    +0.000 OA
ENDBRANCH   1   2
BRANCH   1  13
ATOM     13  N   UNL     1       2.342   5.109  19.591  0.00  0.00    +0.000 NA
BRANCH  13  19
ATOM     14  O   UNL     1       1.855   9.151  22.045  0.00  0.00    +0.000 OA
ATOM     15  S   UNL     1       0.996   8.632  20.993  0.00  0.00    +0.000 S 
ATOM     16  O   UNL     1      -0.405   8.992  20.907  0.00  0.00    +0.000 OA
ATOM     17  C   UNL     1       1.777   8.914  19.441  0.00  0.00    +0.000 C 
ATOM     18  C   UNL     1       2.049   7.531  18.844  0.00  0.00    +0.000 C 
ATOM     19  C   UNL     1       2.301   6.541  20.013  0.00  0.00    +0.000 C 
ATOM     20  C   UNL     1       1.143   6.858  20.977  0.00  0.00    +0.000 C 
ENDBRANCH  13  19
BRANCH  13  21
ATOM     21  C   UNL     1       1.155   4.295  19.984  0.00  0.00    +0.000 C 
ATOM     22  C   UNL     1       0.933   2.861  19.594  0.00  0.00    +0.000 C 
ATOM     23  C   UNL     1       1.354   3.183  20.990  0.00  0.00    +0.000 C 
ENDBRANCH  13  21
ENDBRANCH   1  13
TORSDOF 4
ENDMDL
MODEL 9
REMARK VINA RESULT:      -6.9      1.770      2.576
REMARK  Name = 
REMARK  4 active torsions:
REMARK  status: ('A' for Active; 'I' for Inactive)
REMARK    1  A    between atoms: C_6  and  N_7
REMARK    2  A    between atoms: N_7  and  C_8
REMARK    3  A    between atoms: N_7  and  C_20
REMARK    4  A    between atoms: C_8  and  C_9
REMARK                            x       y       z     vdW  Elec       q    Type
REMARK                         _______ _______ _______ _____ _____    ______ ____
ROOT
ATOM      1  C   UNL     1       3.077   7.828  17.725  0.00  0.00    +0.000 C 
ENDROOT
BRANCH   1   2
ATOM      2  C   UNL     1       1.941   8.379  18.577  0.00  0.00    +0.000 A 
ATOM      3  C   UNL     1       1.067   9.366  18.087  0.00  0.00    +0.000 A 
ATOM      4  C   UNL     1       0.202  10.049  18.952  0.00  0.00    +0.000 A 
ATOM      5 CL   UNL     1      -0.798  11.297  18.298  0.00  0.00    +0.000 Cl
ATOM      6  C   UNL     1       0.206   9.766  20.320  0.00  0.00    +0.000 A 
ATOM      7  C   UNL     1       1.043   8.749  20.794  0.00  0.00    +0.000 A 
ATOM      8  C   UNL     1       1.834   8.010  19.921  0.00  0.00    +0.000 A 
ATOM      9  O   UNL     1       1.207   8.464  22.127  0.00  0.00    +0.000 OA
ATOM     10  C   UNL     1       0.814   9.590  22.921  0.00  0.00    +0.000 C 
ATOM     11  C   UNL     1      -0.579  10.019  22.504  0.00  0.00    +0.000 C 
ATOM     12  O   UNL     1      -0.572  10.523  21.162  0.00  0.00    +0.000 OA
ENDBRANCH   1   2
BRANCH   1  13
ATOM     13  N   UNL     1       3.573   6.471  18.125  0.00  0.00    +0.000 NA
BRANCH  13  19
ATOM     14  O   UNL     1       7.624   6.023  15.679  0.00  0.00    +0.000 OA
ATOM     15  S   UNL     1       6.716   4.972  16.110  0.00  0.00    +0.000 S 
ATOM     16  O   UNL     1       6.628   3.707  15.407  0.00  0.00    +0.000 OA
ATOM     17  C   UNL     1       6.968   4.681  17.827  0.00  0.00    +0.000 C 
ATOM     18  C   UNL     1       5.651   5.043  18.518  0.00  0.00    +0.000 C 
ATOM     19  C   UNL     1       4.977   6.181  17.705  0.00  0.00    +0.000 C 
ATOM     20  C   UNL     1       5.085   5.670  16.257  0.00  0.00    +0.000 C 
ENDBRANCH  13  19
BRANCH  13  21
ATOM     21  C   UNL     1       2.571   5.426  17.761  0.00  0.00    +0.000 C 
ATOM     22  C   UNL     1       2.790   3.946  17.898  0.00  0.00    +0.000 C 
ATOM     23  C   UNL     1       1.911   4.650  18.879  0.00  0.00    +0.000 C 
ENDBRANCH  13  21
ENDBRANCH   1  13
TORSDOF 4
ENDMDL
