MODEL 1
REMARK VINA RESULT:      -7.0      0.000      0.000
REMARK  Name = 
REMARK  7 active torsions:
REMARK  status: ('A' for Active; 'I' for Inactive)
REMARK    1  A    between atoms: C_1  and  O_2
REMARK    2  A    between atoms: O_2  and  C_3
REMARK    3  A    between atoms: C_6  and  S_7
REMARK    4  A    between atoms: S_7  and  C_8
REMARK    5  A    between atoms: C_9  and  N_10
REMARK    6  A    between atoms: C_14  and  C_15
REMARK    7  A    between atoms: C_20  and  N_21
REMARK                            x       y       z     vdW  Elec       q    Type
REMARK                         _______ _______ _______ _____ _____    ______ ____
ROOT
ATOM      1  C   UNL     1       5.087   4.863  17.441  0.00  0.00    +0.000 A 
ATOM      2  C   UNL     1       6.167   5.464  16.770  0.00  0.00    +0.000 A 
ATOM      3  C   UNL     1       6.487   5.188  15.425  0.00  0.00    +0.000 A 
ATOM      4  C   UNL     1       5.746   4.246  14.703  0.00  0.00    +0.000 A 
ATOM      5  C   UNL     1       4.683   3.602  15.350  0.00  0.00    +0.000 A 
ATOM      6  C   UNL     1       4.367   3.916  16.690  0.00  0.00    +0.000 A 
ENDROOT
BRANCH   4   7
ATOM      7  C   UNL     1       6.092   3.895  13.272  0.00  0.00    +0.000 C 
ATOM      8  F   UNL     1       7.078   4.673  12.753  0.00  0.00    +0.000 F 
ATOM      9  F   UNL     1       6.519   2.610  13.153  0.00  0.00    +0.000 F 
ATOM     10  F   UNL     1       5.026   4.022  12.439  0.00  0.00    +0.000 F 
ENDBRANCH   4   7
BRANCH   2  11
ATOM     11  N   UNL     1       7.076   6.358  17.466  0.00  0.00    +0.000 N 
ATOM     12  O   UNL     1       7.814   5.855  18.319  0.00  0.00    +0.000 OA
ATOM     13  O   UNL     1       7.090   7.538  17.091  0.00  0.00    +0.000 OA
ENDBRANCH   2  11
BRANCH   6  14
ATOM     14  N   UNL     1       3.251   3.186  17.267  0.00  0.00    +0.000 N 
ATOM     15  O   UNL     1       2.118   3.650  17.083  0.00  0.00    +0.000 OA
ATOM     16  O   UNL     1       3.517   2.116  17.824  0.00  0.00    +0.000 OA
ENDBRANCH   6  14
BRANCH   1  17
ATOM     17  S   UNL     1       4.671   5.239  19.147  0.00  0.00    +0.000 S 
BRANCH  17  21
ATOM     18  C   UNL     1       1.631   8.661  18.695  0.00  0.00    +0.000 A 
ATOM     19  C   UNL     1       2.543   8.398  17.673  0.00  0.00    +0.000 A 
ATOM     20  C   UNL     1       3.464   7.352  17.791  0.00  0.00    +0.000 A 
ATOM     21  C   UNL     1       3.502   6.577  18.953  0.00  0.00    +0.000 A 
ATOM     22  C   UNL     1       2.593   6.847  19.981  0.00  0.00    +0.000 A 
ATOM     23  C   UNL     1       1.662   7.887  19.855  0.00  0.00    +0.000 A 
BRANCH  18  25
ATOM     24  C   UNL     1       0.344  10.417  19.618  0.00  0.00    +0.000 C 
ATOM     25  O   UNL     1       0.785   9.710  18.464  0.00  0.00    +0.000 OA
ENDBRANCH  18  25
ENDBRANCH  17  21
ENDBRANCH   1  17
TORSDOF 6
ENDMDL
MODEL 2
REMARK VINA RESULT:      -6.9      0.242      1.245
REMARK  Name = 
REMARK  7 active torsions:
REMARK  status: ('A' for Active; 'I' for Inactive)
REMARK    1  A    between atoms: C_1  and  O_2
REMARK    2  A    between atoms: O_2  and  C_3
REMARK    3  A    between atoms: C_6  and  S_7
REMARK    4  A    between atoms: S_7  and  C_8
REMARK    5  A    between atoms: C_9  and  N_10
REMARK    6  A    between atoms: C_14  and  C_15
REMARK    7  A    between atoms: C_20  and  N_21
REMARK                            x       y       z     vdW  Elec       q    Type
REMARK                         _______ _______ _______ _____ _____    ______ ____
ROOT
ATOM      1  C   UNL     1       5.069   4.872  17.459  0.00  0.00    +0.000 A 
ATOM      2  C   UNL     1       6.144   5.481  16.786  0.00  0.00    +0.000 A 
ATOM      3  C   UNL     1       6.465   5.206  15.440  0.00  0.00    +0.000 A 
ATOM      4  C   UNL     1       5.729   4.258  14.720  0.00  0.00    +0.000 A 
ATOM      5  C   UNL     1       4.672   3.607  15.369  0.00  0.00    +0.000 A 
ATOM      6  C   UNL     1       4.356   3.920  16.709  0.00  0.00    +0.000 A 
ENDROOT
BRANCH   4   7
ATOM      7  C   UNL     1       6.077   3.908  13.289  0.00  0.00    +0.000 C 
ATOM      8  F   UNL     1       6.530   2.634  13.143  0.00  0.00    +0.000 F 
ATOM      9  F   UNL     1       5.006   4.028  12.462  0.00  0.00    +0.000 F 
ATOM     10  F   UNL     1       7.044   4.718  12.782  0.00  0.00    +0.000 F 
ENDBRANCH   4   7
BRANCH   2  11
ATOM     11  N   UNL     1       7.048   6.382  17.480  0.00  0.00    +0.000 N 
ATOM     12  O   UNL     1       7.796   5.883  18.327  0.00  0.00    +0.000 OA
ATOM     13  O   UNL     1       7.048   7.563  17.109  0.00  0.00    +0.000 OA
ENDBRANCH   2  11
BRANCH   6  14
ATOM     14  N   UNL     1       3.245   3.182  17.287  0.00  0.00    +0.000 N 
ATOM     15  O   UNL     1       2.109   3.636  17.100  0.00  0.00    +0.000 OA
ATOM     16  O   UNL     1       3.520   2.117  17.849  0.00  0.00    +0.000 OA
ENDBRANCH   6  14
BRANCH   1  17
ATOM     17  S   UNL     1       4.653   5.247  19.164  0.00  0.00    +0.000 S 
BRANCH  17  21
ATOM     18  C   UNL     1       1.651   8.689  18.619  0.00  0.00    +0.000 A 
ATOM     19  C   UNL     1       1.638   7.930  19.790  0.00  0.00    +0.000 A 
ATOM     20  C   UNL     1       2.554   6.890  19.974  0.00  0.00    +0.000 A 
ATOM     21  C   UNL     1       3.474   6.576  18.971  0.00  0.00    +0.000 A 
ATOM     22  C   UNL     1       3.480   7.332  17.793  0.00  0.00    +0.000 A 
ATOM     23  C   UNL     1       2.570   8.383  17.616  0.00  0.00    +0.000 A 
BRANCH  18  25
ATOM     24  C   UNL     1       1.139  10.976  18.936  0.00  0.00    +0.000 C 
ATOM     25  O   UNL     1       0.706   9.674  18.555  0.00  0.00    +0.000 OA
ENDBRANCH  18  25
ENDBRANCH  17  21
ENDBRANCH   1  17
TORSDOF 6
ENDMDL
MODEL 3
REMARK VINA RESULT:      -6.9      0.700      1.038
REMARK  Name = 
REMARK  7 active torsions:
REMARK  status: ('A' for Active; 'I' for Inactive)
REMARK    1  A    between atoms: C_1  and  O_2
REMARK    2  A    between atoms: O_2  and  C_3
REMARK    3  A    between atoms: C_6  and  S_7
REMARK    4  A    between atoms: S_7  and  C_8
REMARK    5  A    between atoms: C_9  and  N_10
REMARK    6  A    between atoms: C_14  and  C_15
REMARK    7  A    between atoms: C_20  and  N_21
REMARK                            x       y       z     vdW  Elec       q    Type
REMARK                         _______ _______ _______ _____ _____    ______ ____
ROOT
ATOM      1  C   UNL     1       5.070   4.409  17.609  0.00  0.00    +0.000 A 
ATOM      2  C   UNL     1       6.286   4.855  17.062  0.00  0.00    +0.000 A 
ATOM      3  C   UNL     1       6.618   4.706  15.699  0.00  0.00    +0.000 A 
ATOM      4  C   UNL     1       5.740   4.049  14.828  0.00  0.00    +0.000 A 
ATOM      5  C   UNL     1       4.534   3.561  15.347  0.00  0.00    +0.000 A 
ATOM      6  C   UNL     1       4.215   3.748  16.710  0.00  0.00    +0.000 A 
ENDROOT
BRANCH   4   7
ATOM      7  C   UNL     1       6.087   3.833  13.371  0.00  0.00    +0.000 C 
ATOM      8  F   UNL     1       6.544   2.579  13.109  0.00  0.00    +0.000 F 
ATOM      9  F   UNL     1       5.015   4.024  12.559  0.00  0.00    +0.000 F 
ATOM     10  F   UNL     1       7.050   4.689  12.939  0.00  0.00    +0.000 F 
ENDBRANCH   4   7
BRANCH   2  11
ATOM     11  N   UNL     1       7.319   5.434  17.904  0.00  0.00    +0.000 N 
ATOM     12  O   UNL     1       8.110   4.650  18.439  0.00  0.00    +0.000 OA
ATOM     13  O   UNL     1       7.369   6.669  17.952  0.00  0.00    +0.000 OA
ENDBRANCH   2  11
BRANCH   6  14
ATOM     14  N   UNL     1       2.942   3.198  17.144  0.00  0.00    +0.000 N 
ATOM     15  O   UNL     1       1.940   3.909  16.996  0.00  0.00    +0.000 OA
ATOM     16  O   UNL     1       2.953   2.031  17.550  0.00  0.00    +0.000 OA
ENDBRANCH   6  14
BRANCH   1  17
ATOM     17  S   UNL     1       4.646   4.627  19.340  0.00  0.00    +0.000 S 
BRANCH  17  21
ATOM     18  C   UNL     1       1.773   8.217  19.214  0.00  0.00    +0.000 A 
ATOM     19  C   UNL     1       2.665   7.999  18.164  0.00  0.00    +0.000 A 
ATOM     20  C   UNL     1       3.534   6.904  18.183  0.00  0.00    +0.000 A 
ATOM     21  C   UNL     1       3.542   6.031  19.273  0.00  0.00    +0.000 A 
ATOM     22  C   UNL     1       2.654   6.255  20.330  0.00  0.00    +0.000 A 
ATOM     23  C   UNL     1       1.774   7.346  20.303  0.00  0.00    +0.000 A 
BRANCH  18  25
ATOM     24  C   UNL     1       1.518  10.386  18.306  0.00  0.00    +0.000 C 
ATOM     25  O   UNL     1       0.978   9.321  19.082  0.00  0.00    +0.000 OA
ENDBRANCH  18  25
ENDBRANCH  17  21
ENDBRANCH   1  17
TORSDOF 6
ENDMDL
MODEL 4
REMARK VINA RESULT:      -6.9      0.139      3.072
REMARK  Name = 
REMARK  7 active torsions:
REMARK  status: ('A' for Active; 'I' for Inactive)
REMARK    1  A    between atoms: C_1  and  O_2
REMARK    2  A    between atoms: O_2  and  C_3
REMARK    3  A    between atoms: C_6  and  S_7
REMARK    4  A    between atoms: S_7  and  C_8
REMARK    5  A    between atoms: C_9  and  N_10
REMARK    6  A    between atoms: C_14  and  C_15
REMARK    7  A    between atoms: C_20  and  N_21
REMARK                            x       y       z     vdW  Elec       q    Type
REMARK                         _______ _______ _______ _____ _____    ______ ____
ROOT
ATOM      1  C   UNL     1       5.190   4.762  17.436  0.00  0.00    +0.000 A 
ATOM      2  C   UNL     1       4.451   3.841  16.673  0.00  0.00    +0.000 A 
ATOM      3  C   UNL     1       4.763   3.522  15.336  0.00  0.00    +0.000 A 
ATOM      4  C   UNL     1       5.826   4.164  14.688  0.00  0.00    +0.000 A 
ATOM      5  C   UNL     1       6.564   5.113  15.408  0.00  0.00    +0.000 A 
ATOM      6  C   UNL     1       6.245   5.394  16.755  0.00  0.00    +0.000 A 
ENDROOT
BRANCH   4   7
ATOM      7  C   UNL     1       6.159   3.877  13.240  0.00  0.00    +0.000 C 
ATOM      8  F   UNL     1       7.133   4.685  12.743  0.00  0.00    +0.000 F 
ATOM      9  F   UNL     1       6.593   2.602  13.061  0.00  0.00    +0.000 F 
ATOM     10  F   UNL     1       5.082   4.032  12.425  0.00  0.00    +0.000 F 
ENDBRANCH   4   7
BRANCH   2  11
ATOM     11  N   UNL     1       3.253   3.216  17.208  0.00  0.00    +0.000 N 
ATOM     12  O   UNL     1       2.177   3.776  16.975  0.00  0.00    +0.000 OA
ATOM     13  O   UNL     1       3.403   2.132  17.786  0.00  0.00    +0.000 OA
ENDBRANCH   2  11
BRANCH   6  14
ATOM     14  N   UNL     1       7.070   6.398  17.405  0.00  0.00    +0.000 N 
ATOM     15  O   UNL     1       7.838   6.008  18.294  0.00  0.00    +0.000 OA
ATOM     16  O   UNL     1       6.996   7.549  16.960  0.00  0.00    +0.000 OA
ENDBRANCH   6  14
BRANCH   1  17
ATOM     17  S   UNL     1       4.799   5.142  19.147  0.00  0.00    +0.000 S 
BRANCH  17  21
ATOM     18  C   UNL     1       1.700   8.514  18.730  0.00  0.00    +0.000 A 
ATOM     19  C   UNL     1       2.606   8.268  17.699  0.00  0.00    +0.000 A 
ATOM     20  C   UNL     1       3.544   7.237  17.807  0.00  0.00    +0.000 A 
ATOM     21  C   UNL     1       3.607   6.460  18.967  0.00  0.00    +0.000 A 
ATOM     22  C   UNL     1       2.704   6.715  20.004  0.00  0.00    +0.000 A 
ATOM     23  C   UNL     1       1.755   7.739  19.889  0.00  0.00    +0.000 A 
BRANCH  18  25
ATOM     24  C   UNL     1       0.578  10.393  19.628  0.00  0.00    +0.000 C 
ATOM     25  O   UNL     1       0.835   9.550  18.510  0.00  0.00    +0.000 OA
ENDBRANCH  18  25
ENDBRANCH  17  21
ENDBRANCH   1  17
TORSDOF 6
ENDMDL
MODEL 5
REMARK VINA RESULT:      -6.9      0.748      1.386
REMARK  Name = 
REMARK  7 active torsions:
REMARK  status: ('A' for Active; 'I' for Inactive)
REMARK    1  A    between atoms: C_1  and  O_2
REMARK    2  A    between atoms: O_2  and  C_3
REMARK    3  A    between atoms: C_6  and  S_7
REMARK    4  A    between atoms: S_7  and  C_8
REMARK    5  A    between atoms: C_9  and  N_10
REMARK    6  A    between atoms: C_14  and  C_15
REMARK    7  A    between atoms: C_20  and  N_21
REMARK                            x       y       z     vdW  Elec       q    Type
REMARK                         _______ _______ _______ _____ _____    ______ ____
ROOT
ATOM      1  C   UNL     1       5.146   4.329  17.567  0.00  0.00    +0.000 A 
ATOM      2  C   UNL     1       6.360   4.781  17.018  0.00  0.00    +0.000 A 
ATOM      3  C   UNL     1       6.678   4.661  15.650  0.00  0.00    +0.000 A 
ATOM      4  C   UNL     1       5.789   4.030  14.772  0.00  0.00    +0.000 A 
ATOM      5  C   UNL     1       4.585   3.537  15.290  0.00  0.00    +0.000 A 
ATOM      6  C   UNL     1       4.279   3.694  16.660  0.00  0.00    +0.000 A 
ENDROOT
BRANCH   4   7
ATOM      7  C   UNL     1       6.122   3.845  13.307  0.00  0.00    +0.000 C 
ATOM      8  F   UNL     1       5.060   4.058  12.485  0.00  0.00    +0.000 F 
ATOM      9  F   UNL     1       7.097   4.697  12.896  0.00  0.00    +0.000 F 
ATOM     10  F   UNL     1       6.570   2.591  13.036  0.00  0.00    +0.000 F 
ENDBRANCH   4   7
BRANCH   2  11
ATOM     11  N   UNL     1       7.403   5.333  17.864  0.00  0.00    +0.000 N 
ATOM     12  O   UNL     1       7.428   6.562  17.994  0.00  0.00    +0.000 OA
ATOM     13  O   UNL     1       8.133   4.522  18.448  0.00  0.00    +0.000 OA
ENDBRANCH   2  11
BRANCH   6  14
ATOM     14  N   UNL     1       3.007   3.141  17.093  0.00  0.00    +0.000 N 
ATOM     15  O   UNL     1       3.029   2.022  17.621  0.00  0.00    +0.000 OA
ATOM     16  O   UNL     1       2.016   3.870  16.973  0.00  0.00    +0.000 OA
ENDBRANCH   6  14
BRANCH   1  17
ATOM     17  S   UNL     1       4.738   4.509  19.306  0.00  0.00    +0.000 S 
BRANCH  17  21
ATOM     18  C   UNL     1       1.842   8.082  19.281  0.00  0.00    +0.000 A 
ATOM     19  C   UNL     1       2.750   7.912  18.236  0.00  0.00    +0.000 A 
ATOM     20  C   UNL     1       3.626   6.823  18.224  0.00  0.00    +0.000 A 
ATOM     21  C   UNL     1       3.626   5.907  19.279  0.00  0.00    +0.000 A 
ATOM     22  C   UNL     1       2.721   6.083  20.331  0.00  0.00    +0.000 A 
ATOM     23  C   UNL     1       1.833   7.168  20.335  0.00  0.00    +0.000 A 
BRANCH  18  25
ATOM     24  C   UNL     1       1.420  10.142  18.198  0.00  0.00    +0.000 C 
ATOM     25  O   UNL     1       1.040   9.185  19.182  0.00  0.00    +0.000 OA
ENDBRANCH  18  25
ENDBRANCH  17  21
ENDBRANCH   1  17
TORSDOF 6
ENDMDL
MODEL 6
REMARK VINA RESULT:      -6.9      0.533      1.467
REMARK  Name = 
REMARK  7 active torsions:
REMARK  status: ('A' for Active; 'I' for Inactive)
REMARK    1  A    between atoms: C_1  and  O_2
REMARK    2  A    between atoms: O_2  and  C_3
REMARK    3  A    between atoms: C_6  and  S_7
REMARK    4  A    between atoms: S_7  and  C_8
REMARK    5  A    between atoms: C_9  and  N_10
REMARK    6  A    between atoms: C_14  and  C_15
REMARK    7  A    between atoms: C_20  and  N_21
REMARK                            x       y       z     vdW  Elec       q    Type
REMARK                         _______ _______ _______ _____ _____    ______ ____
ROOT
ATOM      1  C   UNL     1       4.920   4.575  17.674  0.00  0.00    +0.000 A 
ATOM      2  C   UNL     1       6.137   5.043  17.147  0.00  0.00    +0.000 A 
ATOM      3  C   UNL     1       6.511   4.864  15.799  0.00  0.00    +0.000 A 
ATOM      4  C   UNL     1       5.679   4.155  14.924  0.00  0.00    +0.000 A 
ATOM      5  C   UNL     1       4.474   3.645  15.424  0.00  0.00    +0.000 A 
ATOM      6  C   UNL     1       4.111   3.861  16.772  0.00  0.00    +0.000 A 
ENDROOT
BRANCH   4   7
ATOM      7  C   UNL     1       6.074   3.907  13.484  0.00  0.00    +0.000 C 
ATOM      8  F   UNL     1       5.048   4.086  12.609  0.00  0.00    +0.000 F 
ATOM      9  F   UNL     1       7.069   4.739  13.079  0.00  0.00    +0.000 F 
ATOM     10  F   UNL     1       6.530   2.642  13.287  0.00  0.00    +0.000 F 
ENDBRANCH   4   7
BRANCH   2  11
ATOM     11  N   UNL     1       7.127   5.678  17.999  0.00  0.00    +0.000 N 
ATOM     12  O   UNL     1       7.861   4.933  18.657  0.00  0.00    +0.000 OA
ATOM     13  O   UNL     1       7.206   6.911  17.936  0.00  0.00    +0.000 OA
ENDBRANCH   2  11
BRANCH   6  14
ATOM     14  N   UNL     1       2.844   3.284  17.188  0.00  0.00    +0.000 N 
ATOM     15  O   UNL     1       2.877   2.150  17.684  0.00  0.00    +0.000 OA
ATOM     16  O   UNL     1       1.847   4.006  17.087  0.00  0.00    +0.000 OA
ENDBRANCH   6  14
BRANCH   1  17
ATOM     17  S   UNL     1       4.440   4.830  19.385  0.00  0.00    +0.000 S 
BRANCH  17  21
ATOM     18  C   UNL     1       1.731   8.527  19.014  0.00  0.00    +0.000 A 
ATOM     19  C   UNL     1       1.688   7.743  20.166  0.00  0.00    +0.000 A 
ATOM     20  C   UNL     1       2.516   6.625  20.298  0.00  0.00    +0.000 A 
ATOM     21  C   UNL     1       3.375   6.258  19.259  0.00  0.00    +0.000 A 
ATOM     22  C   UNL     1       3.411   7.040  18.100  0.00  0.00    +0.000 A 
ATOM     23  C   UNL     1       2.590   8.169  17.974  0.00  0.00    +0.000 A 
BRANCH  18  25
ATOM     24  C   UNL     1       0.092   9.773  20.178  0.00  0.00    +0.000 C 
ATOM     25  O   UNL     1       0.872   9.591  19.001  0.00  0.00    +0.000 OA
ENDBRANCH  18  25
ENDBRANCH  17  21
ENDBRANCH   1  17
TORSDOF 6
ENDMDL
MODEL 7
REMARK VINA RESULT:      -6.9      0.336      3.115
REMARK  Name = 
REMARK  7 active torsions:
REMARK  status: ('A' for Active; 'I' for Inactive)
REMARK    1  A    between atoms: C_1  and  O_2
REMARK    2  A    between atoms: O_2  and  C_3
REMARK    3  A    between atoms: C_6  and  S_7
REMARK    4  A    between atoms: S_7  and  C_8
REMARK    5  A    between atoms: C_9  and  N_10
REMARK    6  A    between atoms: C_14  and  C_15
REMARK    7  A    between atoms: C_20  and  N_21
REMARK                            x       y       z     vdW  Elec       q    Type
REMARK                         _______ _______ _______ _____ _____    ______ ____
ROOT
ATOM      1  C   UNL     1       5.205   4.753  17.434  0.00  0.00    +0.000 A 
ATOM      2  C   UNL     1       4.451   3.836  16.681  0.00  0.00    +0.000 A 
ATOM      3  C   UNL     1       4.745   3.514  15.340  0.00  0.00    +0.000 A 
ATOM      4  C   UNL     1       5.804   4.147  14.680  0.00  0.00    +0.000 A 
ATOM      5  C   UNL     1       6.557   5.092  15.389  0.00  0.00    +0.000 A 
ATOM      6  C   UNL     1       6.256   5.377  16.739  0.00  0.00    +0.000 A 
ENDROOT
BRANCH   4   7
ATOM      7  C   UNL     1       6.118   3.857  13.228  0.00  0.00    +0.000 C 
ATOM      8  F   UNL     1       6.548   2.585  13.016  0.00  0.00    +0.000 F 
ATOM      9  F   UNL     1       5.032   4.029  12.429  0.00  0.00    +0.000 F 
ATOM     10  F   UNL     1       7.086   4.675  12.738  0.00  0.00    +0.000 F 
ENDBRANCH   4   7
BRANCH   2  11
ATOM     11  N   UNL     1       3.255   3.220  17.231  0.00  0.00    +0.000 N 
ATOM     12  O   UNL     1       2.182   3.795  17.023  0.00  0.00    +0.000 OA
ATOM     13  O   UNL     1       3.402   2.129  17.796  0.00  0.00    +0.000 OA
ENDBRANCH   2  11
BRANCH   6  14
ATOM     14  N   UNL     1       7.095   6.377  17.378  0.00  0.00    +0.000 N 
ATOM     15  O   UNL     1       6.950   7.551  17.013  0.00  0.00    +0.000 OA
ATOM     16  O   UNL     1       7.827   5.984  18.293  0.00  0.00    +0.000 OA
ENDBRANCH   6  14
BRANCH   1  17
ATOM     17  S   UNL     1       4.837   5.138  19.149  0.00  0.00    +0.000 S 
BRANCH  17  21
ATOM     18  C   UNL     1       1.702   8.481  18.763  0.00  0.00    +0.000 A 
ATOM     19  C   UNL     1       2.619   8.261  17.735  0.00  0.00    +0.000 A 
ATOM     20  C   UNL     1       3.568   7.239  17.833  0.00  0.00    +0.000 A 
ATOM     21  C   UNL     1       3.631   6.445  18.981  0.00  0.00    +0.000 A 
ATOM     22  C   UNL     1       2.717   6.673  20.016  0.00  0.00    +0.000 A 
ATOM     23  C   UNL     1       1.758   7.688  19.910  0.00  0.00    +0.000 A 
BRANCH  18  25
ATOM     24  C   UNL     1       1.386  10.819  18.594  0.00  0.00    +0.000 C 
ATOM     25  O   UNL     1       0.827   9.510  18.553  0.00  0.00    +0.000 OA
ENDBRANCH  18  25
ENDBRANCH  17  21
ENDBRANCH   1  17
TORSDOF 6
ENDMDL
MODEL 8
REMARK VINA RESULT:      -6.8      0.164      3.035
REMARK  Name = 
REMARK  7 active torsions:
REMARK  status: ('A' for Active; 'I' for Inactive)
REMARK    1  A    between atoms: C_1  and  O_2
REMARK    2  A    between atoms: O_2  and  C_3
REMARK    3  A    between atoms: C_6  and  S_7
REMARK    4  A    between atoms: S_7  and  C_8
REMARK    5  A    between atoms: C_9  and  N_10
REMARK    6  A    between atoms: C_14  and  C_15
REMARK    7  A    between atoms: C_20  and  N_21
REMARK                            x       y       z     vdW  Elec       q    Type
REMARK                         _______ _______ _______ _____ _____    ______ ____
ROOT
ATOM      1  C   UNL     1       5.208   4.755  17.415  0.00  0.00    +0.000 A 
ATOM      2  C   UNL     1       4.458   3.835  16.662  0.00  0.00    +0.000 A 
ATOM      3  C   UNL     1       4.755   3.513  15.321  0.00  0.00    +0.000 A 
ATOM      4  C   UNL     1       5.812   4.150  14.661  0.00  0.00    +0.000 A 
ATOM      5  C   UNL     1       6.561   5.098  15.371  0.00  0.00    +0.000 A 
ATOM      6  C   UNL     1       6.258   5.382  16.721  0.00  0.00    +0.000 A 
ENDROOT
BRANCH   4   7
ATOM      7  C   UNL     1       6.128   3.860  13.209  0.00  0.00    +0.000 C 
ATOM      8  F   UNL     1       5.056   4.014  12.386  0.00  0.00    +0.000 F 
ATOM      9  F   UNL     1       7.099   4.679  12.727  0.00  0.00    +0.000 F 
ATOM     10  F   UNL     1       6.572   2.589  13.024  0.00  0.00    +0.000 F 
ENDBRANCH   4   7
BRANCH   2  11
ATOM     11  N   UNL     1       3.264   3.215  17.211  0.00  0.00    +0.000 N 
ATOM     12  O   UNL     1       3.420   2.172  17.855  0.00  0.00    +0.000 OA
ATOM     13  O   UNL     1       2.199   3.825  17.054  0.00  0.00    +0.000 OA
ENDBRANCH   2  11
BRANCH   6  14
ATOM     14  N   UNL     1       7.093   6.385  17.360  0.00  0.00    +0.000 N 
ATOM     15  O   UNL     1       6.944   7.558  16.995  0.00  0.00    +0.000 OA
ATOM     16  O   UNL     1       7.826   5.995  18.275  0.00  0.00    +0.000 OA
ENDBRANCH   6  14
BRANCH   1  17
ATOM     17  S   UNL     1       4.838   5.139  19.129  0.00  0.00    +0.000 S 
BRANCH  17  21
ATOM     18  C   UNL     1       1.713   8.491  18.741  0.00  0.00    +0.000 A 
ATOM     19  C   UNL     1       2.623   8.261  17.708  0.00  0.00    +0.000 A 
ATOM     20  C   UNL     1       3.569   7.237  17.808  0.00  0.00    +0.000 A 
ATOM     21  C   UNL     1       3.636   6.450  18.960  0.00  0.00    +0.000 A 
ATOM     22  C   UNL     1       2.729   6.687  19.999  0.00  0.00    +0.000 A 
ATOM     23  C   UNL     1       1.773   7.705  19.892  0.00  0.00    +0.000 A 
BRANCH  18  25
ATOM     24  C   UNL     1       0.251  10.086  19.696  0.00  0.00    +0.000 C 
ATOM     25  O   UNL     1       0.840   9.522  18.529  0.00  0.00    +0.000 OA
ENDBRANCH  18  25
ENDBRANCH  17  21
ENDBRANCH   1  17
TORSDOF 6
ENDMDL
MODEL 9
REMARK VINA RESULT:      -6.8      1.005      1.213
REMARK  Name = 
REMARK  7 active torsions:
REMARK  status: ('A' for Active; 'I' for Inactive)
REMARK    1  A    between atoms: C_1  and  O_2
REMARK    2  A    between atoms: O_2  and  C_3
REMARK    3  A    between atoms: C_6  and  S_7
REMARK    4  A    between atoms: S_7  and  C_8
REMARK    5  A    between atoms: C_9  and  N_10
REMARK    6  A    between atoms: C_14  and  C_15
REMARK    7  A    between atoms: C_20  and  N_21
REMARK                            x       y       z     vdW  Elec       q    Type
REMARK                         _______ _______ _______ _____ _____    ______ ____
ROOT
ATOM      1  C   UNL     1       4.310   4.791  18.071  0.00  0.00    +0.000 A 
ATOM      2  C   UNL     1       5.578   5.253  17.677  0.00  0.00    +0.000 A 
ATOM      3  C   UNL     1       6.096   5.066  16.379  0.00  0.00    +0.000 A 
ATOM      4  C   UNL     1       5.362   4.353  15.423  0.00  0.00    +0.000 A 
ATOM      5  C   UNL     1       4.109   3.848  15.791  0.00  0.00    +0.000 A 
ATOM      6  C   UNL     1       3.602   4.073  17.090  0.00  0.00    +0.000 A 
ENDROOT
BRANCH   4   7
ATOM      7  C   UNL     1       5.910   4.096  14.035  0.00  0.00    +0.000 C 
ATOM      8  F   UNL     1       6.857   4.996  13.657  0.00  0.00    +0.000 F 
ATOM      9  F   UNL     1       6.489   2.871  13.937  0.00  0.00    +0.000 F 
ATOM     10  F   UNL     1       4.940   4.139  13.084  0.00  0.00    +0.000 F 
ENDBRANCH   4   7
BRANCH   2  11
ATOM     11  N   UNL     1       6.471   5.891  18.628  0.00  0.00    +0.000 N 
ATOM     12  O   UNL     1       6.674   5.297  19.692  0.00  0.00    +0.000 OA
ATOM     13  O   UNL     1       7.017   6.939  18.261  0.00  0.00    +0.000 OA
ENDBRANCH   2  11
BRANCH   6  14
ATOM     14  N   UNL     1       2.296   3.501  17.369  0.00  0.00    +0.000 N 
ATOM     15  O   UNL     1       2.266   2.326  17.758  0.00  0.00    +0.000 OA
ATOM     16  O   UNL     1       1.326   4.261  17.274  0.00  0.00    +0.000 OA
ENDBRANCH   6  14
BRANCH   1  17
ATOM     17  S   UNL     1       3.648   5.056  19.719  0.00  0.00    +0.000 S 
BRANCH  17  21
ATOM     18  C   UNL     1       1.364   9.021  19.251  0.00  0.00    +0.000 A 
ATOM     19  C   UNL     1       2.123   8.524  18.193  0.00  0.00    +0.000 A 
ATOM     20  C   UNL     1       2.811   7.313  18.316  0.00  0.00    +0.000 A 
ATOM     21  C   UNL     1       2.773   6.601  19.518  0.00  0.00    +0.000 A 
ATOM     22  C   UNL     1       2.018   7.105  20.582  0.00  0.00    +0.000 A 
ATOM     23  C   UNL     1       1.318   8.312  20.452  0.00  0.00    +0.000 A 
BRANCH  18  25
ATOM     24  C   UNL     1      -0.441  10.148  18.219  0.00  0.00    +0.000 C 
ATOM     25  O   UNL     1       0.741  10.214  19.011  0.00  0.00    +0.000 OA
ENDBRANCH  18  25
ENDBRANCH  17  21
ENDBRANCH   1  17
TORSDOF 6
ENDMDL
