MODEL 1
REMARK VINA RESULT:      -6.8      0.000      0.000
REMARK  Name = 
REMARK  7 active torsions:
REMARK  status: ('A' for Active; 'I' for Inactive)
REMARK    1  A    between atoms: C_1  and  C_2
REMARK    2  A    between atoms: C_2  and  C_3
REMARK    3  A    between atoms: C_2  and  N_4
REMARK    4  A    between atoms: C_12  and  C_14
REMARK    5  A    between atoms: C_14  and  C_15
REMARK    6  A    between atoms: C_15  and  C_16
REMARK    7  A    between atoms: C_16  and  N_17
REMARK                            x       y       z     vdW  Elec       q    Type
REMARK                         _______ _______ _______ _____ _____    ______ ____
ROOT
ATOM      1  N   UNL     1       2.965   3.878  19.441  0.00  0.00    +0.000 N 
ATOM      2  C   UNL     1       2.191   5.107  19.598  0.00  0.00    +0.000 C 
ATOM      3  C   UNL     1       2.732   6.229  18.731  0.00  0.00    +0.000 C 
ATOM      4  C   UNL     1       4.224   6.409  18.984  0.00  0.00    +0.000 C 
ATOM      5  C   UNL     1       5.003   5.088  18.848  0.00  0.00    +0.000 C 
ATOM      6  C   UNL     1       6.497   5.313  19.205  0.00  0.00    +0.000 C 
ATOM      7  C   UNL     1       7.290   4.938  17.958  0.00  0.00    +0.000 C 
ATOM      8  N   UNL     1       6.322   5.015  16.887  0.00  0.00    +0.000 N 
ATOM      9  C   UNL     1       6.692   5.140  15.571  0.00  0.00    +0.000 C 
ATOM     10  O   UNL     1       7.867   5.285  15.230  0.00  0.00    +0.000 OA
ATOM     11  C   UNL     1       5.030   4.607  17.387  0.00  0.00    +0.000 C 
ATOM     12  C   UNL     1       4.348   3.952  19.632  0.00  0.00    +0.000 C 
ATOM     13  O   UNL     1       5.005   3.070  20.183  0.00  0.00    +0.000 OA
ENDROOT
BRANCH   1  15
ATOM     14  C   UNL     1       1.574   2.433  20.937  0.00  0.00    +0.000 C 
ATOM     15  C   UNL     1       2.296   2.579  19.602  0.00  0.00    +0.000 C 
ATOM     16  C   UNL     1       1.361   2.316  18.418  0.00  0.00    +0.000 C 
ENDBRANCH   1  15
BRANCH   9  17
ATOM     17  C   UNL     1       5.569   5.138  14.544  0.00  0.00    +0.000 C 
BRANCH  17  18
ATOM     18  C   UNL     1       5.506   3.831  13.760  0.00  0.00    +0.000 C 
BRANCH  18  19
ATOM     19  C   UNL     1       6.193   3.975  12.404  0.00  0.00    +0.000 C 
BRANCH  19  20
ATOM     20  N   UNL     1       6.326   2.709  11.723  0.00  0.00    +0.000 N 
ATOM     21  C   UNL     1       7.461   2.149  11.230  0.00  0.00    +0.000 A 
ATOM     22  N   UNL     1       7.175   0.977  10.710  0.00  0.00    +0.000 NA
ATOM     23  C   UNL     1       5.827   0.871  10.919  0.00  0.00    +0.000 A 
ATOM     24  N   UNL     1       5.260   1.914  11.531  0.00  0.00    +0.000 NA
ENDBRANCH  19  20
ENDBRANCH  18  19
ENDBRANCH  17  18
ENDBRANCH   9  17
TORSDOF 5
ENDMDL
MODEL 2
REMARK VINA RESULT:      -6.7      1.727      2.666
REMARK  Name = 
REMARK  7 active torsions:
REMARK  status: ('A' for Active; 'I' for Inactive)
REMARK    1  A    between atoms: C_1  and  C_2
REMARK    2  A    between atoms: C_2  and  C_3
REMARK    3  A    between atoms: C_2  and  N_4
REMARK    4  A    between atoms: C_12  and  C_14
REMARK    5  A    between atoms: C_14  and  C_15
REMARK    6  A    between atoms: C_15  and  C_16
REMARK    7  A    between atoms: C_16  and  N_17
REMARK                            x       y       z     vdW  Elec       q    Type
REMARK                         _______ _______ _______ _____ _____    ______ ____
ROOT
ATOM      1  N   UNL     1       2.301   3.390  19.969  0.00  0.00    +0.000 N 
ATOM      2  C   UNL     1       1.588   2.497  19.059  0.00  0.00    +0.000 C 
ATOM      3  C   UNL     1       1.981   2.735  17.613  0.00  0.00    +0.000 C 
ATOM      4  C   UNL     1       1.827   4.211  17.267  0.00  0.00    +0.000 C 
ATOM      5  C   UNL     1       2.557   5.125  18.269  0.00  0.00    +0.000 C 
ATOM      6  C   UNL     1       2.290   6.614  17.922  0.00  0.00    +0.000 C 
ATOM      7  C   UNL     1       3.655   7.234  17.642  0.00  0.00    +0.000 C 
ATOM      8  N   UNL     1       4.503   6.101  17.346  0.00  0.00    +0.000 N 
ATOM      9  C   UNL     1       5.689   6.229  16.666  0.00  0.00    +0.000 C 
ATOM     10  O   UNL     1       6.057   7.303  16.186  0.00  0.00    +0.000 OA
ATOM     11  C   UNL     1       4.084   4.974  18.146  0.00  0.00    +0.000 C 
ATOM     12  C   UNL     1       2.234   4.763  19.717  0.00  0.00    +0.000 C 
ATOM     13  O   UNL     1       2.151   5.612  20.604  0.00  0.00    +0.000 OA
ENDROOT
BRANCH   1  15
ATOM     14  C   UNL     1       1.391   2.405  22.082  0.00  0.00    +0.000 C 
ATOM     15  C   UNL     1       2.609   2.933  21.333  0.00  0.00    +0.000 C 
ATOM     16  C   UNL     1       3.747   1.909  21.303  0.00  0.00    +0.000 C 
ENDBRANCH   1  15
BRANCH   9  17
ATOM     17  C   UNL     1       6.513   4.963  16.487  0.00  0.00    +0.000 C 
BRANCH  17  18
ATOM     18  C   UNL     1       5.948   4.058  15.396  0.00  0.00    +0.000 C 
BRANCH  18  19
ATOM     19  C   UNL     1       6.682   4.274  14.074  0.00  0.00    +0.000 C 
BRANCH  19  20
ATOM     20  N   UNL     1       6.026   3.611  12.972  0.00  0.00    +0.000 N 
ATOM     21  C   UNL     1       6.537   2.649  12.161  0.00  0.00    +0.000 A 
ATOM     22  N   UNL     1       5.620   2.277  11.298  0.00  0.00    +0.000 NA
ATOM     23  C   UNL     1       4.548   3.057  11.637  0.00  0.00    +0.000 A 
ATOM     24  N   UNL     1       4.753   3.899  12.654  0.00  0.00    +0.000 NA
ENDBRANCH  19  20
ENDBRANCH  18  19
ENDBRANCH  17  18
ENDBRANCH   9  17
TORSDOF 5
ENDMDL
MODEL 3
REMARK VINA RESULT:      -6.7      1.733      2.955
REMARK  Name = 
REMARK  7 active torsions:
REMARK  status: ('A' for Active; 'I' for Inactive)
REMARK    1  A    between atoms: C_1  and  C_2
REMARK    2  A    between atoms: C_2  and  C_3
REMARK    3  A    between atoms: C_2  and  N_4
REMARK    4  A    between atoms: C_12  and  C_14
REMARK    5  A    between atoms: C_14  and  C_15
REMARK    6  A    between atoms: C_15  and  C_16
REMARK    7  A    between atoms: C_16  and  N_17
REMARK                            x       y       z     vdW  Elec       q    Type
REMARK                         _______ _______ _______ _____ _____    ______ ____
ROOT
ATOM      1  N   UNL     1       2.482   3.398  19.950  0.00  0.00    +0.000 N 
ATOM      2  C   UNL     1       2.046   2.444  18.932  0.00  0.00    +0.000 C 
ATOM      3  C   UNL     1       2.727   2.691  17.599  0.00  0.00    +0.000 C 
ATOM      4  C   UNL     1       2.552   4.148  17.187  0.00  0.00    +0.000 C 
ATOM      5  C   UNL     1       2.985   5.124  18.297  0.00  0.00    +0.000 C 
ATOM      6  C   UNL     1       2.701   6.586  17.860  0.00  0.00    +0.000 C 
ATOM      7  C   UNL     1       4.049   7.298  17.863  0.00  0.00    +0.000 C 
ATOM      8  N   UNL     1       5.015   6.226  17.789  0.00  0.00    +0.000 N 
ATOM      9  C   UNL     1       6.309   6.429  17.377  0.00  0.00    +0.000 C 
ATOM     10  O   UNL     1       6.700   7.520  16.958  0.00  0.00    +0.000 OA
ATOM     11  C   UNL     1       4.509   5.082  18.511  0.00  0.00    +0.000 C 
ATOM     12  C   UNL     1       2.380   4.759  19.651  0.00  0.00    +0.000 C 
ATOM     13  O   UNL     1       2.050   5.611  20.475  0.00  0.00    +0.000 OA
ENDROOT
BRANCH   1  15
ATOM     14  C   UNL     1       1.154   2.559  21.898  0.00  0.00    +0.000 C 
ATOM     15  C   UNL     1       2.516   2.982  21.360  0.00  0.00    +0.000 C 
ATOM     16  C   UNL     1       3.572   1.891  21.563  0.00  0.00    +0.000 C 
ENDBRANCH   1  15
BRANCH   9  17
ATOM     17  C   UNL     1       7.235   5.223  17.416  0.00  0.00    +0.000 C 
BRANCH  17  18
ATOM     18  C   UNL     1       7.153   4.392  16.138  0.00  0.00    +0.000 C 
BRANCH  18  19
ATOM     19  C   UNL     1       6.714   5.253  14.955  0.00  0.00    +0.000 C 
BRANCH  19  20
ATOM     20  N   UNL     1       6.580   4.483  13.742  0.00  0.00    +0.000 N 
ATOM     21  C   UNL     1       5.604   3.590  13.431  0.00  0.00    +0.000 A 
ATOM     22  N   UNL     1       5.815   3.120  12.222  0.00  0.00    +0.000 NA
ATOM     23  C   UNL     1       6.952   3.776  11.836  0.00  0.00    +0.000 A 
ATOM     24  N   UNL     1       7.464   4.617  12.739  0.00  0.00    +0.000 NA
ENDBRANCH  19  20
ENDBRANCH  18  19
ENDBRANCH  17  18
ENDBRANCH   9  17
TORSDOF 5
ENDMDL
MODEL 4
REMARK VINA RESULT:      -6.5      1.772      2.187
REMARK  Name = 
REMARK  7 active torsions:
REMARK  status: ('A' for Active; 'I' for Inactive)
REMARK    1  A    between atoms: C_1  and  C_2
REMARK    2  A    between atoms: C_2  and  C_3
REMARK    3  A    between atoms: C_2  and  N_4
REMARK    4  A    between atoms: C_12  and  C_14
REMARK    5  A    between atoms: C_14  and  C_15
REMARK    6  A    between atoms: C_15  and  C_16
REMARK    7  A    between atoms: C_16  and  N_17
REMARK                            x       y       z     vdW  Elec       q    Type
REMARK                         _______ _______ _______ _____ _____    ______ ____
ROOT
ATOM      1  N   UNL     1       3.796   3.875  19.195  0.00  0.00    +0.000 N 
ATOM      2  C   UNL     1       2.547   4.606  18.998  0.00  0.00    +0.000 C 
ATOM      3  C   UNL     1       2.547   5.380  17.692  0.00  0.00    +0.000 C 
ATOM      4  C   UNL     1       3.790   6.258  17.608  0.00  0.00    +0.000 C 
ATOM      5  C   UNL     1       5.084   5.463  17.859  0.00  0.00    +0.000 C 
ATOM      6  C   UNL     1       6.306   6.420  17.852  0.00  0.00    +0.000 C 
ATOM      7  C   UNL     1       7.217   5.934  16.729  0.00  0.00    +0.000 C 
ATOM      8  N   UNL     1       6.347   5.146  15.885  0.00  0.00    +0.000 N 
ATOM      9  C   UNL     1       6.657   4.857  14.579  0.00  0.00    +0.000 C 
ATOM     10  O   UNL     1       7.649   5.328  14.020  0.00  0.00    +0.000 OA
ATOM     11  C   UNL     1       5.365   4.480  16.709  0.00  0.00    +0.000 C 
ATOM     12  C   UNL     1       4.991   4.595  19.113  0.00  0.00    +0.000 C 
ATOM     13  O   UNL     1       5.960   4.387  19.842  0.00  0.00    +0.000 OA
ENDROOT
BRANCH   1  15
ATOM     14  C   UNL     1       2.733   2.581  21.055  0.00  0.00    +0.000 C 
ATOM     15  C   UNL     1       3.780   2.611  19.948  0.00  0.00    +0.000 C 
ATOM     16  C   UNL     1       3.628   1.427  18.988  0.00  0.00    +0.000 C 
ENDBRANCH   1  15
BRANCH   9  17
ATOM     17  C   UNL     1       5.683   3.958  13.831  0.00  0.00    +0.000 C 
BRANCH  17  18
ATOM     18  C   UNL     1       6.217   3.545  12.463  0.00  0.00    +0.000 C 
BRANCH  18  19
ATOM     19  C   UNL     1       5.346   2.452  11.845  0.00  0.00    +0.000 C 
BRANCH  19  20
ATOM     20  N   UNL     1       4.308   2.995  11.003  0.00  0.00    +0.000 N 
ATOM     21  C   UNL     1       3.381   2.309  10.284  0.00  0.00    +0.000 A 
ATOM     22  N   UNL     1       2.590   3.161   9.671  0.00  0.00    +0.000 NA
ATOM     23  C   UNL     1       3.089   4.374  10.061  0.00  0.00    +0.000 A 
ATOM     24  N   UNL     1       4.149   4.323  10.871  0.00  0.00    +0.000 NA
ENDBRANCH  19  20
ENDBRANCH  18  19
ENDBRANCH  17  18
ENDBRANCH   9  17
TORSDOF 5
ENDMDL
MODEL 5
REMARK VINA RESULT:      -6.4      3.351      4.677
REMARK  Name = 
REMARK  7 active torsions:
REMARK  status: ('A' for Active; 'I' for Inactive)
REMARK    1  A    between atoms: C_1  and  C_2
REMARK    2  A    between atoms: C_2  and  C_3
REMARK    3  A    between atoms: C_2  and  N_4
REMARK    4  A    between atoms: C_12  and  C_14
REMARK    5  A    between atoms: C_14  and  C_15
REMARK    6  A    between atoms: C_15  and  C_16
REMARK    7  A    between atoms: C_16  and  N_17
REMARK                            x       y       z     vdW  Elec       q    Type
REMARK                         _______ _______ _______ _____ _____    ______ ____
ROOT
ATOM      1  N   UNL     1       2.527   3.543  19.867  0.00  0.00    +0.000 N 
ATOM      2  C   UNL     1       1.394   2.867  19.239  0.00  0.00    +0.000 C 
ATOM      3  C   UNL     1       1.271   3.219  17.768  0.00  0.00    +0.000 C 
ATOM      4  C   UNL     1       1.254   4.733  17.595  0.00  0.00    +0.000 C 
ATOM      5  C   UNL     1       2.440   5.416  18.301  0.00  0.00    +0.000 C 
ATOM      6  C   UNL     1       2.322   6.958  18.170  0.00  0.00    +0.000 C 
ATOM      7  C   UNL     1       3.577   7.417  17.434  0.00  0.00    +0.000 C 
ATOM      8  N   UNL     1       4.056   6.223  16.775  0.00  0.00    +0.000 N 
ATOM      9  C   UNL     1       4.918   6.270  15.708  0.00  0.00    +0.000 C 
ATOM     10  O   UNL     1       5.264   7.333  15.190  0.00  0.00    +0.000 OA
ATOM     11  C   UNL     1       3.770   5.077  17.605  0.00  0.00    +0.000 C 
ATOM     12  C   UNL     1       2.607   4.932  19.740  0.00  0.00    +0.000 C 
ATOM     13  O   UNL     1       2.995   5.674  20.642  0.00  0.00    +0.000 OA
ENDROOT
BRANCH   1  15
ATOM     14  C   UNL     1       2.297   2.098  21.896  0.00  0.00    +0.000 C 
ATOM     15  C   UNL     1       3.225   2.891  20.985  0.00  0.00    +0.000 C 
ATOM     16  C   UNL     1       4.377   2.031  20.459  0.00  0.00    +0.000 C 
ENDBRANCH   1  15
BRANCH   9  17
ATOM     17  C   UNL     1       5.395   4.934  15.157  0.00  0.00    +0.000 C 
BRANCH  17  18
ATOM     18  C   UNL     1       6.916   4.812  15.179  0.00  0.00    +0.000 C 
BRANCH  18  19
ATOM     19  C   UNL     1       7.392   4.147  16.469  0.00  0.00    +0.000 C 
BRANCH  19  20
ATOM     20  N   UNL     1       7.570   5.099  17.539  0.00  0.00    +0.000 N 
ATOM     21  C   UNL     1       7.773   6.439  17.430  0.00  0.00    +0.000 A 
ATOM     22  N   UNL     1       7.858   6.963  18.631  0.00  0.00    +0.000 NA
ATOM     23  C   UNL     1       7.694   5.878  19.449  0.00  0.00    +0.000 A 
ATOM     24  N   UNL     1       7.523   4.711  18.824  0.00  0.00    +0.000 NA
ENDBRANCH  19  20
ENDBRANCH  18  19
ENDBRANCH  17  18
ENDBRANCH   9  17
TORSDOF 5
ENDMDL
MODEL 6
REMARK VINA RESULT:      -6.4      3.984      8.053
REMARK  Name = 
REMARK  7 active torsions:
REMARK  status: ('A' for Active; 'I' for Inactive)
REMARK    1  A    between atoms: C_1  and  C_2
REMARK    2  A    between atoms: C_2  and  C_3
REMARK    3  A    between atoms: C_2  and  N_4
REMARK    4  A    between atoms: C_12  and  C_14
REMARK    5  A    between atoms: C_14  and  C_15
REMARK    6  A    between atoms: C_15  and  C_16
REMARK    7  A    between atoms: C_16  and  N_17
REMARK                            x       y       z     vdW  Elec       q    Type
REMARK                         _______ _______ _______ _____ _____    ______ ____
ROOT
ATOM      1  N   UNL     1       6.547   6.096  17.837  0.00  0.00    +0.000 N 
ATOM      2  C   UNL     1       5.869   7.101  17.022  0.00  0.00    +0.000 C 
ATOM      3  C   UNL     1       4.360   6.993  17.133  0.00  0.00    +0.000 C 
ATOM      4  C   UNL     1       3.916   5.565  16.839  0.00  0.00    +0.000 C 
ATOM      5  C   UNL     1       4.677   4.530  17.688  0.00  0.00    +0.000 C 
ATOM      6  C   UNL     1       4.253   3.094  17.283  0.00  0.00    +0.000 C 
ATOM      7  C   UNL     1       3.669   2.455  18.538  0.00  0.00    +0.000 C 
ATOM      8  N   UNL     1       3.325   3.580  19.379  0.00  0.00    +0.000 N 
ATOM      9  C   UNL     1       2.428   3.477  20.413  0.00  0.00    +0.000 C 
ATOM     10  O   UNL     1       1.793   2.443  20.630  0.00  0.00    +0.000 OA
ATOM     11  C   UNL     1       4.288   4.636  19.173  0.00  0.00    +0.000 C 
ATOM     12  C   UNL     1       6.187   4.758  17.652  0.00  0.00    +0.000 C 
ATOM     13  O   UNL     1       6.993   3.829  17.685  0.00  0.00    +0.000 OA
ENDROOT
BRANCH   1  15
ATOM     14  C   UNL     1       8.217   7.885  18.356  0.00  0.00    +0.000 C 
ATOM     15  C   UNL     1       7.866   6.403  18.411  0.00  0.00    +0.000 C 
ATOM     16  C   UNL     1       7.965   5.847  19.835  0.00  0.00    +0.000 C 
ENDBRANCH   1  15
BRANCH   9  17
ATOM     17  C   UNL     1       2.216   4.724  21.259  0.00  0.00    +0.000 C 
BRANCH  17  18
ATOM     18  C   UNL     1       1.363   5.767  20.542  0.00  0.00    +0.000 C 
BRANCH  18  19
ATOM     19  C   UNL     1       2.178   7.022  20.238  0.00  0.00    +0.000 C 
BRANCH  19  20
ATOM     20  N   UNL     1       1.481   8.228  20.616  0.00  0.00    +0.000 N 
ATOM     21  C   UNL     1       1.215   8.672  21.872  0.00  0.00    +0.000 A 
ATOM     22  N   UNL     1       0.589   9.825  21.801  0.00  0.00    +0.000 NA
ATOM     23  C   UNL     1       0.500  10.041  20.453  0.00  0.00    +0.000 A 
ATOM     24  N   UNL     1       1.026   9.083  19.684  0.00  0.00    +0.000 NA
ENDBRANCH  19  20
ENDBRANCH  18  19
ENDBRANCH  17  18
ENDBRANCH   9  17
TORSDOF 5
ENDMDL
MODEL 7
REMARK VINA RESULT:      -6.4      1.198      1.477
REMARK  Name = 
REMARK  7 active torsions:
REMARK  status: ('A' for Active; 'I' for Inactive)
REMARK    1  A    between atoms: C_1  and  C_2
REMARK    2  A    between atoms: C_2  and  C_3
REMARK    3  A    between atoms: C_2  and  N_4
REMARK    4  A    between atoms: C_12  and  C_14
REMARK    5  A    between atoms: C_14  and  C_15
REMARK    6  A    between atoms: C_15  and  C_16
REMARK    7  A    between atoms: C_16  and  N_17
REMARK                            x       y       z     vdW  Elec       q    Type
REMARK                         _______ _______ _______ _____ _____    ______ ____
ROOT
ATOM      1  N   UNL     1       3.737   4.011  19.388  0.00  0.00    +0.000 N 
ATOM      2  C   UNL     1       2.443   4.607  19.063  0.00  0.00    +0.000 C 
ATOM      3  C   UNL     1       2.446   5.246  17.687  0.00  0.00    +0.000 C 
ATOM      4  C   UNL     1       3.615   6.217  17.566  0.00  0.00    +0.000 C 
ATOM      5  C   UNL     1       4.956   5.567  17.953  0.00  0.00    +0.000 C 
ATOM      6  C   UNL     1       6.093   6.622  17.900  0.00  0.00    +0.000 C 
ATOM      7  C   UNL     1       7.097   6.110  16.873  0.00  0.00    +0.000 C 
ATOM      8  N   UNL     1       6.341   5.170  16.077  0.00  0.00    +0.000 N 
ATOM      9  C   UNL     1       6.740   4.782  14.822  0.00  0.00    +0.000 C 
ATOM     10  O   UNL     1       7.717   5.281  14.261  0.00  0.00    +0.000 OA
ATOM     11  C   UNL     1       5.376   4.504  16.921  0.00  0.00    +0.000 C 
ATOM     12  C   UNL     1       4.871   4.821  19.283  0.00  0.00    +0.000 C 
ATOM     13  O   UNL     1       5.815   4.771  20.071  0.00  0.00    +0.000 OA
ENDROOT
BRANCH   1  15
ATOM     14  C   UNL     1       2.575   2.706  21.178  0.00  0.00    +0.000 C 
ATOM     15  C   UNL     1       3.787   2.830  20.263  0.00  0.00    +0.000 C 
ATOM     16  C   UNL     1       4.004   1.564  19.430  0.00  0.00    +0.000 C 
ENDBRANCH   1  15
BRANCH   9  17
ATOM     17  C   UNL     1       5.884   3.733  14.128  0.00  0.00    +0.000 C 
BRANCH  17  18
ATOM     18  C   UNL     1       5.037   4.329  13.008  0.00  0.00    +0.000 C 
BRANCH  18  19
ATOM     19  C   UNL     1       4.613   3.252  12.012  0.00  0.00    +0.000 C 
BRANCH  19  20
ATOM     20  N   UNL     1       5.724   2.434  11.589  0.00  0.00    +0.000 N 
ATOM     21  C   UNL     1       5.699   1.123  11.231  0.00  0.00    +0.000 A 
ATOM     22  N   UNL     1       6.908   0.747  10.879  0.00  0.00    +0.000 NA
ATOM     23  C   UNL     1       7.642   1.889  11.044  0.00  0.00    +0.000 A 
ATOM     24  N   UNL     1       6.961   2.949  11.487  0.00  0.00    +0.000 NA
ENDBRANCH  19  20
ENDBRANCH  18  19
ENDBRANCH  17  18
ENDBRANCH   9  17
TORSDOF 5
ENDMDL
MODEL 8
REMARK VINA RESULT:      -6.1      5.150      8.565
REMARK  Name = 
REMARK  7 active torsions:
REMARK  status: ('A' for Active; 'I' for Inactive)
REMARK    1  A    between atoms: C_1  and  C_2
REMARK    2  A    between atoms: C_2  and  C_3
REMARK    3  A    between atoms: C_2  and  N_4
REMARK    4  A    between atoms: C_12  and  C_14
REMARK    5  A    between atoms: C_14  and  C_15
REMARK    6  A    between atoms: C_15  and  C_16
REMARK    7  A    between atoms: C_16  and  N_17
REMARK                            x       y       z     vdW  Elec       q    Type
REMARK                         _______ _______ _______ _____ _____    ______ ____
ROOT
ATOM      1  N   UNL     1       4.054   4.839  17.710  0.00  0.00    +0.000 N 
ATOM      2  C   UNL     1       3.063   3.904  17.182  0.00  0.00    +0.000 C 
ATOM      3  C   UNL     1       1.646   4.400  17.404  0.00  0.00    +0.000 C 
ATOM      4  C   UNL     1       1.439   4.745  18.874  0.00  0.00    +0.000 C 
ATOM      5  C   UNL     1       2.523   5.701  19.407  0.00  0.00    +0.000 C 
ATOM      6  C   UNL     1       2.317   5.945  20.926  0.00  0.00    +0.000 C 
ATOM      7  C   UNL     1       2.098   7.445  21.087  0.00  0.00    +0.000 C 
ATOM      8  N   UNL     1       1.700   7.887  19.770  0.00  0.00    +0.000 N 
ATOM      9  C   UNL     1       1.036   9.071  19.563  0.00  0.00    +0.000 C 
ATOM     10  O   UNL     1       0.660   9.785  20.494  0.00  0.00    +0.000 OA
ATOM     11  C   UNL     1       2.390   7.099  18.777  0.00  0.00    +0.000 C 
ATOM     12  C   UNL     1       3.931   5.231  19.046  0.00  0.00    +0.000 C 
ATOM     13  O   UNL     1       4.893   5.400  19.794  0.00  0.00    +0.000 OA
ENDROOT
BRANCH   1  15
ATOM     14  C   UNL     1       5.629   3.824  16.052  0.00  0.00    +0.000 C 
ATOM     15  C   UNL     1       5.370   4.937  17.060  0.00  0.00    +0.000 C 
ATOM     16  C   UNL     1       5.548   6.323  16.435  0.00  0.00    +0.000 C 
ENDBRANCH   1  15
BRANCH   9  17
ATOM     17  C   UNL     1       0.742   9.444  18.117  0.00  0.00    +0.000 C 
BRANCH  17  18
ATOM     18  C   UNL     1      -0.304  10.550  18.009  0.00  0.00    +0.000 C 
BRANCH  18  19
ATOM     19  C   UNL     1      -1.706  10.002  18.265  0.00  0.00    +0.000 C 
BRANCH  19  20
ATOM     20  N   UNL     1      -2.664  10.484  17.298  0.00  0.00    +0.000 N 
ATOM     21  C   UNL     1      -2.525  10.530  15.948  0.00  0.00    +0.000 A 
ATOM     22  N   UNL     1      -3.628  11.005  15.415  0.00  0.00    +0.000 NA
ATOM     23  C   UNL     1      -4.420  11.234  16.507  0.00  0.00    +0.000 A 
ATOM     24  N   UNL     1      -3.867  10.937  17.686  0.00  0.00    +0.000 NA
ENDBRANCH  19  20
ENDBRANCH  18  19
ENDBRANCH  17  18
ENDBRANCH   9  17
TORSDOF 5
ENDMDL
MODEL 9
REMARK VINA RESULT:      -6.0      4.341      8.730
REMARK  Name = 
REMARK  7 active torsions:
REMARK  status: ('A' for Active; 'I' for Inactive)
REMARK    1  A    between atoms: C_1  and  C_2
REMARK    2  A    between atoms: C_2  and  C_3
REMARK    3  A    between atoms: C_2  and  N_4
REMARK    4  A    between atoms: C_12  and  C_14
REMARK    5  A    between atoms: C_14  and  C_15
REMARK    6  A    between atoms: C_15  and  C_16
REMARK    7  A    between atoms: C_16  and  N_17
REMARK                            x       y       z     vdW  Elec       q    Type
REMARK                         _______ _______ _______ _____ _____    ______ ____
ROOT
ATOM      1  N   UNL     1       5.572   4.425  17.626  0.00  0.00    +0.000 N 
ATOM      2  C   UNL     1       4.867   3.696  16.574  0.00  0.00    +0.000 C 
ATOM      3  C   UNL     1       3.405   4.096  16.494  0.00  0.00    +0.000 C 
ATOM      4  C   UNL     1       2.755   3.972  17.867  0.00  0.00    +0.000 C 
ATOM      5  C   UNL     1       3.546   4.719  18.957  0.00  0.00    +0.000 C 
ATOM      6  C   UNL     1       2.891   4.484  20.345  0.00  0.00    +0.000 C 
ATOM      7  C   UNL     1       2.495   5.861  20.864  0.00  0.00    +0.000 C 
ATOM      8  N   UNL     1       2.450   6.687  19.679  0.00  0.00    +0.000 N 
ATOM      9  C   UNL     1       1.765   7.876  19.637  0.00  0.00    +0.000 C 
ATOM     10  O   UNL     1       1.071   8.267  20.578  0.00  0.00    +0.000 OA
ATOM     11  C   UNL     1       3.467   6.243  18.755  0.00  0.00    +0.000 C 
ATOM     12  C   UNL     1       5.036   4.387  18.916  0.00  0.00    +0.000 C 
ATOM     13  O   UNL     1       5.723   4.319  19.934  0.00  0.00    +0.000 OA
ENDROOT
BRANCH   1  15
ATOM     14  C   UNL     1       7.496   4.542  16.030  0.00  0.00    +0.000 C 
ATOM     15  C   UNL     1       7.004   4.721  17.461  0.00  0.00    +0.000 C 
ATOM     16  C   UNL     1       7.319   6.119  18.001  0.00  0.00    +0.000 C 
ENDBRANCH   1  15
BRANCH   9  17
ATOM     17  C   UNL     1       1.862   8.674  18.346  0.00  0.00    +0.000 C 
BRANCH  17  18
ATOM     18  C   UNL     1       0.887   9.848  18.320  0.00  0.00    +0.000 C 
BRANCH  18  19
ATOM     19  C   UNL     1       1.596  11.154  18.672  0.00  0.00    +0.000 C 
BRANCH  19  20
ATOM     20  N   UNL     1       1.056  11.761  19.866  0.00  0.00    +0.000 N 
ATOM     21  C   UNL     1       1.567  12.808  20.565  0.00  0.00    +0.000 A 
ATOM     22  N   UNL     1       0.770  13.085  21.572  0.00  0.00    +0.000 NA
ATOM     23  C   UNL     1      -0.229  12.161  21.434  0.00  0.00    +0.000 A 
ATOM     24  N   UNL     1      -0.092  11.320  20.405  0.00  0.00    +0.000 NA
ENDBRANCH  19  20
ENDBRANCH  18  19
ENDBRANCH  17  18
ENDBRANCH   9  17
TORSDOF 5
ENDMDL
