MODEL 1
REMARK VINA RESULT:      -8.3      0.000      0.000
REMARK  Name = 
REMARK  7 active torsions:
REMARK  status: ('A' for Active; 'I' for Inactive)
REMARK    1  A    between atoms: C_1  and  N_2
REMARK    2  A    between atoms: C_5  and  C_6
REMARK    3  A    between atoms: C_5  and  C_20
REMARK    4  A    between atoms: C_6  and  O_7
REMARK    5  A    between atoms: O_7  and  C_8
REMARK    6  A    between atoms: C_8  and  C_9
REMARK    7  A    between atoms: C_14  and  C_15
REMARK                            x       y       z     vdW  Elec       q    Type
REMARK                         _______ _______ _______ _____ _____    ______ ____
ROOT
ATOM      1  C   UNL     1       2.798   5.821  17.812  0.00  0.00    +0.000 C 
ENDROOT
BRANCH   1   6
ATOM      2  C   UNL     1       7.037   5.305  15.735  0.00  0.00    +0.000 C 
ATOM      3  N   UNL     1       6.176   4.710  16.762  0.00  0.00    +0.000 NA
ATOM      4  C   UNL     1       5.942   5.674  17.838  0.00  0.00    +0.000 C 
ATOM      5  C   UNL     1       5.006   5.124  18.917  0.00  0.00    +0.000 C 
ATOM      6  C   UNL     1       3.638   4.634  18.364  0.00  0.00    +0.000 C 
ATOM      7  C   UNL     1       3.964   3.657  17.197  0.00  0.00    +0.000 C 
ATOM      8  C   UNL     1       4.933   4.230  16.160  0.00  0.00    +0.000 C 
BRANCH   6   9
ATOM      9  C   UNL     1       2.814   3.918  19.470  0.00  0.00    +0.000 A 
ATOM     10  C   UNL     1       1.405   3.944  19.466  0.00  0.00    +0.000 A 
ATOM     11  C   UNL     1       0.659   3.348  20.488  0.00  0.00    +0.000 A 
ATOM     12  C   UNL     1       1.300   2.687  21.527  0.00  0.00    +0.000 A 
ATOM     13  C   UNL     1       2.688   2.604  21.532  0.00  0.00    +0.000 A 
ATOM     14  C   UNL     1       3.434   3.202  20.511  0.00  0.00    +0.000 A 
ENDBRANCH   6   9
ENDBRANCH   1   6
BRANCH   1  15
ATOM     15  O   UNL     1       2.819   6.928  18.721  0.00  0.00    +0.000 OA
BRANCH  15  16
ATOM     16  C   UNL     1       2.664   8.177  18.046  0.00  0.00    +0.000 C 
BRANCH  16  17
ATOM     17  C   UNL     1       1.529   8.931  18.695  0.00  0.00    +0.000 A 
ATOM     18  C   UNL     1       0.648   9.662  17.908  0.00  0.00    +0.000 A 
ATOM     19  C   UNL     1      -0.407  10.305  18.533  0.00  0.00    +0.000 A 
ATOM     20 CL   UNL     1      -1.527  11.214  17.594  0.00  0.00    +0.000 Cl
ATOM     21  C   UNL     1      -0.576  10.212  19.908  0.00  0.00    +0.000 A 
ATOM     22  C   UNL     1       0.340   9.467  20.643  0.00  0.00    +0.000 A 
ATOM     23  N   UNL     1       1.393   8.840  20.044  0.00  0.00    +0.000 NA
BRANCH  22  24
ATOM     24  C   UNL     1       0.163   9.330  22.149  0.00  0.00    +0.000 C 
ATOM     25  F   UNL     1       1.295   8.920  22.794  0.00  0.00    +0.000 F 
ATOM     26  F   UNL     1      -0.191  10.501  22.753  0.00  0.00    +0.000 F 
ATOM     27  F   UNL     1      -0.797   8.424  22.494  0.00  0.00    +0.000 F 
ENDBRANCH  22  24
ENDBRANCH  16  17
ENDBRANCH  15  16
ENDBRANCH   1  15
TORSDOF 6
ENDMDL
MODEL 2
REMARK VINA RESULT:      -8.1      2.635      4.616
REMARK  Name = 
REMARK  7 active torsions:
REMARK  status: ('A' for Active; 'I' for Inactive)
REMARK    1  A    between atoms: C_1  and  N_2
REMARK    2  A    between atoms: C_5  and  C_6
REMARK    3  A    between atoms: C_5  and  C_20
REMARK    4  A    between atoms: C_6  and  O_7
REMARK    5  A    between atoms: O_7  and  C_8
REMARK    6  A    between atoms: C_8  and  C_9
REMARK    7  A    between atoms: C_14  and  C_15
REMARK                            x       y       z     vdW  Elec       q    Type
REMARK                         _______ _______ _______ _____ _____    ______ ____
ROOT
ATOM      1  C   UNL     1       2.884   6.327  17.729  0.00  0.00    +0.000 C 
ENDROOT
BRANCH   1   6
ATOM      2  C   UNL     1       0.676   2.290  18.905  0.00  0.00    +0.000 C 
ATOM      3  N   UNL     1       2.005   2.907  18.862  0.00  0.00    +0.000 NA
ATOM      4  C   UNL     1       2.361   3.233  17.480  0.00  0.00    +0.000 C 
ATOM      5  C   UNL     1       3.721   3.927  17.379  0.00  0.00    +0.000 C 
ATOM      6  C   UNL     1       3.833   5.209  18.250  0.00  0.00    +0.000 C 
ATOM      7  C   UNL     1       3.393   4.800  19.687  0.00  0.00    +0.000 C 
ATOM      8  C   UNL     1       2.047   4.075  19.741  0.00  0.00    +0.000 C 
BRANCH   6   9
ATOM      9  C   UNL     1       5.286   5.758  18.252  0.00  0.00    +0.000 A 
ATOM     10  C   UNL     1       6.238   5.308  19.187  0.00  0.00    +0.000 A 
ATOM     11  C   UNL     1       7.533   5.837  19.228  0.00  0.00    +0.000 A 
ATOM     12  C   UNL     1       7.917   6.813  18.318  0.00  0.00    +0.000 A 
ATOM     13  C   UNL     1       7.014   7.242  17.352  0.00  0.00    +0.000 A 
ATOM     14  C   UNL     1       5.719   6.713  17.313  0.00  0.00    +0.000 A 
ENDBRANCH   6   9
ENDBRANCH   1   6
BRANCH   1  15
ATOM     15  O   UNL     1       2.674   7.328  18.732  0.00  0.00    +0.000 OA
BRANCH  15  16
ATOM     16  C   UNL     1       2.413   8.611  18.162  0.00  0.00    +0.000 C 
BRANCH  16  17
ATOM     17  C   UNL     1       1.281   9.251  18.927  0.00  0.00    +0.000 A 
ATOM     18  C   UNL     1       1.090   8.934  20.267  0.00  0.00    +0.000 A 
ATOM     19  C   UNL     1       0.068   9.574  20.949  0.00  0.00    +0.000 A 
ATOM     20 CL   UNL     1      -0.198   9.219  22.612  0.00  0.00    +0.000 Cl
ATOM     21  C   UNL     1      -0.735  10.508  20.307  0.00  0.00    +0.000 A 
ATOM     22  C   UNL     1      -0.495  10.780  18.964  0.00  0.00    +0.000 A 
ATOM     23  N   UNL     1       0.498  10.148  18.274  0.00  0.00    +0.000 NA
BRANCH  22  24
ATOM     24  C   UNL     1      -1.346  11.818  18.244  0.00  0.00    +0.000 C 
ATOM     25  F   UNL     1      -0.648  12.933  17.878  0.00  0.00    +0.000 F 
ATOM     26  F   UNL     1      -1.902  11.345  17.091  0.00  0.00    +0.000 F 
ATOM     27  F   UNL     1      -2.384  12.275  19.002  0.00  0.00    +0.000 F 
ENDBRANCH  22  24
ENDBRANCH  16  17
ENDBRANCH  15  16
ENDBRANCH   1  15
TORSDOF 6
ENDMDL
MODEL 3
REMARK VINA RESULT:      -8.1      0.696      1.025
REMARK  Name = 
REMARK  7 active torsions:
REMARK  status: ('A' for Active; 'I' for Inactive)
REMARK    1  A    between atoms: C_1  and  N_2
REMARK    2  A    between atoms: C_5  and  C_6
REMARK    3  A    between atoms: C_5  and  C_20
REMARK    4  A    between atoms: C_6  and  O_7
REMARK    5  A    between atoms: O_7  and  C_8
REMARK    6  A    between atoms: C_8  and  C_9
REMARK    7  A    between atoms: C_14  and  C_15
REMARK                            x       y       z     vdW  Elec       q    Type
REMARK                         _______ _______ _______ _____ _____    ______ ____
ROOT
ATOM      1  C   UNL     1       3.978   6.354  18.432  0.00  0.00    +0.000 C 
ENDROOT
BRANCH   1   6
ATOM      2  C   UNL     1       7.302   4.760  15.438  0.00  0.00    +0.000 C 
ATOM      3  N   UNL     1       6.237   4.295  16.332  0.00  0.00    +0.000 NA
ATOM      4  C   UNL     1       6.542   4.675  17.713  0.00  0.00    +0.000 C 
ATOM      5  C   UNL     1       5.438   4.259  18.687  0.00  0.00    +0.000 C 
ATOM      6  C   UNL     1       4.033   4.805  18.306  0.00  0.00    +0.000 C 
ATOM      7  C   UNL     1       3.800   4.408  16.818  0.00  0.00    +0.000 C 
ATOM      8  C   UNL     1       4.943   4.808  15.883  0.00  0.00    +0.000 C 
BRANCH   6   9
ATOM      9  C   UNL     1       2.932   4.197  19.218  0.00  0.00    +0.000 A 
ATOM     10  C   UNL     1       2.982   4.335  20.619  0.00  0.00    +0.000 A 
ATOM     11  C   UNL     1       2.024   3.744  21.449  0.00  0.00    +0.000 A 
ATOM     12  C   UNL     1       0.973   3.022  20.898  0.00  0.00    +0.000 A 
ATOM     13  C   UNL     1       0.870   2.910  19.517  0.00  0.00    +0.000 A 
ATOM     14  C   UNL     1       1.831   3.499  18.688  0.00  0.00    +0.000 A 
ENDBRANCH   6   9
ENDBRANCH   1   6
BRANCH   1  15
ATOM     15  O   UNL     1       2.630   6.829  18.330  0.00  0.00    +0.000 OA
BRANCH  15  16
ATOM     16  C   UNL     1       2.569   8.164  17.828  0.00  0.00    +0.000 C 
BRANCH  16  17
ATOM     17  C   UNL     1       1.462   8.893  18.549  0.00  0.00    +0.000 A 
ATOM     18  C   UNL     1       0.527   9.620  17.821  0.00  0.00    +0.000 A 
ATOM     19  C   UNL     1      -0.499  10.240  18.513  0.00  0.00    +0.000 A 
ATOM     20 CL   UNL     1      -1.684  11.142  17.650  0.00  0.00    +0.000 Cl
ATOM     21  C   UNL     1      -0.590  10.129  19.894  0.00  0.00    +0.000 A 
ATOM     22  C   UNL     1       0.378   9.388  20.567  0.00  0.00    +0.000 A 
ATOM     23  N   UNL     1       1.404   8.784  19.902  0.00  0.00    +0.000 NA
BRANCH  22  24
ATOM     24  C   UNL     1       0.288   9.232  22.079  0.00  0.00    +0.000 C 
ATOM     25  F   UNL     1       1.390   8.642  22.630  0.00  0.00    +0.000 F 
ATOM     26  F   UNL     1       0.152  10.422  22.732  0.00  0.00    +0.000 F 
ATOM     27  F   UNL     1      -0.768   8.463  22.475  0.00  0.00    +0.000 F 
ENDBRANCH  22  24
ENDBRANCH  16  17
ENDBRANCH  15  16
ENDBRANCH   1  15
TORSDOF 6
ENDMDL
MODEL 4
REMARK VINA RESULT:      -8.1      1.269      3.950
REMARK  Name = 
REMARK  7 active torsions:
REMARK  status: ('A' for Active; 'I' for Inactive)
REMARK    1  A    between atoms: C_1  and  N_2
REMARK    2  A    between atoms: C_5  and  C_6
REMARK    3  A    between atoms: C_5  and  C_20
REMARK    4  A    between atoms: C_6  and  O_7
REMARK    5  A    between atoms: O_7  and  C_8
REMARK    6  A    between atoms: C_8  and  C_9
REMARK    7  A    between atoms: C_14  and  C_15
REMARK                            x       y       z     vdW  Elec       q    Type
REMARK                         _______ _______ _______ _____ _____    ______ ____
ROOT
ATOM      1  C   UNL     1       2.494   5.908  17.921  0.00  0.00    +0.000 C 
ENDROOT
BRANCH   1   6
ATOM      2  C   UNL     1       1.173   2.852  21.308  0.00  0.00    +0.000 C 
ATOM      3  N   UNL     1       2.258   3.124  20.359  0.00  0.00    +0.000 NA
ATOM      4  C   UNL     1       1.755   3.040  18.987  0.00  0.00    +0.000 C 
ATOM      5  C   UNL     1       2.834   3.365  17.952  0.00  0.00    +0.000 C 
ATOM      6  C   UNL     1       3.505   4.751  18.165  0.00  0.00    +0.000 C 
ATOM      7  C   UNL     1       3.967   4.787  19.652  0.00  0.00    +0.000 C 
ATOM      8  C   UNL     1       2.870   4.419  20.652  0.00  0.00    +0.000 C 
BRANCH   6   9
ATOM      9  C   UNL     1       4.712   4.940  17.206  0.00  0.00    +0.000 A 
ATOM     10  C   UNL     1       4.781   4.263  15.973  0.00  0.00    +0.000 A 
ATOM     11  C   UNL     1       5.891   4.387  15.129  0.00  0.00    +0.000 A 
ATOM     12  C   UNL     1       6.949   5.214  15.485  0.00  0.00    +0.000 A 
ATOM     13  C   UNL     1       6.887   5.932  16.673  0.00  0.00    +0.000 A 
ATOM     14  C   UNL     1       5.778   5.805  17.517  0.00  0.00    +0.000 A 
ENDBRANCH   6   9
ENDBRANCH   1   6
BRANCH   1  15
ATOM     15  O   UNL     1       2.865   7.076  18.662  0.00  0.00    +0.000 OA
BRANCH  15  16
ATOM     16  C   UNL     1       2.590   8.278  17.942  0.00  0.00    +0.000 C 
BRANCH  16  17
ATOM     17  C   UNL     1       1.458   8.998  18.631  0.00  0.00    +0.000 A 
ATOM     18  C   UNL     1       0.536   9.715  17.878  0.00  0.00    +0.000 A 
ATOM     19  C   UNL     1      -0.514  10.326  18.540  0.00  0.00    +0.000 A 
ATOM     20 CL   UNL     1      -1.684  11.216  17.645  0.00  0.00    +0.000 Cl
ATOM     21  C   UNL     1      -0.641  10.217  19.919  0.00  0.00    +0.000 A 
ATOM     22  C   UNL     1       0.315   9.486  20.619  0.00  0.00    +0.000 A 
ATOM     23  N   UNL     1       1.364   8.891  19.982  0.00  0.00    +0.000 NA
BRANCH  22  24
ATOM     24  C   UNL     1       0.186   9.332  22.128  0.00  0.00    +0.000 C 
ATOM     25  F   UNL     1      -0.035  10.513  22.777  0.00  0.00    +0.000 F 
ATOM     26  F   UNL     1      -0.846   8.520  22.496  0.00  0.00    +0.000 F 
ATOM     27  F   UNL     1       1.304   8.806  22.709  0.00  0.00    +0.000 F 
ENDBRANCH  22  24
ENDBRANCH  16  17
ENDBRANCH  15  16
ENDBRANCH   1  15
TORSDOF 6
ENDMDL
MODEL 5
REMARK VINA RESULT:      -8.0      1.659      3.790
REMARK  Name = 
REMARK  7 active torsions:
REMARK  status: ('A' for Active; 'I' for Inactive)
REMARK    1  A    between atoms: C_1  and  N_2
REMARK    2  A    between atoms: C_5  and  C_6
REMARK    3  A    between atoms: C_5  and  C_20
REMARK    4  A    between atoms: C_6  and  O_7
REMARK    5  A    between atoms: O_7  and  C_8
REMARK    6  A    between atoms: C_8  and  C_9
REMARK    7  A    between atoms: C_14  and  C_15
REMARK                            x       y       z     vdW  Elec       q    Type
REMARK                         _______ _______ _______ _____ _____    ______ ____
ROOT
ATOM      1  C   UNL     1       2.830   6.220  17.683  0.00  0.00    +0.000 C 
ENDROOT
BRANCH   1   6
ATOM      2  C   UNL     1       0.684   2.180  18.959  0.00  0.00    +0.000 C 
ATOM      3  N   UNL     1       2.000   2.827  18.929  0.00  0.00    +0.000 NA
ATOM      4  C   UNL     1       2.387   3.106  17.545  0.00  0.00    +0.000 C 
ATOM      5  C   UNL     1       3.733   3.829  17.453  0.00  0.00    +0.000 C 
ATOM      6  C   UNL     1       3.789   5.148  18.275  0.00  0.00    +0.000 C 
ATOM      7  C   UNL     1       3.318   4.785  19.714  0.00  0.00    +0.000 C 
ATOM      8  C   UNL     1       1.989   4.030  19.760  0.00  0.00    +0.000 C 
BRANCH   6   9
ATOM      9  C   UNL     1       5.229   5.732  18.295  0.00  0.00    +0.000 A 
ATOM     10  C   UNL     1       5.645   6.687  17.347  0.00  0.00    +0.000 A 
ATOM     11  C   UNL     1       6.956   7.177  17.327  0.00  0.00    +0.000 A 
ATOM     12  C   UNL     1       7.877   6.743  18.270  0.00  0.00    +0.000 A 
ATOM     13  C   UNL     1       7.482   5.837  19.248  0.00  0.00    +0.000 A 
ATOM     14  C   UNL     1       6.171   5.347  19.266  0.00  0.00    +0.000 A 
ENDBRANCH   6   9
ENDBRANCH   1   6
BRANCH   1  15
ATOM     15  O   UNL     1       2.701   7.336  18.571  0.00  0.00    +0.000 OA
BRANCH  15  16
ATOM     16  C   UNL     1       2.478   8.558  17.866  0.00  0.00    +0.000 C 
BRANCH  16  17
ATOM     17  C   UNL     1       1.693   9.487  18.760  0.00  0.00    +0.000 A 
ATOM     18  C   UNL     1       1.473  10.801  18.366  0.00  0.00    +0.000 A 
ATOM     19  C   UNL     1       0.711  11.611  19.190  0.00  0.00    +0.000 A 
ATOM     20 CL   UNL     1       0.407  13.243  18.736  0.00  0.00    +0.000 Cl
ATOM     21  C   UNL     1       0.180  11.116  20.374  0.00  0.00    +0.000 A 
ATOM     22  C   UNL     1       0.436   9.791  20.715  0.00  0.00    +0.000 A 
ATOM     23  N   UNL     1       1.197   8.985  19.921  0.00  0.00    +0.000 NA
BRANCH  22  24
ATOM     24  C   UNL     1      -0.154   9.218  21.996  0.00  0.00    +0.000 C 
ATOM     25  F   UNL     1       0.782   8.962  22.958  0.00  0.00    +0.000 F 
ATOM     26  F   UNL     1      -1.059  10.050  22.587  0.00  0.00    +0.000 F 
ATOM     27  F   UNL     1      -0.803   8.033  21.801  0.00  0.00    +0.000 F 
ENDBRANCH  22  24
ENDBRANCH  16  17
ENDBRANCH  15  16
ENDBRANCH   1  15
TORSDOF 6
ENDMDL
MODEL 6
REMARK VINA RESULT:      -8.0      2.175      2.603
REMARK  Name = 
REMARK  7 active torsions:
REMARK  status: ('A' for Active; 'I' for Inactive)
REMARK    1  A    between atoms: C_1  and  N_2
REMARK    2  A    between atoms: C_5  and  C_6
REMARK    3  A    between atoms: C_5  and  C_20
REMARK    4  A    between atoms: C_6  and  O_7
REMARK    5  A    between atoms: O_7  and  C_8
REMARK    6  A    between atoms: C_8  and  C_9
REMARK    7  A    between atoms: C_14  and  C_15
REMARK                            x       y       z     vdW  Elec       q    Type
REMARK                         _______ _______ _______ _____ _____    ______ ____
ROOT
ATOM      1  C   UNL     1       2.919   5.860  17.738  0.00  0.00    +0.000 C 
ENDROOT
BRANCH   1   6
ATOM      2  C   UNL     1       7.154   5.179  15.701  0.00  0.00    +0.000 C 
ATOM      3  N   UNL     1       6.260   4.616  16.718  0.00  0.00    +0.000 NA
ATOM      4  C   UNL     1       6.054   5.587  17.794  0.00  0.00    +0.000 C 
ATOM      5  C   UNL     1       5.087   5.073  18.863  0.00  0.00    +0.000 C 
ATOM      6  C   UNL     1       3.705   4.640  18.296  0.00  0.00    +0.000 C 
ATOM      7  C   UNL     1       4.004   3.652  17.129  0.00  0.00    +0.000 C 
ATOM      8  C   UNL     1       5.004   4.188  16.103  0.00  0.00    +0.000 C 
BRANCH   6   9
ATOM      9  C   UNL     1       2.842   3.956  19.392  0.00  0.00    +0.000 A 
ATOM     10  C   UNL     1       1.435   3.978  19.336  0.00  0.00    +0.000 A 
ATOM     11  C   UNL     1       0.652   3.411  20.347  0.00  0.00    +0.000 A 
ATOM     12  C   UNL     1       1.256   2.783  21.428  0.00  0.00    +0.000 A 
ATOM     13  C   UNL     1       2.643   2.703  21.486  0.00  0.00    +0.000 A 
ATOM     14  C   UNL     1       3.425   3.272  20.475  0.00  0.00    +0.000 A 
ENDBRANCH   6   9
ENDBRANCH   1   6
BRANCH   1  15
ATOM     15  O   UNL     1       2.948   6.953  18.663  0.00  0.00    +0.000 OA
BRANCH  15  16
ATOM     16  C   UNL     1       2.611   8.193  18.040  0.00  0.00    +0.000 C 
BRANCH  16  17
ATOM     17  C   UNL     1       1.519   8.850  18.848  0.00  0.00    +0.000 A 
ATOM     18  C   UNL     1       1.500   8.702  20.229  0.00  0.00    +0.000 A 
ATOM     19  C   UNL     1       0.510   9.356  20.942  0.00  0.00    +0.000 A 
ATOM     20 CL   UNL     1       0.454   9.207  22.656  0.00  0.00    +0.000 Cl
ATOM     21  C   UNL     1      -0.432  10.141  20.289  0.00  0.00    +0.000 A 
ATOM     22  C   UNL     1      -0.361  10.249  18.903  0.00  0.00    +0.000 A 
ATOM     23  N   UNL     1       0.600   9.599  18.185  0.00  0.00    +0.000 NA
BRANCH  22  24
ATOM     24  C   UNL     1      -1.367  11.122  18.166  0.00  0.00    +0.000 C 
ATOM     25  F   UNL     1      -1.756  10.604  16.963  0.00  0.00    +0.000 F 
ATOM     26  F   UNL     1      -2.522  11.315  18.866  0.00  0.00    +0.000 F 
ATOM     27  F   UNL     1      -0.886  12.368  17.882  0.00  0.00    +0.000 F 
ENDBRANCH  22  24
ENDBRANCH  16  17
ENDBRANCH  15  16
ENDBRANCH   1  15
TORSDOF 6
ENDMDL
MODEL 7
REMARK VINA RESULT:      -8.0      1.087      1.532
REMARK  Name = 
REMARK  7 active torsions:
REMARK  status: ('A' for Active; 'I' for Inactive)
REMARK    1  A    between atoms: C_1  and  N_2
REMARK    2  A    between atoms: C_5  and  C_6
REMARK    3  A    between atoms: C_5  and  C_20
REMARK    4  A    between atoms: C_6  and  O_7
REMARK    5  A    between atoms: O_7  and  C_8
REMARK    6  A    between atoms: C_8  and  C_9
REMARK    7  A    between atoms: C_14  and  C_15
REMARK                            x       y       z     vdW  Elec       q    Type
REMARK                         _______ _______ _______ _____ _____    ______ ____
ROOT
ATOM      1  C   UNL     1       3.926   6.287  18.608  0.00  0.00    +0.000 C 
ENDROOT
BRANCH   1   6
ATOM      2  C   UNL     1       7.227   4.795  15.537  0.00  0.00    +0.000 C 
ATOM      3  N   UNL     1       6.180   4.299  16.436  0.00  0.00    +0.000 NA
ATOM      4  C   UNL     1       6.499   4.654  17.820  0.00  0.00    +0.000 C 
ATOM      5  C   UNL     1       5.413   4.204  18.800  0.00  0.00    +0.000 C 
ATOM      6  C   UNL     1       3.996   4.741  18.449  0.00  0.00    +0.000 C 
ATOM      7  C   UNL     1       3.748   4.373  16.957  0.00  0.00    +0.000 C 
ATOM      8  C   UNL     1       4.874   4.805  16.015  0.00  0.00    +0.000 C 
BRANCH   6   9
ATOM      9  C   UNL     1       2.915   4.102  19.363  0.00  0.00    +0.000 A 
ATOM     10  C   UNL     1       3.025   4.142  20.767  0.00  0.00    +0.000 A 
ATOM     11  C   UNL     1       2.083   3.521  21.594  0.00  0.00    +0.000 A 
ATOM     12  C   UNL     1       0.991   2.866  21.040  0.00  0.00    +0.000 A 
ATOM     13  C   UNL     1       0.830   2.852  19.660  0.00  0.00    +0.000 A 
ATOM     14  C   UNL     1       1.774   3.471  18.833  0.00  0.00    +0.000 A 
ENDBRANCH   6   9
ENDBRANCH   1   6
BRANCH   1  15
ATOM     15  O   UNL     1       2.577   6.753  18.482  0.00  0.00    +0.000 OA
BRANCH  15  16
ATOM     16  C   UNL     1       2.495   7.954  17.714  0.00  0.00    +0.000 C 
BRANCH  16  17
ATOM     17  C   UNL     1       1.862   9.024  18.570  0.00  0.00    +0.000 A 
ATOM     18  C   UNL     1       1.846  10.340  18.126  0.00  0.00    +0.000 A 
ATOM     19  C   UNL     1       1.218  11.288  18.917  0.00  0.00    +0.000 A 
ATOM     20 CL   UNL     1       1.166  12.929  18.401  0.00  0.00    +0.000 Cl
ATOM     21  C   UNL     1       0.620  10.924  20.116  0.00  0.00    +0.000 A 
ATOM     22  C   UNL     1       0.671   9.589  20.508  0.00  0.00    +0.000 A 
ATOM     23  N   UNL     1       1.299   8.647  19.747  0.00  0.00    +0.000 NA
BRANCH  22  24
ATOM     24  C   UNL     1       0.003   9.161  21.807  0.00  0.00    +0.000 C 
ATOM     25  F   UNL     1      -0.852  10.099  22.312  0.00  0.00    +0.000 F 
ATOM     26  F   UNL     1      -0.743   8.027  21.675  0.00  0.00    +0.000 F 
ATOM     27  F   UNL     1       0.895   8.910  22.809  0.00  0.00    +0.000 F 
ENDBRANCH  22  24
ENDBRANCH  16  17
ENDBRANCH  15  16
ENDBRANCH   1  15
TORSDOF 6
ENDMDL
MODEL 8
REMARK VINA RESULT:      -8.0      1.479      3.787
REMARK  Name = 
REMARK  7 active torsions:
REMARK  status: ('A' for Active; 'I' for Inactive)
REMARK    1  A    between atoms: C_1  and  N_2
REMARK    2  A    between atoms: C_5  and  C_6
REMARK    3  A    between atoms: C_5  and  C_20
REMARK    4  A    between atoms: C_6  and  O_7
REMARK    5  A    between atoms: O_7  and  C_8
REMARK    6  A    between atoms: C_8  and  C_9
REMARK    7  A    between atoms: C_14  and  C_15
REMARK                            x       y       z     vdW  Elec       q    Type
REMARK                         _______ _______ _______ _____ _____    ______ ____
ROOT
ATOM      1  C   UNL     1       2.995   6.279  19.487  0.00  0.00    +0.000 C 
ENDROOT
BRANCH   1   6
ATOM      2  C   UNL     1       0.660   2.202  18.796  0.00  0.00    +0.000 C 
ATOM      3  N   UNL     1       1.971   2.828  18.595  0.00  0.00    +0.000 NA
ATOM      4  C   UNL     1       1.846   3.968  17.685  0.00  0.00    +0.000 C 
ATOM      5  C   UNL     1       3.177   4.694  17.477  0.00  0.00    +0.000 C 
ATOM      6  C   UNL     1       3.841   5.168  18.801  0.00  0.00    +0.000 C 
ATOM      7  C   UNL     1       3.894   3.922  19.733  0.00  0.00    +0.000 C 
ATOM      8  C   UNL     1       2.552   3.202  19.884  0.00  0.00    +0.000 C 
BRANCH   6   9
ATOM      9  C   UNL     1       5.268   5.725  18.541  0.00  0.00    +0.000 A 
ATOM     10  C   UNL     1       5.525   6.616  17.481  0.00  0.00    +0.000 A 
ATOM     11  C   UNL     1       6.817   7.078  17.209  0.00  0.00    +0.000 A 
ATOM     12  C   UNL     1       7.883   6.682  18.006  0.00  0.00    +0.000 A 
ATOM     13  C   UNL     1       7.652   5.842  19.089  0.00  0.00    +0.000 A 
ATOM     14  C   UNL     1       6.359   5.378  19.359  0.00  0.00    +0.000 A 
ENDBRANCH   6   9
ENDBRANCH   1   6
BRANCH   1  15
ATOM     15  O   UNL     1       2.138   6.927  18.540  0.00  0.00    +0.000 OA
BRANCH  15  16
ATOM     16  C   UNL     1       2.455   8.311  18.389  0.00  0.00    +0.000 C 
BRANCH  16  17
ATOM     17  C   UNL     1       1.343   9.124  19.007  0.00  0.00    +0.000 A 
ATOM     18  C   UNL     1       0.556   9.938  18.202  0.00  0.00    +0.000 A 
ATOM     19  C   UNL     1      -0.483  10.635  18.796  0.00  0.00    +0.000 A 
ATOM     20 CL   UNL     1      -1.489  11.648  17.834  0.00  0.00    +0.000 Cl
ATOM     21  C   UNL     1      -0.728  10.514  20.157  0.00  0.00    +0.000 A 
ATOM     22  C   UNL     1       0.097   9.684  20.911  0.00  0.00    +0.000 A 
ATOM     23  N   UNL     1       1.133   9.003  20.343  0.00  0.00    +0.000 NA
BRANCH  22  24
ATOM     24  C   UNL     1      -0.166   9.517  22.401  0.00  0.00    +0.000 C 
ATOM     25  F   UNL     1      -0.839  10.569  22.955  0.00  0.00    +0.000 F 
ATOM     26  F   UNL     1      -0.917   8.416  22.691  0.00  0.00    +0.000 F 
ATOM     27  F   UNL     1       0.979   9.396  23.135  0.00  0.00    +0.000 F 
ENDBRANCH  22  24
ENDBRANCH  16  17
ENDBRANCH  15  16
ENDBRANCH   1  15
TORSDOF 6
ENDMDL
MODEL 9
REMARK VINA RESULT:      -8.0      2.246      2.766
REMARK  Name = 
REMARK  7 active torsions:
REMARK  status: ('A' for Active; 'I' for Inactive)
REMARK    1  A    between atoms: C_1  and  N_2
REMARK    2  A    between atoms: C_5  and  C_6
REMARK    3  A    between atoms: C_5  and  C_20
REMARK    4  A    between atoms: C_6  and  O_7
REMARK    5  A    between atoms: O_7  and  C_8
REMARK    6  A    between atoms: C_8  and  C_9
REMARK    7  A    between atoms: C_14  and  C_15
REMARK                            x       y       z     vdW  Elec       q    Type
REMARK                         _______ _______ _______ _____ _____    ______ ____
ROOT
ATOM      1  C   UNL     1       3.028   6.064  17.596  0.00  0.00    +0.000 C 
ENDROOT
BRANCH   1   6
ATOM      2  C   UNL     1       7.270   5.062  15.711  0.00  0.00    +0.000 C 
ATOM      3  N   UNL     1       6.295   4.564  16.687  0.00  0.00    +0.000 NA
ATOM      4  C   UNL     1       6.126   5.538  17.767  0.00  0.00    +0.000 C 
ATOM      5  C   UNL     1       5.080   5.094  18.792  0.00  0.00    +0.000 C 
ATOM      6  C   UNL     1       3.692   4.779  18.168  0.00  0.00    +0.000 C 
ATOM      7  C   UNL     1       3.954   3.782  17.001  0.00  0.00    +0.000 C 
ATOM      8  C   UNL     1       5.033   4.245  16.020  0.00  0.00    +0.000 C 
BRANCH   6   9
ATOM      9  C   UNL     1       2.734   4.157  19.222  0.00  0.00    +0.000 A 
ATOM     10  C   UNL     1       3.015   4.230  20.600  0.00  0.00    +0.000 A 
ATOM     11  C   UNL     1       2.185   3.625  21.550  0.00  0.00    +0.000 A 
ATOM     12  C   UNL     1       1.038   2.954  21.148  0.00  0.00    +0.000 A 
ATOM     13  C   UNL     1       0.710   2.906  19.799  0.00  0.00    +0.000 A 
ATOM     14  C   UNL     1       1.541   3.510  18.849  0.00  0.00    +0.000 A 
ENDBRANCH   6   9
ENDBRANCH   1   6
BRANCH   1  15
ATOM     15  O   UNL     1       2.834   7.041  18.627  0.00  0.00    +0.000 OA
BRANCH  15  16
ATOM     16  C   UNL     1       2.588   8.342  18.092  0.00  0.00    +0.000 C 
BRANCH  16  17
ATOM     17  C   UNL     1       1.439   8.959  18.852  0.00  0.00    +0.000 A 
ATOM     18  C   UNL     1       1.380   8.832  20.234  0.00  0.00    +0.000 A 
ATOM     19  C   UNL     1       0.335   9.449  20.902  0.00  0.00    +0.000 A 
ATOM     20 CL   UNL     1       0.229   9.325  22.616  0.00  0.00    +0.000 Cl
ATOM     21  C   UNL     1      -0.620  10.176  20.204  0.00  0.00    +0.000 A 
ATOM     22  C   UNL     1      -0.507  10.265  18.819  0.00  0.00    +0.000 A 
ATOM     23  N   UNL     1       0.508   9.651  18.146  0.00  0.00    +0.000 NA
BRANCH  22  24
ATOM     24  C   UNL     1      -1.528  11.076  18.033  0.00  0.00    +0.000 C 
ATOM     25  F   UNL     1      -1.148  12.372  17.826  0.00  0.00    +0.000 F 
ATOM     26  F   UNL     1      -1.771  10.569  16.791  0.00  0.00    +0.000 F 
ATOM     27  F   UNL     1      -2.741  11.152  18.653  0.00  0.00    +0.000 F 
ENDBRANCH  22  24
ENDBRANCH  16  17
ENDBRANCH  15  16
ENDBRANCH   1  15
TORSDOF 6
ENDMDL
