MODEL 1
REMARK VINA RESULT:      -8.6      0.000      0.000
REMARK  Name = 
REMARK  7 active torsions:
REMARK  status: ('A' for Active; 'I' for Inactive)
REMARK    1  A    between atoms: C_2  and  C_3
REMARK    2  A    between atoms: C_2  and  C_23
REMARK    3  A    between atoms: C_3  and  O_4
REMARK    4  A    between atoms: O_4  and  C_5
REMARK    5  A    between atoms: C_7  and  O_8
REMARK    6  A    between atoms: C_13  and  C_14
REMARK    7  A    between atoms: C_27  and  N_28
REMARK                            x       y       z     vdW  Elec       q    Type
REMARK                         _______ _______ _______ _____ _____    ______ ____
ROOT
ATOM      1  C   UNL     1       4.178   3.974  17.025  0.00  0.00    +0.000 A 
ATOM      2  C   UNL     1       4.000   2.883  17.875  0.00  0.00    +0.000 A 
ATOM      3  C   UNL     1       3.328   3.052  19.090  0.00  0.00    +0.000 A 
ATOM      4  C   UNL     1       2.817   4.305  19.450  0.00  0.00    +0.000 A 
ATOM      5  C   UNL     1       2.120   4.550  20.728  0.00  0.00    +0.000 A 
ATOM      6  O   UNL     1       1.921   3.700  21.588  0.00  0.00    +0.000 OA
ATOM      7  C   UNL     1       1.653   5.921  20.968  0.00  0.00    +0.000 A 
ATOM      8  C   UNL     1       1.876   6.877  20.059  0.00  0.00    +0.000 A 
ATOM      9  O   UNL     1       2.511   6.652  18.848  0.00  0.00    +0.000 OA
ATOM     10  C   UNL     1       2.974   5.386  18.577  0.00  0.00    +0.000 A 
ATOM     11  C   UNL     1       3.643   5.218  17.364  0.00  0.00    +0.000 A 
ENDROOT
BRANCH   8  12
ATOM     12  C   UNL     1       1.430   8.271  20.283  0.00  0.00    +0.000 A 
ATOM     13  C   UNL     1       1.368   9.196  19.225  0.00  0.00    +0.000 A 
ATOM     14  C   UNL     1       0.971  10.516  19.441  0.00  0.00    +0.000 A 
ATOM     15  C   UNL     1       0.611  10.930  20.719  0.00  0.00    +0.000 A 
ATOM     16  C   UNL     1       0.642  10.025  21.778  0.00  0.00    +0.000 A 
ATOM     17  C   UNL     1       1.047   8.705  21.561  0.00  0.00    +0.000 A 
ENDBRANCH   8  12
BRANCH   3  18
ATOM     18  O   UNL     1       3.184   1.977  19.919  0.00  0.00    +0.000 OA
ATOM     19  H   UNL     1       3.083   1.155  19.416  0.00  0.00    +0.000 HD
ENDBRANCH   3  18
BRANCH   1  20
ATOM     20  O   UNL     1       4.842   3.928  15.830  0.00  0.00    +0.000 OA
BRANCH  20  21
ATOM     21  C   UNL     1       5.237   5.191  15.303  0.00  0.00    +0.000 C 
BRANCH  21  23
ATOM     22  O   UNL     1       7.524   5.211  14.488  0.00  0.00    +0.000 OA
ATOM     23  C   UNL     1       6.746   5.380  15.424  0.00  0.00    +0.000 C 
BRANCH  23  24
ATOM     24  C   UNL     1       7.291   5.838  16.738  0.00  0.00    +0.000 A 
ATOM     25  C   UNL     1       7.458   4.964  17.824  0.00  0.00    +0.000 A 
ATOM     26  C   UNL     1       7.906   5.444  19.057  0.00  0.00    +0.000 A 
ATOM     27  C   UNL     1       8.197   6.798  19.218  0.00  0.00    +0.000 A 
ATOM     28  C   UNL     1       8.051   7.671  18.132  0.00  0.00    +0.000 A 
ATOM     29  C   UNL     1       7.607   7.197  16.890  0.00  0.00    +0.000 A 
BRANCH  28  30
ATOM     30  N   UNL     1       8.347   9.098  18.305  0.00  0.00    +0.000 N 
ATOM     31  O   UNL     1       7.816   9.893  17.517  0.00  0.00    +0.000 OA
ATOM     32  O   UNL     1       9.111   9.422  19.225  0.00  0.00    +0.000 OA
ENDBRANCH  28  30
ENDBRANCH  23  24
ENDBRANCH  21  23
ENDBRANCH  20  21
ENDBRANCH   1  20
TORSDOF 7
ENDMDL
MODEL 2
REMARK VINA RESULT:      -8.4      2.664      4.291
REMARK  Name = 
REMARK  7 active torsions:
REMARK  status: ('A' for Active; 'I' for Inactive)
REMARK    1  A    between atoms: C_2  and  C_3
REMARK    2  A    between atoms: C_2  and  C_23
REMARK    3  A    between atoms: C_3  and  O_4
REMARK    4  A    between atoms: O_4  and  C_5
REMARK    5  A    between atoms: C_7  and  O_8
REMARK    6  A    between atoms: C_13  and  C_14
REMARK    7  A    between atoms: C_27  and  N_28
REMARK                            x       y       z     vdW  Elec       q    Type
REMARK                         _______ _______ _______ _____ _____    ______ ____
ROOT
ATOM      1  C   UNL     1       4.260   5.775  17.186  0.00  0.00    +0.000 A 
ATOM      2  C   UNL     1       4.039   4.484  17.665  0.00  0.00    +0.000 A 
ATOM      3  C   UNL     1       3.199   4.286  18.765  0.00  0.00    +0.000 A 
ATOM      4  C   UNL     1       2.564   5.374  19.378  0.00  0.00    +0.000 A 
ATOM      5  C   UNL     1       1.686   5.230  20.555  0.00  0.00    +0.000 A 
ATOM      6  O   UNL     1       1.428   4.166  21.107  0.00  0.00    +0.000 OA
ATOM      7  C   UNL     1       1.102   6.465  21.094  0.00  0.00    +0.000 A 
ATOM      8  C   UNL     1       1.384   7.644  20.527  0.00  0.00    +0.000 A 
ATOM      9  O   UNL     1       2.190   7.786  19.409  0.00  0.00    +0.000 OA
ATOM     10  C   UNL     1       2.768   6.660  18.871  0.00  0.00    +0.000 A 
ATOM     11  C   UNL     1       3.604   6.859  17.772  0.00  0.00    +0.000 A 
ENDROOT
BRANCH   8  12
ATOM     12  C   UNL     1       0.822   8.907  21.059  0.00  0.00    +0.000 A 
ATOM     13  C   UNL     1       0.888  10.103  20.322  0.00  0.00    +0.000 A 
ATOM     14  C   UNL     1       0.380  11.297  20.834  0.00  0.00    +0.000 A 
ATOM     15  C   UNL     1      -0.221  11.312  22.088  0.00  0.00    +0.000 A 
ATOM     16  C   UNL     1      -0.319  10.135  22.826  0.00  0.00    +0.000 A 
ATOM     17  C   UNL     1       0.197   8.940  22.315  0.00  0.00    +0.000 A 
ENDBRANCH   8  12
BRANCH   3  18
ATOM     18  O   UNL     1       3.015   3.017  19.234  0.00  0.00    +0.000 OA
ATOM     19  H   UNL     1       2.087   2.855  19.458  0.00  0.00    +0.000 HD
ENDBRANCH   3  18
BRANCH   1  20
ATOM     20  O   UNL     1       5.081   6.086  16.137  0.00  0.00    +0.000 OA
BRANCH  20  21
ATOM     21  C   UNL     1       6.466   6.179  16.454  0.00  0.00    +0.000 C 
BRANCH  21  23
ATOM     22  O   UNL     1       7.814   4.164  16.581  0.00  0.00    +0.000 OA
ATOM     23  C   UNL     1       7.235   4.992  15.882  0.00  0.00    +0.000 C 
BRANCH  23  24
ATOM     24  C   UNL     1       7.239   4.810  14.398  0.00  0.00    +0.000 A 
ATOM     25  C   UNL     1       8.062   5.571  13.554  0.00  0.00    +0.000 A 
ATOM     26  C   UNL     1       7.988   5.419  12.167  0.00  0.00    +0.000 A 
ATOM     27  C   UNL     1       7.098   4.504  11.609  0.00  0.00    +0.000 A 
ATOM     28  C   UNL     1       6.288   3.727  12.448  0.00  0.00    +0.000 A 
ATOM     29  C   UNL     1       6.360   3.869  13.841  0.00  0.00    +0.000 A 
BRANCH  28  30
ATOM     30  N   UNL     1       5.342   2.770  11.860  0.00  0.00    +0.000 N 
ATOM     31  O   UNL     1       4.173   3.146  11.698  0.00  0.00    +0.000 OA
ATOM     32  O   UNL     1       5.768   1.645  11.564  0.00  0.00    +0.000 OA
ENDBRANCH  28  30
ENDBRANCH  23  24
ENDBRANCH  21  23
ENDBRANCH  20  21
ENDBRANCH   1  20
TORSDOF 7
ENDMDL
MODEL 3
REMARK VINA RESULT:      -8.3      3.007      4.891
REMARK  Name = 
REMARK  7 active torsions:
REMARK  status: ('A' for Active; 'I' for Inactive)
REMARK    1  A    between atoms: C_2  and  C_3
REMARK    2  A    between atoms: C_2  and  C_23
REMARK    3  A    between atoms: C_3  and  O_4
REMARK    4  A    between atoms: O_4  and  C_5
REMARK    5  A    between atoms: C_7  and  O_8
REMARK    6  A    between atoms: C_13  and  C_14
REMARK    7  A    between atoms: C_27  and  N_28
REMARK                            x       y       z     vdW  Elec       q    Type
REMARK                         _______ _______ _______ _____ _____    ______ ____
ROOT
ATOM      1  C   UNL     1       3.865   6.164  17.547  0.00  0.00    +0.000 A 
ATOM      2  C   UNL     1       3.614   5.406  18.691  0.00  0.00    +0.000 A 
ATOM      3  C   UNL     1       2.815   5.932  19.710  0.00  0.00    +0.000 A 
ATOM      4  C   UNL     1       2.249   7.207  19.583  0.00  0.00    +0.000 A 
ATOM      5  C   UNL     1       1.417   7.823  20.634  0.00  0.00    +0.000 A 
ATOM      6  O   UNL     1       1.141   7.295  21.705  0.00  0.00    +0.000 OA
ATOM      7  C   UNL     1       0.906   9.172  20.359  0.00  0.00    +0.000 A 
ATOM      8  C   UNL     1       1.209   9.785  19.209  0.00  0.00    +0.000 A 
ATOM      9  O   UNL     1       1.972   9.205  18.208  0.00  0.00    +0.000 OA
ATOM     10  C   UNL     1       2.481   7.946  18.420  0.00  0.00    +0.000 A 
ATOM     11  C   UNL     1       3.278   7.421  17.401  0.00  0.00    +0.000 A 
ENDROOT
BRANCH   8  12
ATOM     12  C   UNL     1       0.720  11.151  18.913  0.00  0.00    +0.000 A 
ATOM     13  C   UNL     1      -0.656  11.427  18.813  0.00  0.00    +0.000 A 
ATOM     14  C   UNL     1      -1.115  12.709  18.509  0.00  0.00    +0.000 A 
ATOM     15  C   UNL     1      -0.205  13.743  18.318  0.00  0.00    +0.000 A 
ATOM     16  C   UNL     1       1.161  13.498  18.435  0.00  0.00    +0.000 A 
ATOM     17  C   UNL     1       1.620  12.211  18.732  0.00  0.00    +0.000 A 
ENDBRANCH   8  12
BRANCH   3  18
ATOM     18  O   UNL     1       2.601   5.184  20.832  0.00  0.00    +0.000 OA
ATOM     19  H   UNL     1       3.350   4.596  21.012  0.00  0.00    +0.000 HD
ENDBRANCH   3  18
BRANCH   1  20
ATOM     20  O   UNL     1       4.653   5.760  16.504  0.00  0.00    +0.000 OA
BRANCH  20  21
ATOM     21  C   UNL     1       5.274   4.489  16.665  0.00  0.00    +0.000 C 
BRANCH  21  23
ATOM     22  O   UNL     1       7.697   4.514  16.820  0.00  0.00    +0.000 OA
ATOM     23  C   UNL     1       6.695   4.505  16.109  0.00  0.00    +0.000 C 
BRANCH  23  24
ATOM     24  C   UNL     1       6.865   4.463  14.625  0.00  0.00    +0.000 A 
ATOM     25  C   UNL     1       7.774   5.296  13.953  0.00  0.00    +0.000 A 
ATOM     26  C   UNL     1       7.856   5.275  12.558  0.00  0.00    +0.000 A 
ATOM     27  C   UNL     1       7.038   4.421  11.821  0.00  0.00    +0.000 A 
ATOM     28  C   UNL     1       6.143   3.573  12.488  0.00  0.00    +0.000 A 
ATOM     29  C   UNL     1       6.058   3.584  13.887  0.00  0.00    +0.000 A 
BRANCH  28  30
ATOM     30  N   UNL     1       5.274   2.681  11.711  0.00  0.00    +0.000 N 
ATOM     31  O   UNL     1       5.732   1.578  11.381  0.00  0.00    +0.000 OA
ATOM     32  O   UNL     1       4.137   3.085  11.430  0.00  0.00    +0.000 OA
ENDBRANCH  28  30
ENDBRANCH  23  24
ENDBRANCH  21  23
ENDBRANCH  20  21
ENDBRANCH   1  20
TORSDOF 7
ENDMDL
MODEL 4
REMARK VINA RESULT:      -8.3      5.921     11.091
REMARK  Name = 
REMARK  7 active torsions:
REMARK  status: ('A' for Active; 'I' for Inactive)
REMARK    1  A    between atoms: C_2  and  C_3
REMARK    2  A    between atoms: C_2  and  C_23
REMARK    3  A    between atoms: C_3  and  O_4
REMARK    4  A    between atoms: O_4  and  C_5
REMARK    5  A    between atoms: C_7  and  O_8
REMARK    6  A    between atoms: C_13  and  C_14
REMARK    7  A    between atoms: C_27  and  N_28
REMARK                            x       y       z     vdW  Elec       q    Type
REMARK                         _______ _______ _______ _____ _____    ______ ____
ROOT
ATOM      1  C   UNL     1       0.083  10.592  21.928  0.00  0.00    +0.000 A 
ATOM      2  C   UNL     1       0.174  11.346  20.758  0.00  0.00    +0.000 A 
ATOM      3  C   UNL     1       0.747  10.785  19.613  0.00  0.00    +0.000 A 
ATOM      4  C   UNL     1       1.213   9.464  19.627  0.00  0.00    +0.000 A 
ATOM      5  C   UNL     1       1.847   8.825  18.457  0.00  0.00    +0.000 A 
ATOM      6  O   UNL     1       2.028   9.373  17.376  0.00  0.00    +0.000 OA
ATOM      7  C   UNL     1       2.297   7.438  18.631  0.00  0.00    +0.000 A 
ATOM      8  C   UNL     1       2.135   6.820  19.807  0.00  0.00    +0.000 A 
ATOM      9  O   UNL     1       1.521   7.405  20.903  0.00  0.00    +0.000 OA
ATOM     10  C   UNL     1       1.089   8.706  20.795  0.00  0.00    +0.000 A 
ATOM     11  C   UNL     1       0.516   9.265  21.938  0.00  0.00    +0.000 A 
ENDROOT
BRANCH   8  12
ATOM     12  C   UNL     1       2.593   5.428  20.013  0.00  0.00    +0.000 A 
ATOM     13  C   UNL     1       3.704   4.915  19.321  0.00  0.00    +0.000 A 
ATOM     14  C   UNL     1       4.120   3.595  19.497  0.00  0.00    +0.000 A 
ATOM     15  C   UNL     1       3.440   2.768  20.386  0.00  0.00    +0.000 A 
ATOM     16  C   UNL     1       2.351   3.261  21.100  0.00  0.00    +0.000 A 
ATOM     17  C   UNL     1       1.931   4.582  20.917  0.00  0.00    +0.000 A 
ENDBRANCH   8  12
BRANCH   3  18
ATOM     18  O   UNL     1       0.848  11.547  18.486  0.00  0.00    +0.000 OA
ATOM     19  H   UNL     1       0.693  12.484  18.678  0.00  0.00    +0.000 HD
ENDBRANCH   3  18
BRANCH   1  20
ATOM     20  O   UNL     1      -0.432  11.049  23.110  0.00  0.00    +0.000 OA
BRANCH  20  21
ATOM     21  C   UNL     1      -1.803  11.430  23.071  0.00  0.00    +0.000 C 
BRANCH  21  23
ATOM     22  O   UNL     1      -1.035  13.620  23.785  0.00  0.00    +0.000 OA
ATOM     23  C   UNL     1      -1.964  12.909  23.407  0.00  0.00    +0.000 C 
BRANCH  23  24
ATOM     24  C   UNL     1      -3.313  13.526  23.221  0.00  0.00    +0.000 A 
ATOM     25  C   UNL     1      -3.484  14.779  22.611  0.00  0.00    +0.000 A 
ATOM     26  C   UNL     1      -4.755  15.352  22.517  0.00  0.00    +0.000 A 
ATOM     27  C   UNL     1      -5.866  14.681  23.024  0.00  0.00    +0.000 A 
ATOM     28  C   UNL     1      -5.703  13.422  23.616  0.00  0.00    +0.000 A 
ATOM     29  C   UNL     1      -4.433  12.837  23.710  0.00  0.00    +0.000 A 
BRANCH  28  30
ATOM     30  N   UNL     1      -6.872  12.720  24.160  0.00  0.00    +0.000 N 
ATOM     31  O   UNL     1      -6.851  11.481  24.154  0.00  0.00    +0.000 OA
ATOM     32  O   UNL     1      -7.810  13.406  24.589  0.00  0.00    +0.000 OA
ENDBRANCH  28  30
ENDBRANCH  23  24
ENDBRANCH  21  23
ENDBRANCH  20  21
ENDBRANCH   1  20
TORSDOF 7
ENDMDL
MODEL 5
REMARK VINA RESULT:      -8.2      3.202      8.010
REMARK  Name = 
REMARK  7 active torsions:
REMARK  status: ('A' for Active; 'I' for Inactive)
REMARK    1  A    between atoms: C_2  and  C_3
REMARK    2  A    between atoms: C_2  and  C_23
REMARK    3  A    between atoms: C_3  and  O_4
REMARK    4  A    between atoms: O_4  and  C_5
REMARK    5  A    between atoms: C_7  and  O_8
REMARK    6  A    between atoms: C_13  and  C_14
REMARK    7  A    between atoms: C_27  and  N_28
REMARK                            x       y       z     vdW  Elec       q    Type
REMARK                         _______ _______ _______ _____ _____    ______ ____
ROOT
ATOM      1  C   UNL     1       2.621   7.339  18.893  0.00  0.00    +0.000 A 
ATOM      2  C   UNL     1       2.404   6.291  19.788  0.00  0.00    +0.000 A 
ATOM      3  C   UNL     1       2.915   5.021  19.506  0.00  0.00    +0.000 A 
ATOM      4  C   UNL     1       3.659   4.797  18.340  0.00  0.00    +0.000 A 
ATOM      5  C   UNL     1       4.203   3.474  17.978  0.00  0.00    +0.000 A 
ATOM      6  O   UNL     1       4.062   2.456  18.645  0.00  0.00    +0.000 OA
ATOM      7  C   UNL     1       4.950   3.395  16.717  0.00  0.00    +0.000 A 
ATOM      8  C   UNL     1       5.100   4.485  15.954  0.00  0.00    +0.000 A 
ATOM      9  O   UNL     1       4.611   5.735  16.297  0.00  0.00    +0.000 OA
ATOM     10  C   UNL     1       3.897   5.861  17.465  0.00  0.00    +0.000 A 
ATOM     11  C   UNL     1       3.389   7.130  17.746  0.00  0.00    +0.000 A 
ENDROOT
BRANCH   8  12
ATOM     12  C   UNL     1       5.836   4.430  14.670  0.00  0.00    +0.000 A 
ATOM     13  C   UNL     1       5.374   3.646  13.598  0.00  0.00    +0.000 A 
ATOM     14  C   UNL     1       6.081   3.575  12.397  0.00  0.00    +0.000 A 
ATOM     15  C   UNL     1       7.256   4.304  12.242  0.00  0.00    +0.000 A 
ATOM     16  C   UNL     1       7.720   5.105  13.282  0.00  0.00    +0.000 A 
ATOM     17  C   UNL     1       7.014   5.169  14.487  0.00  0.00    +0.000 A 
ENDBRANCH   8  12
BRANCH   3  18
ATOM     18  O   UNL     1       2.671   4.003  20.383  0.00  0.00    +0.000 OA
ATOM     19  H   UNL     1       3.487   3.537  20.618  0.00  0.00    +0.000 HD
ENDBRANCH   3  18
BRANCH   1  20
ATOM     20  O   UNL     1       2.145   8.611  19.055  0.00  0.00    +0.000 OA
BRANCH  20  21
ATOM     21  C   UNL     1       1.660   9.237  17.871  0.00  0.00    +0.000 C 
BRANCH  21  23
ATOM     22  O   UNL     1      -0.694   9.683  17.478  0.00  0.00    +0.000 OA
ATOM     23  C   UNL     1       0.321   9.921  18.129  0.00  0.00    +0.000 C 
BRANCH  23  24
ATOM     24  C   UNL     1       0.239  10.893  19.262  0.00  0.00    +0.000 A 
ATOM     25  C   UNL     1       0.663  12.225  19.136  0.00  0.00    +0.000 A 
ATOM     26  C   UNL     1       0.633  13.084  20.238  0.00  0.00    +0.000 A 
ATOM     27  C   UNL     1       0.176  12.627  21.472  0.00  0.00    +0.000 A 
ATOM     28  C   UNL     1      -0.268  11.303  21.597  0.00  0.00    +0.000 A 
ATOM     29  C   UNL     1      -0.247  10.436  20.497  0.00  0.00    +0.000 A 
BRANCH  28  30
ATOM     30  N   UNL     1      -0.740  10.818  22.900  0.00  0.00    +0.000 N 
ATOM     31  O   UNL     1      -1.833  11.238  23.307  0.00  0.00    +0.000 OA
ATOM     32  O   UNL     1      -0.018  10.021  23.515  0.00  0.00    +0.000 OA
ENDBRANCH  28  30
ENDBRANCH  23  24
ENDBRANCH  21  23
ENDBRANCH  20  21
ENDBRANCH   1  20
TORSDOF 7
ENDMDL
MODEL 6
REMARK VINA RESULT:      -8.2      4.133      8.828
REMARK  Name = 
REMARK  7 active torsions:
REMARK  status: ('A' for Active; 'I' for Inactive)
REMARK    1  A    between atoms: C_2  and  C_3
REMARK    2  A    between atoms: C_2  and  C_23
REMARK    3  A    between atoms: C_3  and  O_4
REMARK    4  A    between atoms: O_4  and  C_5
REMARK    5  A    between atoms: C_7  and  O_8
REMARK    6  A    between atoms: C_13  and  C_14
REMARK    7  A    between atoms: C_27  and  N_28
REMARK                            x       y       z     vdW  Elec       q    Type
REMARK                         _______ _______ _______ _____ _____    ______ ____
ROOT
ATOM      1  C   UNL     1       2.093   8.465  18.934  0.00  0.00    +0.000 A 
ATOM      2  C   UNL     1       1.885   7.625  20.028  0.00  0.00    +0.000 A 
ATOM      3  C   UNL     1       2.448   6.345  20.037  0.00  0.00    +0.000 A 
ATOM      4  C   UNL     1       3.235   5.908  18.964  0.00  0.00    +0.000 A 
ATOM      5  C   UNL     1       3.836   4.561  18.907  0.00  0.00    +0.000 A 
ATOM      6  O   UNL     1       3.711   3.704  19.773  0.00  0.00    +0.000 OA
ATOM      7  C   UNL     1       4.625   4.245  17.709  0.00  0.00    +0.000 A 
ATOM      8  C   UNL     1       4.760   5.151  16.734  0.00  0.00    +0.000 A 
ATOM      9  O   UNL     1       4.217   6.425  16.789  0.00  0.00    +0.000 OA
ATOM     10  C   UNL     1       3.463   6.768  17.886  0.00  0.00    +0.000 A 
ATOM     11  C   UNL     1       2.903   8.046  17.876  0.00  0.00    +0.000 A 
ENDROOT
BRANCH   8  12
ATOM     12  C   UNL     1       5.537   4.853  15.509  0.00  0.00    +0.000 A 
ATOM     13  C   UNL     1       4.995   4.071  14.474  0.00  0.00    +0.000 A 
ATOM     14  C   UNL     1       5.736   3.770  13.331  0.00  0.00    +0.000 A 
ATOM     15  C   UNL     1       7.030   4.262  13.196  0.00  0.00    +0.000 A 
ATOM     16  C   UNL     1       7.579   5.059  14.198  0.00  0.00    +0.000 A 
ATOM     17  C   UNL     1       6.837   5.354  15.345  0.00  0.00    +0.000 A 
ENDBRANCH   8  12
BRANCH   3  18
ATOM     18  O   UNL     1       2.213   5.529  21.106  0.00  0.00    +0.000 OA
ATOM     19  H   UNL     1       2.563   5.910  21.924  0.00  0.00    +0.000 HD
ENDBRANCH   3  18
BRANCH   1  20
ATOM     20  O   UNL     1       1.568   9.722  18.808  0.00  0.00    +0.000 OA
BRANCH  20  21
ATOM     21  C   UNL     1       0.456   9.833  17.926  0.00  0.00    +0.000 C 
BRANCH  21  23
ATOM     22  O   UNL     1      -0.874  10.211  19.921  0.00  0.00    +0.000 OA
ATOM     23  C   UNL     1      -0.811  10.195  18.694  0.00  0.00    +0.000 C 
BRANCH  23  24
ATOM     24  C   UNL     1      -2.018  10.592  17.907  0.00  0.00    +0.000 A 
ATOM     25  C   UNL     1      -3.073  11.324  18.473  0.00  0.00    +0.000 A 
ATOM     26  C   UNL     1      -4.214  11.617  17.723  0.00  0.00    +0.000 A 
ATOM     27  C   UNL     1      -4.314  11.188  16.401  0.00  0.00    +0.000 A 
ATOM     28  C   UNL     1      -3.255  10.473  15.825  0.00  0.00    +0.000 A 
ATOM     29  C   UNL     1      -2.104  10.180  16.568  0.00  0.00    +0.000 A 
BRANCH  28  30
ATOM     30  N   UNL     1      -3.364  10.012  14.435  0.00  0.00    +0.000 N 
ATOM     31  O   UNL     1      -4.501   9.825  13.980  0.00  0.00    +0.000 OA
ATOM     32  O   UNL     1      -2.314   9.833  13.803  0.00  0.00    +0.000 OA
ENDBRANCH  28  30
ENDBRANCH  23  24
ENDBRANCH  21  23
ENDBRANCH  20  21
ENDBRANCH   1  20
TORSDOF 7
ENDMDL
MODEL 7
REMARK VINA RESULT:      -8.2      2.183      4.627
REMARK  Name = 
REMARK  7 active torsions:
REMARK  status: ('A' for Active; 'I' for Inactive)
REMARK    1  A    between atoms: C_2  and  C_3
REMARK    2  A    between atoms: C_2  and  C_23
REMARK    3  A    between atoms: C_3  and  O_4
REMARK    4  A    between atoms: O_4  and  C_5
REMARK    5  A    between atoms: C_7  and  O_8
REMARK    6  A    between atoms: C_13  and  C_14
REMARK    7  A    between atoms: C_27  and  N_28
REMARK                            x       y       z     vdW  Elec       q    Type
REMARK                         _______ _______ _______ _____ _____    ______ ____
ROOT
ATOM      1  C   UNL     1       2.586   5.959  19.675  0.00  0.00    +0.000 A 
ATOM      2  C   UNL     1       3.114   6.399  18.461  0.00  0.00    +0.000 A 
ATOM      3  C   UNL     1       2.811   7.683  17.997  0.00  0.00    +0.000 A 
ATOM      4  C   UNL     1       1.995   8.536  18.752  0.00  0.00    +0.000 A 
ATOM      5  C   UNL     1       1.622   9.892  18.303  0.00  0.00    +0.000 A 
ATOM      6  O   UNL     1       1.979  10.400  17.247  0.00  0.00    +0.000 OA
ATOM      7  C   UNL     1       0.749  10.662  19.198  0.00  0.00    +0.000 A 
ATOM      8  C   UNL     1       0.323  10.125  20.348  0.00  0.00    +0.000 A 
ATOM      9  O   UNL     1       0.685   8.861  20.786  0.00  0.00    +0.000 OA
ATOM     10  C   UNL     1       1.496   8.097  19.981  0.00  0.00    +0.000 A 
ATOM     11  C   UNL     1       1.799   6.816  20.445  0.00  0.00    +0.000 A 
ENDROOT
BRANCH   8  12
ATOM     12  C   UNL     1      -0.571  10.873  21.261  0.00  0.00    +0.000 A 
ATOM     13  C   UNL     1      -0.740  10.479  22.601  0.00  0.00    +0.000 A 
ATOM     14  C   UNL     1      -1.601  11.170  23.454  0.00  0.00    +0.000 A 
ATOM     15  C   UNL     1      -2.296  12.280  22.986  0.00  0.00    +0.000 A 
ATOM     16  C   UNL     1      -2.127  12.702  21.670  0.00  0.00    +0.000 A 
ATOM     17  C   UNL     1      -1.269  12.005  20.814  0.00  0.00    +0.000 A 
ENDBRANCH   8  12
BRANCH   3  18
ATOM     18  O   UNL     1       3.318   8.087  16.796  0.00  0.00    +0.000 OA
ATOM     19  H   UNL     1       2.614   8.341  16.183  0.00  0.00    +0.000 HD
ENDBRANCH   3  18
BRANCH   1  20
ATOM     20  O   UNL     1       2.794   4.717  20.208  0.00  0.00    +0.000 OA
BRANCH  20  21
ATOM     21  C   UNL     1       3.202   3.715  19.281  0.00  0.00    +0.000 C 
BRANCH  21  23
ATOM     22  O   UNL     1       5.126   2.472  20.086  0.00  0.00    +0.000 OA
ATOM     23  C   UNL     1       4.690   3.415  19.429  0.00  0.00    +0.000 C 
BRANCH  23  24
ATOM     24  C   UNL     1       5.657   4.290  18.699  0.00  0.00    +0.000 A 
ATOM     25  C   UNL     1       6.461   5.231  19.361  0.00  0.00    +0.000 A 
ATOM     26  C   UNL     1       7.303   6.078  18.635  0.00  0.00    +0.000 A 
ATOM     27  C   UNL     1       7.355   5.992  17.245  0.00  0.00    +0.000 A 
ATOM     28  C   UNL     1       6.569   5.041  16.581  0.00  0.00    +0.000 A 
ATOM     29  C   UNL     1       5.726   4.183  17.301  0.00  0.00    +0.000 A 
BRANCH  28  30
ATOM     30  N   UNL     1       6.616   4.957  15.116  0.00  0.00    +0.000 N 
ATOM     31  O   UNL     1       5.636   4.466  14.538  0.00  0.00    +0.000 OA
ATOM     32  O   UNL     1       7.632   5.379  14.546  0.00  0.00    +0.000 OA
ENDBRANCH  28  30
ENDBRANCH  23  24
ENDBRANCH  21  23
ENDBRANCH  20  21
ENDBRANCH   1  20
TORSDOF 7
ENDMDL
MODEL 8
REMARK VINA RESULT:      -8.1      0.521      1.009
REMARK  Name = 
REMARK  7 active torsions:
REMARK  status: ('A' for Active; 'I' for Inactive)
REMARK    1  A    between atoms: C_2  and  C_3
REMARK    2  A    between atoms: C_2  and  C_23
REMARK    3  A    between atoms: C_3  and  O_4
REMARK    4  A    between atoms: O_4  and  C_5
REMARK    5  A    between atoms: C_7  and  O_8
REMARK    6  A    between atoms: C_13  and  C_14
REMARK    7  A    between atoms: C_27  and  N_28
REMARK                            x       y       z     vdW  Elec       q    Type
REMARK                         _______ _______ _______ _____ _____    ______ ____
ROOT
ATOM      1  C   UNL     1       4.056   3.826  16.974  0.00  0.00    +0.000 A 
ATOM      2  C   UNL     1       3.946   2.799  17.912  0.00  0.00    +0.000 A 
ATOM      3  C   UNL     1       3.354   3.053  19.152  0.00  0.00    +0.000 A 
ATOM      4  C   UNL     1       2.853   4.326  19.453  0.00  0.00    +0.000 A 
ATOM      5  C   UNL     1       2.238   4.659  20.753  0.00  0.00    +0.000 A 
ATOM      6  O   UNL     1       2.107   3.873  21.684  0.00  0.00    +0.000 OA
ATOM      7  C   UNL     1       1.772   6.041  20.923  0.00  0.00    +0.000 A 
ATOM      8  C   UNL     1       1.924   6.929  19.933  0.00  0.00    +0.000 A 
ATOM      9  O   UNL     1       2.481   6.619  18.702  0.00  0.00    +0.000 OA
ATOM     10  C   UNL     1       2.940   5.340  18.495  0.00  0.00    +0.000 A 
ATOM     11  C   UNL     1       3.530   5.088  17.256  0.00  0.00    +0.000 A 
ENDROOT
BRANCH   8  12
ATOM     12  C   UNL     1       1.477   8.332  20.084  0.00  0.00    +0.000 A 
ATOM     13  C   UNL     1       1.130   8.857  21.342  0.00  0.00    +0.000 A 
ATOM     14  C   UNL     1       0.685  10.172  21.479  0.00  0.00    +0.000 A 
ATOM     15  C   UNL     1       0.596  10.992  20.360  0.00  0.00    +0.000 A 
ATOM     16  C   UNL     1       0.956  10.502  19.107  0.00  0.00    +0.000 A 
ATOM     17  C   UNL     1       1.395   9.182  18.970  0.00  0.00    +0.000 A 
ENDBRANCH   8  12
BRANCH   3  18
ATOM     18  O   UNL     1       3.278   2.041  20.065  0.00  0.00    +0.000 OA
ATOM     19  H   UNL     1       2.553   2.184  20.691  0.00  0.00    +0.000 HD
ENDBRANCH   3  18
BRANCH   1  20
ATOM     20  O   UNL     1       4.641   3.697  15.744  0.00  0.00    +0.000 OA
BRANCH  20  21
ATOM     21  C   UNL     1       6.037   3.974  15.700  0.00  0.00    +0.000 C 
BRANCH  21  23
ATOM     22  O   UNL     1       5.876   6.306  15.043  0.00  0.00    +0.000 OA
ATOM     23  C   UNL     1       6.296   5.471  15.841  0.00  0.00    +0.000 C 
BRANCH  23  24
ATOM     24  C   UNL     1       7.062   5.939  17.036  0.00  0.00    +0.000 A 
ATOM     25  C   UNL     1       7.387   5.081  18.099  0.00  0.00    +0.000 A 
ATOM     26  C   UNL     1       8.045   5.573  19.230  0.00  0.00    +0.000 A 
ATOM     27  C   UNL     1       8.389   6.920  19.310  0.00  0.00    +0.000 A 
ATOM     28  C   UNL     1       8.085   7.777  18.243  0.00  0.00    +0.000 A 
ATOM     29  C   UNL     1       7.430   7.291  17.103  0.00  0.00    +0.000 A 
BRANCH  28  30
ATOM     30  N   UNL     1       8.438   9.199  18.332  0.00  0.00    +0.000 N 
ATOM     31  O   UNL     1       8.006   9.953  17.450  0.00  0.00    +0.000 OA
ATOM     32  O   UNL     1       9.149   9.559  19.281  0.00  0.00    +0.000 OA
ENDBRANCH  28  30
ENDBRANCH  23  24
ENDBRANCH  21  23
ENDBRANCH  20  21
ENDBRANCH   1  20
TORSDOF 7
ENDMDL
MODEL 9
REMARK VINA RESULT:      -8.1      2.690      4.342
REMARK  Name = 
REMARK  7 active torsions:
REMARK  status: ('A' for Active; 'I' for Inactive)
REMARK    1  A    between atoms: C_2  and  C_3
REMARK    2  A    between atoms: C_2  and  C_23
REMARK    3  A    between atoms: C_3  and  O_4
REMARK    4  A    between atoms: O_4  and  C_5
REMARK    5  A    between atoms: C_7  and  O_8
REMARK    6  A    between atoms: C_13  and  C_14
REMARK    7  A    between atoms: C_27  and  N_28
REMARK                            x       y       z     vdW  Elec       q    Type
REMARK                         _______ _______ _______ _____ _____    ______ ____
ROOT
ATOM      1  C   UNL     1       5.352   4.409  18.548  0.00  0.00    +0.000 A 
ATOM      2  C   UNL     1       4.722   3.225  18.929  0.00  0.00    +0.000 A 
ATOM      3  C   UNL     1       3.484   3.275  19.578  0.00  0.00    +0.000 A 
ATOM      4  C   UNL     1       2.865   4.505  19.832  0.00  0.00    +0.000 A 
ATOM      5  C   UNL     1       1.572   4.623  20.533  0.00  0.00    +0.000 A 
ATOM      6  O   UNL     1       0.920   3.675  20.958  0.00  0.00    +0.000 OA
ATOM      7  C   UNL     1       1.057   5.982  20.738  0.00  0.00    +0.000 A 
ATOM      8  C   UNL     1       1.757   7.038  20.307  0.00  0.00    +0.000 A 
ATOM      9  O   UNL     1       2.961   6.937  19.629  0.00  0.00    +0.000 OA
ATOM     10  C   UNL     1       3.491   5.685  19.419  0.00  0.00    +0.000 A 
ATOM     11  C   UNL     1       4.725   5.636  18.770  0.00  0.00    +0.000 A 
ENDROOT
BRANCH   8  12
ATOM     12  C   UNL     1       1.268   8.421  20.513  0.00  0.00    +0.000 A 
ATOM     13  C   UNL     1       1.162   9.324  19.440  0.00  0.00    +0.000 A 
ATOM     14  C   UNL     1       0.725  10.634  19.639  0.00  0.00    +0.000 A 
ATOM     15  C   UNL     1       0.369  11.059  20.915  0.00  0.00    +0.000 A 
ATOM     16  C   UNL     1       0.444  10.175  21.988  0.00  0.00    +0.000 A 
ATOM     17  C   UNL     1       0.889   8.865  21.788  0.00  0.00    +0.000 A 
ENDBRANCH   8  12
BRANCH   3  18
ATOM     18  O   UNL     1       2.895   2.106  19.964  0.00  0.00    +0.000 OA
ATOM     19  H   UNL     1       3.431   1.641  20.624  0.00  0.00    +0.000 HD
ENDBRANCH   3  18
BRANCH   1  20
ATOM     20  O   UNL     1       6.573   4.478  17.934  0.00  0.00    +0.000 OA
BRANCH  20  21
ATOM     21  C   UNL     1       6.601   4.033  16.582  0.00  0.00    +0.000 C 
BRANCH  21  23
ATOM     22  O   UNL     1       7.364   6.275  16.047  0.00  0.00    +0.000 OA
ATOM     23  C   UNL     1       7.032   5.161  15.649  0.00  0.00    +0.000 C 
BRANCH  23  24
ATOM     24  C   UNL     1       7.093   4.873  14.184  0.00  0.00    +0.000 A 
ATOM     25  C   UNL     1       7.960   5.563  13.322  0.00  0.00    +0.000 A 
ATOM     26  C   UNL     1       7.939   5.311  11.947  0.00  0.00    +0.000 A 
ATOM     27  C   UNL     1       7.059   4.368  11.420  0.00  0.00    +0.000 A 
ATOM     28  C   UNL     1       6.206   3.663  12.279  0.00  0.00    +0.000 A 
ATOM     29  C   UNL     1       6.224   3.904  13.659  0.00  0.00    +0.000 A 
BRANCH  28  30
ATOM     30  N   UNL     1       5.271   2.677  11.723  0.00  0.00    +0.000 N 
ATOM     31  O   UNL     1       5.708   1.541  11.490  0.00  0.00    +0.000 OA
ATOM     32  O   UNL     1       4.105   3.040  11.517  0.00  0.00    +0.000 OA
ENDBRANCH  28  30
ENDBRANCH  23  24
ENDBRANCH  21  23
ENDBRANCH  20  21
ENDBRANCH   1  20
TORSDOF 7
ENDMDL
