MODEL 1
REMARK VINA RESULT:      -7.5      0.000      0.000
REMARK  Name = 
REMARK  0 active torsions:
REMARK  status: ('A' for Active; 'I' for Inactive)
REMARK                            x       y       z     vdW  Elec       q    Type
REMARK                         _______ _______ _______ _____ _____    ______ ____
ROOT
ATOM      1  O   UNL     1       2.849   8.929  17.020  0.00  0.00    +0.000 OA
ATOM      2  C   UNL     1       2.260   8.918  18.081  0.00  0.00    +0.000 C 
ATOM      3  N   UNL     1       1.537   9.996  18.534  0.00  0.00    +0.000 N 
ATOM      4  C   UNL     1       0.920   9.726  19.737  0.00  0.00    +0.000 A 
ATOM      5  C   UNL     1       0.103  10.617  20.415  0.00  0.00    +0.000 A 
ATOM      6  C   UNL     1      -0.465  10.189  21.606  0.00  0.00    +0.000 A 
ATOM      7  C   UNL     1      -0.203   8.897  22.074  0.00  0.00    +0.000 A 
ATOM      8  C   UNL     1       0.629   8.018  21.357  0.00  0.00    +0.000 A 
ATOM      9  C   UNL     1       1.216   8.425  20.170  0.00  0.00    +0.000 A 
ATOM     10  C   UNL     1       2.124   7.825  19.135  0.00  0.00    +0.000 C 
ATOM     11  C   UNL     1       2.739   6.619  19.052  0.00  0.00    +0.000 C 
ATOM     12  C   UNL     1       2.604   5.526  20.109  0.00  0.00    +0.000 C 
ATOM     13  O   UNL     1       2.019   5.516  21.171  0.00  0.00    +0.000 OA
ATOM     14  N   UNL     1       3.324   4.446  19.653  0.00  0.00    +0.000 N 
ATOM     15  C   UNL     1       3.940   4.717  18.449  0.00  0.00    +0.000 A 
ATOM     16  C   UNL     1       4.756   3.824  17.771  0.00  0.00    +0.000 A 
ATOM     17  C   UNL     1       5.324   4.253  16.580  0.00  0.00    +0.000 A 
ATOM     18  C   UNL     1       5.063   5.544  16.112  0.00  0.00    +0.000 A 
ATOM     19  C   UNL     1       4.232   6.424  16.829  0.00  0.00    +0.000 A 
ATOM     20  C   UNL     1       3.646   6.017  18.017  0.00  0.00    +0.000 A 
ATOM     21  H   UNL     1       1.463  10.854  18.010  0.00  0.00    +0.000 HD
ATOM     22  H   UNL     1       3.399   3.589  20.178  0.00  0.00    +0.000 HD
ENDROOT
TORSDOF 0
ENDMDL
MODEL 2
REMARK VINA RESULT:      -7.4      0.106      6.434
REMARK  Name = 
REMARK  0 active torsions:
REMARK  status: ('A' for Active; 'I' for Inactive)
REMARK                            x       y       z     vdW  Elec       q    Type
REMARK                         _______ _______ _______ _____ _____    ______ ____
ROOT
ATOM      1  O   UNL     1       1.854   5.478  21.183  0.00  0.00    +0.000 OA
ATOM      2  C   UNL     1       2.526   5.506  20.173  0.00  0.00    +0.000 C 
ATOM      3  N   UNL     1       3.307   4.446  19.777  0.00  0.00    +0.000 N 
ATOM      4  C   UNL     1       3.935   4.697  18.576  0.00  0.00    +0.000 A 
ATOM      5  C   UNL     1       4.761   3.796  17.922  0.00  0.00    +0.000 A 
ATOM      6  C   UNL     1       5.304   4.189  16.707  0.00  0.00    +0.000 A 
ATOM      7  C   UNL     1       5.005   5.454  16.190  0.00  0.00    +0.000 A 
ATOM      8  C   UNL     1       4.160   6.341  16.881  0.00  0.00    +0.000 A 
ATOM      9  C   UNL     1       3.612   5.977  18.101  0.00  0.00    +0.000 A 
ATOM     10  C   UNL     1       2.696   6.594  19.118  0.00  0.00    +0.000 C 
ATOM     11  C   UNL     1       2.106   7.813  19.191  0.00  0.00    +0.000 C 
ATOM     12  C   UNL     1       2.278   8.902  18.136  0.00  0.00    +0.000 C 
ATOM     13  O   UNL     1       2.954   8.931  17.129  0.00  0.00    +0.000 OA
ATOM     14  N   UNL     1       1.494   9.960  18.531  0.00  0.00    +0.000 N 
ATOM     15  C   UNL     1       0.864   9.708  19.731  0.00  0.00    +0.000 A 
ATOM     16  C   UNL     1       0.038  10.609  20.385  0.00  0.00    +0.000 A 
ATOM     17  C   UNL     1      -0.505  10.216  21.599  0.00  0.00    +0.000 A 
ATOM     18  C   UNL     1      -0.206   8.952  22.117  0.00  0.00    +0.000 A 
ATOM     19  C   UNL     1       0.639   8.065  21.427  0.00  0.00    +0.000 A 
ATOM     20  C   UNL     1       1.188   8.430  20.207  0.00  0.00    +0.000 A 
ATOM     21  H   UNL     1       3.363   3.591  20.308  0.00  0.00    +0.000 HD
ATOM     22  H   UNL     1       1.438  10.816  18.000  0.00  0.00    +0.000 HD
ENDROOT
TORSDOF 0
ENDMDL
MODEL 3
REMARK VINA RESULT:      -7.2      4.651      5.086
REMARK  Name = 
REMARK  0 active torsions:
REMARK  status: ('A' for Active; 'I' for Inactive)
REMARK                            x       y       z     vdW  Elec       q    Type
REMARK                         _______ _______ _______ _____ _____    ______ ____
ROOT
ATOM      1  O   UNL     1       2.483   2.974  16.008  0.00  0.00    +0.000 OA
ATOM      2  C   UNL     1       2.494   3.124  17.212  0.00  0.00    +0.000 C 
ATOM      3  N   UNL     1       1.423   2.789  18.007  0.00  0.00    +0.000 N 
ATOM      4  C   UNL     1       1.693   3.004  19.341  0.00  0.00    +0.000 A 
ATOM      5  C   UNL     1       0.809   2.729  20.372  0.00  0.00    +0.000 A 
ATOM      6  C   UNL     1       1.236   2.980  21.668  0.00  0.00    +0.000 A 
ATOM      7  C   UNL     1       2.519   3.490  21.889  0.00  0.00    +0.000 A 
ATOM      8  C   UNL     1       3.391   3.755  20.817  0.00  0.00    +0.000 A 
ATOM      9  C   UNL     1       2.985   3.522  19.513  0.00  0.00    +0.000 A 
ATOM     10  C   UNL     1       3.580   3.656  18.141  0.00  0.00    +0.000 C 
ATOM     11  C   UNL     1       4.777   4.124  17.709  0.00  0.00    +0.000 C 
ATOM     12  C   UNL     1       5.863   4.658  18.639  0.00  0.00    +0.000 C 
ATOM     13  O   UNL     1       5.873   4.812  19.843  0.00  0.00    +0.000 OA
ATOM     14  N   UNL     1       6.936   4.989  17.844  0.00  0.00    +0.000 N 
ATOM     15  C   UNL     1       6.666   4.772  16.509  0.00  0.00    +0.000 A 
ATOM     16  C   UNL     1       7.551   5.047  15.479  0.00  0.00    +0.000 A 
ATOM     17  C   UNL     1       7.124   4.796  14.183  0.00  0.00    +0.000 A 
ATOM     18  C   UNL     1       5.841   4.287  13.961  0.00  0.00    +0.000 A 
ATOM     19  C   UNL     1       4.968   4.022  15.032  0.00  0.00    +0.000 A 
ATOM     20  C   UNL     1       5.374   4.257  16.337  0.00  0.00    +0.000 A 
ATOM     21  H   UNL     1       0.571   2.405  17.628  0.00  0.00    +0.000 HD
ATOM     22  H   UNL     1       7.787   5.374  18.223  0.00  0.00    +0.000 HD
ENDROOT
TORSDOF 0
ENDMDL
MODEL 4
REMARK VINA RESULT:      -7.2      4.592      6.815
REMARK  Name = 
REMARK  0 active torsions:
REMARK  status: ('A' for Active; 'I' for Inactive)
REMARK                            x       y       z     vdW  Elec       q    Type
REMARK                         _______ _______ _______ _____ _____    ______ ____
ROOT
ATOM      1  O   UNL     1       5.916   4.849  19.798  0.00  0.00    +0.000 OA
ATOM      2  C   UNL     1       5.880   4.742  18.590  0.00  0.00    +0.000 C 
ATOM      3  N   UNL     1       6.910   5.161  17.781  0.00  0.00    +0.000 N 
ATOM      4  C   UNL     1       6.659   4.888  16.454  0.00  0.00    +0.000 A 
ATOM      5  C   UNL     1       7.534   5.173  15.417  0.00  0.00    +0.000 A 
ATOM      6  C   UNL     1       7.146   4.817  14.133  0.00  0.00    +0.000 A 
ATOM      7  C   UNL     1       5.911   4.193  13.930  0.00  0.00    +0.000 A 
ATOM      8  C   UNL     1       5.049   3.917  15.008  0.00  0.00    +0.000 A 
ATOM      9  C   UNL     1       5.409   4.271  16.298  0.00  0.00    +0.000 A 
ATOM     10  C   UNL     1       4.813   4.157  17.671  0.00  0.00    +0.000 C 
ATOM     11  C   UNL     1       3.623   3.676  18.111  0.00  0.00    +0.000 C 
ATOM     12  C   UNL     1       2.554   3.093  17.191  0.00  0.00    +0.000 C 
ATOM     13  O   UNL     1       2.516   2.990  15.982  0.00  0.00    +0.000 OA
ATOM     14  N   UNL     1       1.525   2.670  18.000  0.00  0.00    +0.000 N 
ATOM     15  C   UNL     1       1.778   2.942  19.328  0.00  0.00    +0.000 A 
ATOM     16  C   UNL     1       0.903   2.656  20.364  0.00  0.00    +0.000 A 
ATOM     17  C   UNL     1       1.291   3.011  21.648  0.00  0.00    +0.000 A 
ATOM     18  C   UNL     1       2.525   3.636  21.852  0.00  0.00    +0.000 A 
ATOM     19  C   UNL     1       3.387   3.913  20.775  0.00  0.00    +0.000 A 
ATOM     20  C   UNL     1       3.026   3.560  19.484  0.00  0.00    +0.000 A 
ATOM     21  H   UNL     1       7.748   5.583  18.152  0.00  0.00    +0.000 HD
ATOM     22  H   UNL     1       0.688   2.249  17.630  0.00  0.00    +0.000 HD
ENDROOT
TORSDOF 0
ENDMDL
MODEL 5
REMARK VINA RESULT:      -7.0      2.879      5.369
REMARK  Name = 
REMARK  0 active torsions:
REMARK  status: ('A' for Active; 'I' for Inactive)
REMARK                            x       y       z     vdW  Elec       q    Type
REMARK                         _______ _______ _______ _____ _____    ______ ____
ROOT
ATOM      1  O   UNL     1       0.150   9.045  22.828  0.00  0.00    +0.000 OA
ATOM      2  C   UNL     1      -0.474  10.030  22.495  0.00  0.00    +0.000 C 
ATOM      3  N   UNL     1      -1.284  10.719  23.367  0.00  0.00    +0.000 N 
ATOM      4  C   UNL     1      -1.846  11.828  22.771  0.00  0.00    +0.000 A 
ATOM      5  C   UNL     1      -2.682  12.725  23.418  0.00  0.00    +0.000 A 
ATOM      6  C   UNL     1      -3.152  13.807  22.687  0.00  0.00    +0.000 A 
ATOM      7  C   UNL     1      -2.772  13.958  21.350  0.00  0.00    +0.000 A 
ATOM      8  C   UNL     1      -1.919  13.029  20.727  0.00  0.00    +0.000 A 
ATOM      9  C   UNL     1      -1.444  11.935  21.432  0.00  0.00    +0.000 A 
ATOM     10  C   UNL     1      -0.547  10.762  21.159  0.00  0.00    +0.000 C 
ATOM     11  C   UNL     1       0.096  10.348  20.038  0.00  0.00    +0.000 C 
ATOM     12  C   UNL     1       0.022  11.078  18.701  0.00  0.00    +0.000 C 
ATOM     13  O   UNL     1      -0.606  12.062  18.367  0.00  0.00    +0.000 OA
ATOM     14  N   UNL     1       0.835  10.391  17.830  0.00  0.00    +0.000 N 
ATOM     15  C   UNL     1       1.398   9.283  18.427  0.00  0.00    +0.000 A 
ATOM     16  C   UNL     1       2.235   8.388  17.779  0.00  0.00    +0.000 A 
ATOM     17  C   UNL     1       2.704   7.306  18.510  0.00  0.00    +0.000 A 
ATOM     18  C   UNL     1       2.324   7.153  19.847  0.00  0.00    +0.000 A 
ATOM     19  C   UNL     1       1.470   8.081  20.471  0.00  0.00    +0.000 A 
ATOM     20  C   UNL     1       0.995   9.175  19.765  0.00  0.00    +0.000 A 
ATOM     21  H   UNL     1      -1.404  10.437  24.327  0.00  0.00    +0.000 HD
ATOM     22  H   UNL     1       0.954  10.673  16.869  0.00  0.00    +0.000 HD
ENDROOT
TORSDOF 0
ENDMDL
MODEL 6
REMARK VINA RESULT:      -7.0      3.132      5.044
REMARK  Name = 
REMARK  0 active torsions:
REMARK  status: ('A' for Active; 'I' for Inactive)
REMARK                            x       y       z     vdW  Elec       q    Type
REMARK                         _______ _______ _______ _____ _____    ______ ____
ROOT
ATOM      1  O   UNL     1      -0.890  11.920  18.211  0.00  0.00    +0.000 OA
ATOM      2  C   UNL     1      -1.294  12.129  19.336  0.00  0.00    +0.000 C 
ATOM      3  N   UNL     1      -2.148  13.164  19.633  0.00  0.00    +0.000 N 
ATOM      4  C   UNL     1      -2.504  13.165  20.965  0.00  0.00    +0.000 A 
ATOM      5  C   UNL     1      -3.376  14.076  21.541  0.00  0.00    +0.000 A 
ATOM      6  C   UNL     1      -3.653  13.932  22.893  0.00  0.00    +0.000 A 
ATOM      7  C   UNL     1      -3.058  12.893  23.616  0.00  0.00    +0.000 A 
ATOM      8  C   UNL     1      -2.180  11.986  22.996  0.00  0.00    +0.000 A 
ATOM      9  C   UNL     1      -1.880  12.113  21.650  0.00  0.00    +0.000 A 
ATOM     10  C   UNL     1      -1.035  11.386  20.643  0.00  0.00    +0.000 C 
ATOM     11  C   UNL     1      -0.202  10.322  20.751  0.00  0.00    +0.000 C 
ATOM     12  C   UNL     1       0.058   9.580  22.059  0.00  0.00    +0.000 C 
ATOM     13  O   UNL     1      -0.343   9.791  23.185  0.00  0.00    +0.000 OA
ATOM     14  N   UNL     1       0.910   8.542  21.761  0.00  0.00    +0.000 N 
ATOM     15  C   UNL     1       1.264   8.541  20.429  0.00  0.00    +0.000 A 
ATOM     16  C   UNL     1       2.135   7.629  19.853  0.00  0.00    +0.000 A 
ATOM     17  C   UNL     1       2.412   7.773  18.501  0.00  0.00    +0.000 A 
ATOM     18  C   UNL     1       1.818   8.812  17.778  0.00  0.00    +0.000 A 
ATOM     19  C   UNL     1       0.941   9.720  18.397  0.00  0.00    +0.000 A 
ATOM     20  C   UNL     1       0.642   9.593  19.744  0.00  0.00    +0.000 A 
ATOM     21  H   UNL     1      -2.480  13.807  18.930  0.00  0.00    +0.000 HD
ATOM     22  H   UNL     1       1.241   7.900  22.464  0.00  0.00    +0.000 HD
ENDROOT
TORSDOF 0
ENDMDL
MODEL 7
REMARK VINA RESULT:      -7.0      2.854      7.284
REMARK  Name = 
REMARK  0 active torsions:
REMARK  status: ('A' for Active; 'I' for Inactive)
REMARK                            x       y       z     vdW  Elec       q    Type
REMARK                         _______ _______ _______ _____ _____    ______ ____
ROOT
ATOM      1  O   UNL     1      -0.347  12.210  18.429  0.00  0.00    +0.000 OA
ATOM      2  C   UNL     1       0.167  11.149  18.718  0.00  0.00    +0.000 C 
ATOM      3  N   UNL     1       0.920  10.427  17.823  0.00  0.00    +0.000 N 
ATOM      4  C   UNL     1       1.437   9.285  18.398  0.00  0.00    +0.000 A 
ATOM      5  C   UNL     1       2.258   8.382  17.741  0.00  0.00    +0.000 A 
ATOM      6  C   UNL     1       2.717   7.289  18.463  0.00  0.00    +0.000 A 
ATOM      7  C   UNL     1       2.346   7.138  19.803  0.00  0.00    +0.000 A 
ATOM      8  C   UNL     1       1.513   8.078  20.438  0.00  0.00    +0.000 A 
ATOM      9  C   UNL     1       1.034   9.173  19.736  0.00  0.00    +0.000 A 
ATOM     10  C   UNL     1       0.164  10.362  20.024  0.00  0.00    +0.000 C 
ATOM     11  C   UNL     1      -0.515  10.747  21.133  0.00  0.00    +0.000 C 
ATOM     12  C   UNL     1      -0.519   9.958  22.440  0.00  0.00    +0.000 C 
ATOM     13  O   UNL     1      -0.009   8.895  22.727  0.00  0.00    +0.000 OA
ATOM     14  N   UNL     1      -1.269  10.683  23.336  0.00  0.00    +0.000 N 
ATOM     15  C   UNL     1      -1.785  11.826  22.761  0.00  0.00    +0.000 A 
ATOM     16  C   UNL     1      -2.605  12.730  23.419  0.00  0.00    +0.000 A 
ATOM     17  C   UNL     1      -3.063  13.822  22.697  0.00  0.00    +0.000 A 
ATOM     18  C   UNL     1      -2.694  13.973  21.356  0.00  0.00    +0.000 A 
ATOM     19  C   UNL     1      -1.862  13.033  20.721  0.00  0.00    +0.000 A 
ATOM     20  C   UNL     1      -1.384  11.938  21.423  0.00  0.00    +0.000 A 
ATOM     21  H   UNL     1       1.081  10.740  16.878  0.00  0.00    +0.000 HD
ATOM     22  H   UNL     1      -1.431  10.369  24.280  0.00  0.00    +0.000 HD
ENDROOT
TORSDOF 0
ENDMDL
MODEL 8
REMARK VINA RESULT:      -6.9      3.223      8.223
REMARK  Name = 
REMARK  0 active torsions:
REMARK  status: ('A' for Active; 'I' for Inactive)
REMARK                            x       y       z     vdW  Elec       q    Type
REMARK                         _______ _______ _______ _____ _____    ______ ____
ROOT
ATOM      1  O   UNL     1      -0.592   9.779  23.159  0.00  0.00    +0.000 OA
ATOM      2  C   UNL     1      -0.100   9.642  22.058  0.00  0.00    +0.000 C 
ATOM      3  N   UNL     1       0.807   8.648  21.774  0.00  0.00    +0.000 N 
ATOM      4  C   UNL     1       1.182   8.665  20.448  0.00  0.00    +0.000 A 
ATOM      5  C   UNL     1       2.062   7.762  19.872  0.00  0.00    +0.000 A 
ATOM      6  C   UNL     1       2.324   7.897  18.516  0.00  0.00    +0.000 A 
ATOM      7  C   UNL     1       1.704   8.917  17.788  0.00  0.00    +0.000 A 
ATOM      8  C   UNL     1       0.814   9.814  18.406  0.00  0.00    +0.000 A 
ATOM      9  C   UNL     1       0.542   9.707  19.760  0.00  0.00    +0.000 A 
ATOM     10  C   UNL     1      -0.313  10.423  20.766  0.00  0.00    +0.000 C 
ATOM     11  C   UNL     1      -1.117  11.511  20.668  0.00  0.00    +0.000 C 
ATOM     12  C   UNL     1      -1.328  12.294  19.375  0.00  0.00    +0.000 C 
ATOM     13  O   UNL     1      -0.833  12.159  18.275  0.00  0.00    +0.000 OA
ATOM     14  N   UNL     1      -2.238  13.285  19.658  0.00  0.00    +0.000 N 
ATOM     15  C   UNL     1      -2.615  13.266  20.985  0.00  0.00    +0.000 A 
ATOM     16  C   UNL     1      -3.495  14.169  21.560  0.00  0.00    +0.000 A 
ATOM     17  C   UNL     1      -3.758  14.034  22.916  0.00  0.00    +0.000 A 
ATOM     18  C   UNL     1      -3.137  13.015  23.645  0.00  0.00    +0.000 A 
ATOM     19  C   UNL     1      -2.246  12.118  23.027  0.00  0.00    +0.000 A 
ATOM     20  C   UNL     1      -1.974  12.227  21.672  0.00  0.00    +0.000 A 
ATOM     21  H   UNL     1       1.113   7.984  22.468  0.00  0.00    +0.000 HD
ATOM     22  H   UNL     1      -2.544  13.949  18.964  0.00  0.00    +0.000 HD
ENDROOT
TORSDOF 0
ENDMDL
MODEL 9
REMARK VINA RESULT:      -6.8      0.966      6.380
REMARK  Name = 
REMARK  0 active torsions:
REMARK  status: ('A' for Active; 'I' for Inactive)
REMARK                            x       y       z     vdW  Elec       q    Type
REMARK                         _______ _______ _______ _____ _____    ______ ____
ROOT
ATOM      1  O   UNL     1       1.151   6.640  21.512  0.00  0.00    +0.000 OA
ATOM      2  C   UNL     1       1.913   6.338  20.618  0.00  0.00    +0.000 C 
ATOM      3  N   UNL     1       2.601   5.147  20.606  0.00  0.00    +0.000 N 
ATOM      4  C   UNL     1       3.363   5.011  19.465  0.00  0.00    +0.000 A 
ATOM      5  C   UNL     1       4.138   3.900  19.170  0.00  0.00    +0.000 A 
ATOM      6  C   UNL     1       4.834   3.903  17.970  0.00  0.00    +0.000 A 
ATOM      7  C   UNL     1       4.732   5.003  17.112  0.00  0.00    +0.000 A 
ATOM      8  C   UNL     1       3.933   6.113  17.444  0.00  0.00    +0.000 A 
ATOM      9  C   UNL     1       3.236   6.138  18.641  0.00  0.00    +0.000 A 
ATOM     10  C   UNL     1       2.305   7.083  19.346  0.00  0.00    +0.000 C 
ATOM     11  C   UNL     1       1.854   8.322  19.031  0.00  0.00    +0.000 C 
ATOM     12  C   UNL     1       2.248   9.068  17.759  0.00  0.00    +0.000 C 
ATOM     13  O   UNL     1       3.014   8.768  16.867  0.00  0.00    +0.000 OA
ATOM     14  N   UNL     1       1.558  10.258  17.770  0.00  0.00    +0.000 N 
ATOM     15  C   UNL     1       0.793  10.392  18.910  0.00  0.00    +0.000 A 
ATOM     16  C   UNL     1       0.018  11.503  19.204  0.00  0.00    +0.000 A 
ATOM     17  C   UNL     1      -0.678  11.500  20.404  0.00  0.00    +0.000 A 
ATOM     18  C   UNL     1      -0.575  10.401  21.263  0.00  0.00    +0.000 A 
ATOM     19  C   UNL     1       0.224   9.292  20.932  0.00  0.00    +0.000 A 
ATOM     20  C   UNL     1       0.922   9.267  19.735  0.00  0.00    +0.000 A 
ATOM     21  H   UNL     1       2.509   4.465  21.342  0.00  0.00    +0.000 HD
ATOM     22  H   UNL     1       1.650  10.940  17.033  0.00  0.00    +0.000 HD
ENDROOT
TORSDOF 0
ENDMDL
