MODEL 1
REMARK VINA RESULT:      -7.6      0.000      0.000
REMARK  Name = 
REMARK  8 active torsions:
REMARK  status: ('A' for Active; 'I' for Inactive)
REMARK    1  A    between atoms: C_1  and  C_2
REMARK    2  A    between atoms: C_2  and  C_3
REMARK    3  A    between atoms: C_2  and  O_4
REMARK    4  A    between atoms: C_2  and  C_5
REMARK    5  A    between atoms: C_6  and  C_7
REMARK    6  A    between atoms: C_15  and  C_16
REMARK    7  A    between atoms: C_22  and  C_23
REMARK    8  A    between atoms: C_23  and  O_24
REMARK                            x       y       z     vdW  Elec       q    Type
REMARK                         _______ _______ _______ _____ _____    ______ ____
ROOT
ATOM      1  C   UNL     1       1.810   8.597  19.305  0.00  0.00    +0.000 A 
ATOM      2  C   UNL     1       1.245   8.047  20.449  0.00  0.00    +0.000 A 
ATOM      3  C   UNL     1       1.483   6.705  20.758  0.00  0.00    +0.000 A 
ATOM      4  C   UNL     1       2.265   5.887  19.922  0.00  0.00    +0.000 A 
ATOM      5  C   UNL     1       2.843   6.440  18.771  0.00  0.00    +0.000 A 
ATOM      6  C   UNL     1       2.602   7.800  18.478  0.00  0.00    +0.000 A 
ATOM      7  C   UNL     1       3.683   5.694  17.835  0.00  0.00    +0.000 A 
ATOM      8  N   UNL     1       4.675   6.175  17.104  0.00  0.00    +0.000 NA
ATOM      9  C   UNL     1       5.132   5.118  16.324  0.00  0.00    +0.000 A 
ATOM     10  C   UNL     1       4.379   3.991  16.584  0.00  0.00    +0.000 A 
ATOM     11  N   UNL     1       3.481   4.372  17.534  0.00  0.00    +0.000 N 
ATOM     12  C   UNL     1       2.448   3.557  18.131  0.00  0.00    +0.000 C 
ATOM     13  C   UNL     1       2.653   3.454  19.639  0.00  0.00    +0.000 C 
ATOM     14  O   UNL     1       2.373   4.623  20.420  0.00  0.00    +0.000 OA
ENDROOT
BRANCH   9  15
ATOM     15  C   UNL     1       6.240   5.222  15.379  0.00  0.00    +0.000 C 
ATOM     16  N   UNL     1       7.323   5.899  15.863  0.00  0.00    +0.000 N 
ATOM     17  O   UNL     1       6.229   4.746  14.248  0.00  0.00    +0.000 OA
ATOM     18  H   UNL     1       7.301   6.261  16.807  0.00  0.00    +0.000 HD
ATOM     19  H   UNL     1       8.140   6.002  15.282  0.00  0.00    +0.000 HD
ENDBRANCH   9  15
BRANCH   1  21
ATOM     20  C   UNL     1       1.459  11.150  18.757  0.00  0.00    +0.000 C 
ATOM     21  C   UNL     1       1.610   9.981  18.981  0.00  0.00    +0.000 C 
BRANCH  20  23
ATOM     22  C   UNL     1       1.824  13.396  19.713  0.00  0.00    +0.000 C 
ATOM     23  C   UNL     1       1.286  12.597  18.526  0.00  0.00    +0.000 C 
ATOM     24  C   UNL     1      -0.185  12.931  18.281  0.00  0.00    +0.000 C 
BRANCH  23  25
ATOM     25  O   UNL     1       2.028  12.962  17.364  0.00  0.00    +0.000 OA
ATOM     26  H   UNL     1       2.558  13.745  17.586  0.00  0.00    +0.000 HD
ENDBRANCH  23  25
ENDBRANCH  20  23
ENDBRANCH   1  21
BRANCH  13  27
ATOM     27  C   UNL     1       1.702   2.373  20.190  0.00  0.00    +0.000 C 
BRANCH  27  28
ATOM     28  O   UNL     1       0.775   2.930  21.127  0.00  0.00    +0.000 OA
ATOM     29  H   UNL     1       0.338   2.184  21.583  0.00  0.00    +0.000 HD
ENDBRANCH  27  28
ENDBRANCH  13  27
TORSDOF 6
ENDMDL
MODEL 2
REMARK VINA RESULT:      -7.3      0.908      1.115
REMARK  Name = 
REMARK  8 active torsions:
REMARK  status: ('A' for Active; 'I' for Inactive)
REMARK    1  A    between atoms: C_1  and  C_2
REMARK    2  A    between atoms: C_2  and  C_3
REMARK    3  A    between atoms: C_2  and  O_4
REMARK    4  A    between atoms: C_2  and  C_5
REMARK    5  A    between atoms: C_6  and  C_7
REMARK    6  A    between atoms: C_15  and  C_16
REMARK    7  A    between atoms: C_22  and  C_23
REMARK    8  A    between atoms: C_23  and  O_24
REMARK                            x       y       z     vdW  Elec       q    Type
REMARK                         _______ _______ _______ _____ _____    ______ ____
ROOT
ATOM      1  C   UNL     1       1.454   8.763  19.707  0.00  0.00    +0.000 A 
ATOM      2  C   UNL     1       0.919   8.175  20.847  0.00  0.00    +0.000 A 
ATOM      3  C   UNL     1       1.237   6.849  21.152  0.00  0.00    +0.000 A 
ATOM      4  C   UNL     1       2.070   6.082  20.318  0.00  0.00    +0.000 A 
ATOM      5  C   UNL     1       2.618   6.673  19.170  0.00  0.00    +0.000 A 
ATOM      6  C   UNL     1       2.296   8.017  18.881  0.00  0.00    +0.000 A 
ATOM      7  C   UNL     1       3.505   5.983  18.236  0.00  0.00    +0.000 A 
ATOM      8  N   UNL     1       4.469   6.525  17.511  0.00  0.00    +0.000 NA
ATOM      9  C   UNL     1       4.993   5.501  16.730  0.00  0.00    +0.000 A 
ATOM     10  C   UNL     1       4.308   4.329  16.983  0.00  0.00    +0.000 A 
ATOM     11  N   UNL     1       3.385   4.652  17.930  0.00  0.00    +0.000 N 
ATOM     12  C   UNL     1       2.401   3.774  18.519  0.00  0.00    +0.000 C 
ATOM     13  C   UNL     1       2.605   3.678  20.028  0.00  0.00    +0.000 C 
ATOM     14  O   UNL     1       2.252   4.826  20.811  0.00  0.00    +0.000 OA
ENDROOT
BRANCH   9  15
ATOM     15  C   UNL     1       6.097   5.675  15.789  0.00  0.00    +0.000 C 
ATOM     16  N   UNL     1       7.270   6.060  16.373  0.00  0.00    +0.000 N 
ATOM     17  O   UNL     1       6.008   5.490  14.580  0.00  0.00    +0.000 OA
ATOM     18  H   UNL     1       7.308   6.183  17.376  0.00  0.00    +0.000 HD
ATOM     19  H   UNL     1       8.088   6.185  15.798  0.00  0.00    +0.000 HD
ENDBRANCH   9  15
BRANCH   1  21
ATOM     20  C   UNL     1       0.963  11.292  19.160  0.00  0.00    +0.000 C 
ATOM     21  C   UNL     1       1.172  10.132  19.386  0.00  0.00    +0.000 C 
BRANCH  20  23
ATOM     22  C   UNL     1      -0.581  12.938  18.161  0.00  0.00    +0.000 C 
ATOM     23  C   UNL     1       0.729  12.729  18.920  0.00  0.00    +0.000 C 
ATOM     24  C   UNL     1       1.897  13.343  18.148  0.00  0.00    +0.000 C 
BRANCH  23  25
ATOM     25  O   UNL     1       0.629  13.389  20.181  0.00  0.00    +0.000 OA
ATOM     26  H   UNL     1       1.234  14.148  20.165  0.00  0.00    +0.000 HD
ENDBRANCH  23  25
ENDBRANCH  20  23
ENDBRANCH   1  21
BRANCH  13  27
ATOM     27  C   UNL     1       1.719   2.540  20.571  0.00  0.00    +0.000 C 
BRANCH  27  28
ATOM     28  O   UNL     1       1.593   2.619  21.994  0.00  0.00    +0.000 OA
ATOM     29  H   UNL     1       2.282   3.233  22.315  0.00  0.00    +0.000 HD
ENDBRANCH  27  28
ENDBRANCH  13  27
TORSDOF 6
ENDMDL
MODEL 3
REMARK VINA RESULT:      -7.2      1.041      1.103
REMARK  Name = 
REMARK  8 active torsions:
REMARK  status: ('A' for Active; 'I' for Inactive)
REMARK    1  A    between atoms: C_1  and  C_2
REMARK    2  A    between atoms: C_2  and  C_3
REMARK    3  A    between atoms: C_2  and  O_4
REMARK    4  A    between atoms: C_2  and  C_5
REMARK    5  A    between atoms: C_6  and  C_7
REMARK    6  A    between atoms: C_15  and  C_16
REMARK    7  A    between atoms: C_22  and  C_23
REMARK    8  A    between atoms: C_23  and  O_24
REMARK                            x       y       z     vdW  Elec       q    Type
REMARK                         _______ _______ _______ _____ _____    ______ ____
ROOT
ATOM      1  C   UNL     1       1.772   8.496  19.431  0.00  0.00    +0.000 A 
ATOM      2  C   UNL     1       1.171   7.866  20.514  0.00  0.00    +0.000 A 
ATOM      3  C   UNL     1       1.431   6.514  20.756  0.00  0.00    +0.000 A 
ATOM      4  C   UNL     1       2.271   5.766  19.913  0.00  0.00    +0.000 A 
ATOM      5  C   UNL     1       2.885   6.399  18.823  0.00  0.00    +0.000 A 
ATOM      6  C   UNL     1       2.621   7.767  18.597  0.00  0.00    +0.000 A 
ATOM      7  C   UNL     1       3.786   5.730  17.886  0.00  0.00    +0.000 A 
ATOM      8  N   UNL     1       4.797   6.276  17.231  0.00  0.00    +0.000 NA
ATOM      9  C   UNL     1       5.318   5.278  16.414  0.00  0.00    +0.000 A 
ATOM     10  C   UNL     1       4.584   4.120  16.574  0.00  0.00    +0.000 A 
ATOM     11  N   UNL     1       3.634   4.423  17.501  0.00  0.00    +0.000 N 
ATOM     12  C   UNL     1       2.597   3.549  18.001  0.00  0.00    +0.000 C 
ATOM     13  C   UNL     1       2.736   3.363  19.509  0.00  0.00    +0.000 C 
ATOM     14  O   UNL     1       2.391   4.478  20.341  0.00  0.00    +0.000 OA
ENDROOT
BRANCH   9  15
ATOM     15  C   UNL     1       6.464   5.464  15.529  0.00  0.00    +0.000 C 
ATOM     16  N   UNL     1       6.352   4.819  14.330  0.00  0.00    +0.000 N 
ATOM     17  O   UNL     1       7.448   6.142  15.808  0.00  0.00    +0.000 OA
ATOM     18  H   UNL     1       5.516   4.285  14.130  0.00  0.00    +0.000 HD
ATOM     19  H   UNL     1       7.091   4.909  13.652  0.00  0.00    +0.000 HD
ENDBRANCH   9  15
BRANCH   1  21
ATOM     20  C   UNL     1       1.313  11.046  18.957  0.00  0.00    +0.000 C 
ATOM     21  C   UNL     1       1.549   9.891  19.177  0.00  0.00    +0.000 C 
BRANCH  20  23
ATOM     22  C   UNL     1       2.168  13.171  18.037  0.00  0.00    +0.000 C 
ATOM     23  C   UNL     1       0.978  12.456  18.678  0.00  0.00    +0.000 C 
ATOM     24  C   UNL     1       0.553  13.172  19.960  0.00  0.00    +0.000 C 
BRANCH  23  25
ATOM     25  O   UNL     1      -0.114  12.490  17.762  0.00  0.00    +0.000 OA
ATOM     26  H   UNL     1      -0.674  13.248  17.998  0.00  0.00    +0.000 HD
ENDBRANCH  23  25
ENDBRANCH  20  23
ENDBRANCH   1  21
BRANCH  13  27
ATOM     27  C   UNL     1       1.791   2.230  19.952  0.00  0.00    +0.000 C 
BRANCH  27  28
ATOM     28  O   UNL     1       1.366   1.446  18.833  0.00  0.00    +0.000 OA
ATOM     29  H   UNL     1       2.069   0.792  18.651  0.00  0.00    +0.000 HD
ENDBRANCH  27  28
ENDBRANCH  13  27
TORSDOF 6
ENDMDL
MODEL 4
REMARK VINA RESULT:      -7.2      1.677      1.861
REMARK  Name = 
REMARK  8 active torsions:
REMARK  status: ('A' for Active; 'I' for Inactive)
REMARK    1  A    between atoms: C_1  and  C_2
REMARK    2  A    between atoms: C_2  and  C_3
REMARK    3  A    between atoms: C_2  and  O_4
REMARK    4  A    between atoms: C_2  and  C_5
REMARK    5  A    between atoms: C_6  and  C_7
REMARK    6  A    between atoms: C_15  and  C_16
REMARK    7  A    between atoms: C_22  and  C_23
REMARK    8  A    between atoms: C_23  and  O_24
REMARK                            x       y       z     vdW  Elec       q    Type
REMARK                         _______ _______ _______ _____ _____    ______ ____
ROOT
ATOM      1  C   UNL     1       1.754   7.555  20.034  0.00  0.00    +0.000 A 
ATOM      2  C   UNL     1       1.138   6.616  20.852  0.00  0.00    +0.000 A 
ATOM      3  C   UNL     1       1.543   5.280  20.795  0.00  0.00    +0.000 A 
ATOM      4  C   UNL     1       2.547   4.855  19.907  0.00  0.00    +0.000 A 
ATOM      5  C   UNL     1       3.177   5.800  19.085  0.00  0.00    +0.000 A 
ATOM      6  C   UNL     1       2.765   7.147  19.162  0.00  0.00    +0.000 A 
ATOM      7  C   UNL     1       4.241   5.481  18.134  0.00  0.00    +0.000 A 
ATOM      8  N   UNL     1       5.232   6.272  17.758  0.00  0.00    +0.000 NA
ATOM      9  C   UNL     1       5.950   5.568  16.797  0.00  0.00    +0.000 A 
ATOM     10  C   UNL     1       5.357   4.340  16.584  0.00  0.00    +0.000 A 
ATOM     11  N   UNL     1       4.292   4.305  17.432  0.00  0.00    +0.000 N 
ATOM     12  C   UNL     1       3.332   3.234  17.577  0.00  0.00    +0.000 C 
ATOM     13  C   UNL     1       3.350   2.690  19.002  0.00  0.00    +0.000 C 
ATOM     14  O   UNL     1       2.788   3.520  20.027  0.00  0.00    +0.000 OA
ENDROOT
BRANCH   9  15
ATOM     15  C   UNL     1       7.143   6.084  16.131  0.00  0.00    +0.000 C 
ATOM     16  N   UNL     1       7.489   5.399  15.001  0.00  0.00    +0.000 N 
ATOM     17  O   UNL     1       7.788   7.050  16.523  0.00  0.00    +0.000 OA
ATOM     18  H   UNL     1       6.920   4.619  14.700  0.00  0.00    +0.000 HD
ATOM     19  H   UNL     1       8.290   5.700  14.469  0.00  0.00    +0.000 HD
ENDBRANCH   9  15
BRANCH   1  21
ATOM     20  C   UNL     1       1.021  10.083  20.139  0.00  0.00    +0.000 C 
ATOM     21  C   UNL     1       1.382   8.939  20.096  0.00  0.00    +0.000 C 
BRANCH  20  23
ATOM     22  C   UNL     1      -0.994  11.507  20.169  0.00  0.00    +0.000 C 
ATOM     23  C   UNL     1       0.534  11.475  20.185  0.00  0.00    +0.000 C 
ATOM     24  C   UNL     1       1.097  12.280  19.013  0.00  0.00    +0.000 C 
BRANCH  23  25
ATOM     25  O   UNL     1       0.985  12.074  21.398  0.00  0.00    +0.000 OA
ATOM     26  H   UNL     1       1.488  11.404  21.888  0.00  0.00    +0.000 HD
ENDBRANCH  23  25
ENDBRANCH  20  23
ENDBRANCH   1  21
BRANCH  13  27
ATOM     27  C   UNL     1       2.518   1.393  19.041  0.00  0.00    +0.000 C 
BRANCH  27  28
ATOM     28  O   UNL     1       1.172   1.631  18.619  0.00  0.00    +0.000 OA
ATOM     29  H   UNL     1       1.134   2.540  18.263  0.00  0.00    +0.000 HD
ENDBRANCH  27  28
ENDBRANCH  13  27
TORSDOF 6
ENDMDL
MODEL 5
REMARK VINA RESULT:      -7.2      2.796      4.895
REMARK  Name = 
REMARK  8 active torsions:
REMARK  status: ('A' for Active; 'I' for Inactive)
REMARK    1  A    between atoms: C_1  and  C_2
REMARK    2  A    between atoms: C_2  and  C_3
REMARK    3  A    between atoms: C_2  and  O_4
REMARK    4  A    between atoms: C_2  and  C_5
REMARK    5  A    between atoms: C_6  and  C_7
REMARK    6  A    between atoms: C_15  and  C_16
REMARK    7  A    between atoms: C_22  and  C_23
REMARK    8  A    between atoms: C_23  and  O_24
REMARK                            x       y       z     vdW  Elec       q    Type
REMARK                         _______ _______ _______ _____ _____    ______ ____
ROOT
ATOM      1  C   UNL     1       1.215   9.469  19.582  0.00  0.00    +0.000 A 
ATOM      2  C   UNL     1       1.650   9.972  18.362  0.00  0.00    +0.000 A 
ATOM      3  C   UNL     1       2.420   9.165  17.519  0.00  0.00    +0.000 A 
ATOM      4  C   UNL     1       2.787   7.859  17.887  0.00  0.00    +0.000 A 
ATOM      5  C   UNL     1       2.344   7.344  19.114  0.00  0.00    +0.000 A 
ATOM      6  C   UNL     1       1.558   8.167  19.950  0.00  0.00    +0.000 A 
ATOM      7  C   UNL     1       2.649   5.999  19.598  0.00  0.00    +0.000 A 
ATOM      8  N   UNL     1       1.892   5.247  20.379  0.00  0.00    +0.000 NA
ATOM      9  C   UNL     1       2.618   4.086  20.626  0.00  0.00    +0.000 A 
ATOM     10  C   UNL     1       3.842   4.163  19.993  0.00  0.00    +0.000 A 
ATOM     11  N   UNL     1       3.840   5.366  19.353  0.00  0.00    +0.000 N 
ATOM     12  C   UNL     1       4.909   5.931  18.563  0.00  0.00    +0.000 C 
ATOM     13  C   UNL     1       4.442   6.175  17.130  0.00  0.00    +0.000 C 
ATOM     14  O   UNL     1       3.524   7.254  16.915  0.00  0.00    +0.000 OA
ENDROOT
BRANCH   9  15
ATOM     15  C   UNL     1       2.130   2.977  21.441  0.00  0.00    +0.000 C 
ATOM     16  N   UNL     1       0.791   2.743  21.319  0.00  0.00    +0.000 N 
ATOM     17  O   UNL     1       2.841   2.294  22.172  0.00  0.00    +0.000 OA
ATOM     18  H   UNL     1       0.242   3.316  20.691  0.00  0.00    +0.000 HD
ATOM     19  H   UNL     1       0.374   1.984  21.833  0.00  0.00    +0.000 HD
ENDBRANCH   9  15
BRANCH   1  21
ATOM     20  C   UNL     1      -0.259  10.967  21.170  0.00  0.00    +0.000 C 
ATOM     21  C   UNL     1       0.396  10.262  20.453  0.00  0.00    +0.000 C 
BRANCH  20  23
ATOM     22  C   UNL     1      -1.522  11.122  23.285  0.00  0.00    +0.000 C 
ATOM     23  C   UNL     1      -1.036  11.868  22.043  0.00  0.00    +0.000 C 
ATOM     24  C   UNL     1      -2.220  12.465  21.281  0.00  0.00    +0.000 C 
BRANCH  23  25
ATOM     25  O   UNL     1      -0.188  12.936  22.462  0.00  0.00    +0.000 OA
ATOM     26  H   UNL     1      -0.192  13.608  21.761  0.00  0.00    +0.000 HD
ENDBRANCH  23  25
ENDBRANCH  20  23
ENDBRANCH   1  21
BRANCH  13  27
ATOM     27  C   UNL     1       5.671   6.521  16.268  0.00  0.00    +0.000 C 
BRANCH  27  28
ATOM     28  O   UNL     1       6.603   7.325  16.996  0.00  0.00    +0.000 OA
ATOM     29  H   UNL     1       7.339   7.541  16.390  0.00  0.00    +0.000 HD
ENDBRANCH  27  28
ENDBRANCH  13  27
TORSDOF 6
ENDMDL
MODEL 6
REMARK VINA RESULT:      -7.0      1.666      1.848
REMARK  Name = 
REMARK  8 active torsions:
REMARK  status: ('A' for Active; 'I' for Inactive)
REMARK    1  A    between atoms: C_1  and  C_2
REMARK    2  A    between atoms: C_2  and  C_3
REMARK    3  A    between atoms: C_2  and  O_4
REMARK    4  A    between atoms: C_2  and  C_5
REMARK    5  A    between atoms: C_6  and  C_7
REMARK    6  A    between atoms: C_15  and  C_16
REMARK    7  A    between atoms: C_22  and  C_23
REMARK    8  A    between atoms: C_23  and  O_24
REMARK                            x       y       z     vdW  Elec       q    Type
REMARK                         _______ _______ _______ _____ _____    ______ ____
ROOT
ATOM      1  C   UNL     1       1.787   7.348  20.047  0.00  0.00    +0.000 A 
ATOM      2  C   UNL     1       1.233   6.375  20.869  0.00  0.00    +0.000 A 
ATOM      3  C   UNL     1       1.718   5.066  20.811  0.00  0.00    +0.000 A 
ATOM      4  C   UNL     1       2.743   4.702  19.919  0.00  0.00    +0.000 A 
ATOM      5  C   UNL     1       3.311   5.682  19.093  0.00  0.00    +0.000 A 
ATOM      6  C   UNL     1       2.817   7.002  19.171  0.00  0.00    +0.000 A 
ATOM      7  C   UNL     1       4.388   5.427  18.138  0.00  0.00    +0.000 A 
ATOM      8  N   UNL     1       5.327   6.277  17.757  0.00  0.00    +0.000 NA
ATOM      9  C   UNL     1       6.083   5.617  16.794  0.00  0.00    +0.000 A 
ATOM     10  C   UNL     1       5.565   4.355  16.584  0.00  0.00    +0.000 A 
ATOM     11  N   UNL     1       4.508   4.256  17.437  0.00  0.00    +0.000 N 
ATOM     12  C   UNL     1       3.616   3.129  17.587  0.00  0.00    +0.000 C 
ATOM     13  C   UNL     1       3.673   2.589  19.013  0.00  0.00    +0.000 C 
ATOM     14  O   UNL     1       3.065   3.384  20.040  0.00  0.00    +0.000 OA
ENDROOT
BRANCH   9  15
ATOM     15  C   UNL     1       7.239   6.204  16.121  0.00  0.00    +0.000 C 
ATOM     16  N   UNL     1       7.751   7.302  16.752  0.00  0.00    +0.000 N 
ATOM     17  O   UNL     1       7.731   5.765  15.088  0.00  0.00    +0.000 OA
ATOM     18  H   UNL     1       7.328   7.622  17.613  0.00  0.00    +0.000 HD
ATOM     19  H   UNL     1       8.561   7.759  16.365  0.00  0.00    +0.000 HD
ENDBRANCH   9  15
BRANCH   1  21
ATOM     20  C   UNL     1       0.913   9.832  20.125  0.00  0.00    +0.000 C 
ATOM     21  C   UNL     1       1.331   8.708  20.108  0.00  0.00    +0.000 C 
BRANCH  20  23
ATOM     22  C   UNL     1       1.387  12.179  19.524  0.00  0.00    +0.000 C 
ATOM     23  C   UNL     1       0.368  11.203  20.113  0.00  0.00    +0.000 C 
ATOM     24  C   UNL     1      -0.030  11.635  21.524  0.00  0.00    +0.000 C 
BRANCH  23  25
ATOM     25  O   UNL     1      -0.799  11.220  19.293  0.00  0.00    +0.000 OA
ATOM     26  H   UNL     1      -1.119  10.307  19.217  0.00  0.00    +0.000 HD
ENDBRANCH  23  25
ENDBRANCH  20  23
ENDBRANCH   1  21
BRANCH  13  27
ATOM     27  C   UNL     1       2.922   1.243  19.057  0.00  0.00    +0.000 C 
BRANCH  27  28
ATOM     28  O   UNL     1       1.515   1.432  18.881  0.00  0.00    +0.000 OA
ATOM     29  H   UNL     1       1.176   1.872  19.686  0.00  0.00    +0.000 HD
ENDBRANCH  27  28
ENDBRANCH  13  27
TORSDOF 6
ENDMDL
MODEL 7
REMARK VINA RESULT:      -7.0      7.728     11.081
REMARK  Name = 
REMARK  8 active torsions:
REMARK  status: ('A' for Active; 'I' for Inactive)
REMARK    1  A    between atoms: C_1  and  C_2
REMARK    2  A    between atoms: C_2  and  C_3
REMARK    3  A    between atoms: C_2  and  O_4
REMARK    4  A    between atoms: C_2  and  C_5
REMARK    5  A    between atoms: C_6  and  C_7
REMARK    6  A    between atoms: C_15  and  C_16
REMARK    7  A    between atoms: C_22  and  C_23
REMARK    8  A    between atoms: C_23  and  O_24
REMARK                            x       y       z     vdW  Elec       q    Type
REMARK                         _______ _______ _______ _____ _____    ______ ____
ROOT
ATOM      1  C   UNL     1       9.159  10.326  18.650  0.00  0.00    +0.000 A 
ATOM      2  C   UNL     1      10.098  10.986  17.867  0.00  0.00    +0.000 A 
ATOM      3  C   UNL     1      10.713  12.142  18.355  0.00  0.00    +0.000 A 
ATOM      4  C   UNL     1      10.388  12.670  19.617  0.00  0.00    +0.000 A 
ATOM      5  C   UNL     1       9.447  12.004  20.415  0.00  0.00    +0.000 A 
ATOM      6  C   UNL     1       8.841  10.832  19.912  0.00  0.00    +0.000 A 
ATOM      7  C   UNL     1       9.038  12.448  21.746  0.00  0.00    +0.000 A 
ATOM      8  N   UNL     1       8.645  11.684  22.751  0.00  0.00    +0.000 NA
ATOM      9  C   UNL     1       8.295  12.547  23.784  0.00  0.00    +0.000 A 
ATOM     10  C   UNL     1       8.464  13.853  23.373  0.00  0.00    +0.000 A 
ATOM     11  N   UNL     1       8.932  13.769  22.097  0.00  0.00    +0.000 N 
ATOM     12  C   UNL     1       9.249  14.868  21.213  0.00  0.00    +0.000 C 
ATOM     13  C   UNL     1      10.719  14.820  20.807  0.00  0.00    +0.000 C 
ATOM     14  O   UNL     1      11.113  13.789  19.893  0.00  0.00    +0.000 OA
ENDROOT
BRANCH   9  15
ATOM     15  C   UNL     1       7.819  12.103  25.091  0.00  0.00    +0.000 C 
ATOM     16  N   UNL     1       8.513  12.627  26.144  0.00  0.00    +0.000 N 
ATOM     17  O   UNL     1       6.876  11.336  25.257  0.00  0.00    +0.000 OA
ATOM     18  H   UNL     1       9.272  13.271  25.967  0.00  0.00    +0.000 HD
ATOM     19  H   UNL     1       8.238  12.387  27.083  0.00  0.00    +0.000 HD
ENDBRANCH   9  15
BRANCH   1  21
ATOM     20  C   UNL     1       7.975   8.119  17.836  0.00  0.00    +0.000 C 
ATOM     21  C   UNL     1       8.536   9.119  18.189  0.00  0.00    +0.000 C 
BRANCH  20  23
ATOM     22  C   UNL     1       5.753   7.171  17.332  0.00  0.00    +0.000 C 
ATOM     23  C   UNL     1       7.253   6.896  17.435  0.00  0.00    +0.000 C 
ATOM     24  C   UNL     1       7.521   5.763  18.426  0.00  0.00    +0.000 C 
BRANCH  23  25
ATOM     25  O   UNL     1       7.726   6.491  16.151  0.00  0.00    +0.000 OA
ATOM     26  H   UNL     1       8.142   5.620  16.252  0.00  0.00    +0.000 HD
ENDBRANCH  23  25
ENDBRANCH  20  23
ENDBRANCH   1  21
BRANCH  13  27
ATOM     27  C   UNL     1      11.072  16.140  20.094  0.00  0.00    +0.000 C 
BRANCH  27  28
ATOM     28  O   UNL     1      10.383  16.252  18.845  0.00  0.00    +0.000 OA
ATOM     29  H   UNL     1      10.513  15.412  18.363  0.00  0.00    +0.000 HD
ENDBRANCH  27  28
ENDBRANCH  13  27
TORSDOF 6
ENDMDL
MODEL 8
REMARK VINA RESULT:      -6.7      4.202      7.702
REMARK  Name = 
REMARK  8 active torsions:
REMARK  status: ('A' for Active; 'I' for Inactive)
REMARK    1  A    between atoms: C_1  and  C_2
REMARK    2  A    between atoms: C_2  and  C_3
REMARK    3  A    between atoms: C_2  and  O_4
REMARK    4  A    between atoms: C_2  and  C_5
REMARK    5  A    between atoms: C_6  and  C_7
REMARK    6  A    between atoms: C_15  and  C_16
REMARK    7  A    between atoms: C_22  and  C_23
REMARK    8  A    between atoms: C_23  and  O_24
REMARK                            x       y       z     vdW  Elec       q    Type
REMARK                         _______ _______ _______ _____ _____    ______ ____
ROOT
ATOM      1  C   UNL     1       2.306   7.960  18.756  0.00  0.00    +0.000 A 
ATOM      2  C   UNL     1       2.390   7.820  20.136  0.00  0.00    +0.000 A 
ATOM      3  C   UNL     1       1.426   8.422  20.949  0.00  0.00    +0.000 A 
ATOM      4  C   UNL     1       0.382   9.191  20.405  0.00  0.00    +0.000 A 
ATOM      5  C   UNL     1       0.290   9.330  19.013  0.00  0.00    +0.000 A 
ATOM      6  C   UNL     1       1.264   8.707  18.204  0.00  0.00    +0.000 A 
ATOM      7  C   UNL     1      -0.756  10.092  18.332  0.00  0.00    +0.000 A 
ATOM      8  N   UNL     1      -1.261   9.849  17.134  0.00  0.00    +0.000 NA
ATOM      9  C   UNL     1      -2.173  10.868  16.881  0.00  0.00    +0.000 A 
ATOM     10  C   UNL     1      -2.192  11.747  17.946  0.00  0.00    +0.000 A 
ATOM     11  N   UNL     1      -1.301  11.240  18.843  0.00  0.00    +0.000 N 
ATOM     12  C   UNL     1      -0.939  11.808  20.122  0.00  0.00    +0.000 C 
ATOM     13  C   UNL     1      -1.270  10.836  21.251  0.00  0.00    +0.000 C 
ATOM     14  O   UNL     1      -0.443   9.671  21.376  0.00  0.00    +0.000 OA
ENDROOT
BRANCH   9  15
ATOM     15  C   UNL     1      -2.968  10.967  15.660  0.00  0.00    +0.000 C 
ATOM     16  N   UNL     1      -4.115  11.694  15.800  0.00  0.00    +0.000 N 
ATOM     17  O   UNL     1      -2.652  10.459  14.589  0.00  0.00    +0.000 OA
ATOM     18  H   UNL     1      -4.331  12.113  16.696  0.00  0.00    +0.000 HD
ATOM     19  H   UNL     1      -4.714  11.828  15.002  0.00  0.00    +0.000 HD
ENDBRANCH   9  15
BRANCH   1  21
ATOM     20  C   UNL     1       4.093   6.790  17.215  0.00  0.00    +0.000 C 
ATOM     21  C   UNL     1       3.262   7.326  17.895  0.00  0.00    +0.000 C 
BRANCH  20  23
ATOM     22  C   UNL     1       4.825   4.642  16.244  0.00  0.00    +0.000 C 
ATOM     23  C   UNL     1       5.143   6.127  16.416  0.00  0.00    +0.000 C 
ATOM     24  C   UNL     1       6.511   6.308  17.072  0.00  0.00    +0.000 C 
BRANCH  23  25
ATOM     25  O   UNL     1       5.180   6.732  15.125  0.00  0.00    +0.000 OA
ATOM     26  H   UNL     1       4.493   6.312  14.583  0.00  0.00    +0.000 HD
ENDBRANCH  23  25
ENDBRANCH  20  23
ENDBRANCH   1  21
BRANCH  13  27
ATOM     27  C   UNL     1      -1.120  11.576  22.594  0.00  0.00    +0.000 C 
BRANCH  27  28
ATOM     28  O   UNL     1      -0.406  10.780  23.545  0.00  0.00    +0.000 OA
ATOM     29  H   UNL     1      -0.724  11.033  24.434  0.00  0.00    +0.000 HD
ENDBRANCH  27  28
ENDBRANCH  13  27
TORSDOF 6
ENDMDL
MODEL 9
REMARK VINA RESULT:      -6.5      7.376     11.297
REMARK  Name = 
REMARK  8 active torsions:
REMARK  status: ('A' for Active; 'I' for Inactive)
REMARK    1  A    between atoms: C_1  and  C_2
REMARK    2  A    between atoms: C_2  and  C_3
REMARK    3  A    between atoms: C_2  and  O_4
REMARK    4  A    between atoms: C_2  and  C_5
REMARK    5  A    between atoms: C_6  and  C_7
REMARK    6  A    between atoms: C_15  and  C_16
REMARK    7  A    between atoms: C_22  and  C_23
REMARK    8  A    between atoms: C_23  and  O_24
REMARK                            x       y       z     vdW  Elec       q    Type
REMARK                         _______ _______ _______ _____ _____    ______ ____
ROOT
ATOM      1  C   UNL     1       9.233  10.685  18.262  0.00  0.00    +0.000 A 
ATOM      2  C   UNL     1      10.601  10.756  18.491  0.00  0.00    +0.000 A 
ATOM      3  C   UNL     1      11.194  11.994  18.750  0.00  0.00    +0.000 A 
ATOM      4  C   UNL     1      10.441  13.181  18.760  0.00  0.00    +0.000 A 
ATOM      5  C   UNL     1       9.058  13.115  18.536  0.00  0.00    +0.000 A 
ATOM      6  C   UNL     1       8.472  11.855  18.286  0.00  0.00    +0.000 A 
ATOM      7  C   UNL     1       8.170  14.276  18.534  0.00  0.00    +0.000 A 
ATOM      8  N   UNL     1       6.896  14.300  18.887  0.00  0.00    +0.000 NA
ATOM      9  C   UNL     1       6.452  15.599  18.660  0.00  0.00    +0.000 A 
ATOM     10  C   UNL     1       7.483  16.355  18.139  0.00  0.00    +0.000 A 
ATOM     11  N   UNL     1       8.548  15.510  18.072  0.00  0.00    +0.000 N 
ATOM     12  C   UNL     1       9.869  15.816  17.573  0.00  0.00    +0.000 C 
ATOM     13  C   UNL     1      10.914  15.614  18.667  0.00  0.00    +0.000 C 
ATOM     14  O   UNL     1      11.217  14.264  19.043  0.00  0.00    +0.000 OA
ENDROOT
BRANCH   9  15
ATOM     15  C   UNL     1       5.093  16.056  18.936  0.00  0.00    +0.000 C 
ATOM     16  N   UNL     1       4.346  15.174  19.663  0.00  0.00    +0.000 N 
ATOM     17  O   UNL     1       4.640  17.135  18.566  0.00  0.00    +0.000 OA
ATOM     18  H   UNL     1       4.761  14.303  19.966  0.00  0.00    +0.000 HD
ATOM     19  H   UNL     1       3.401  15.419  19.914  0.00  0.00    +0.000 HD
ENDBRANCH   9  15
BRANCH   1  21
ATOM     20  C   UNL     1       8.011   8.394  17.820  0.00  0.00    +0.000 C 
ATOM     21  C   UNL     1       8.592   9.423  18.026  0.00  0.00    +0.000 C 
BRANCH  20  23
ATOM     22  C   UNL     1       5.763   7.448  17.446  0.00  0.00    +0.000 C 
ATOM     23  C   UNL     1       7.258   7.152  17.561  0.00  0.00    +0.000 C 
ATOM     24  C   UNL     1       7.516   6.126  18.665  0.00  0.00    +0.000 C 
BRANCH  23  25
ATOM     25  O   UNL     1       7.704   6.600  16.324  0.00  0.00    +0.000 OA
ATOM     26  H   UNL     1       8.673   6.542  16.359  0.00  0.00    +0.000 HD
ENDBRANCH  23  25
ENDBRANCH  20  23
ENDBRANCH   1  21
BRANCH  13  27
ATOM     27  C   UNL     1      12.253  16.200  18.179  0.00  0.00    +0.000 C 
BRANCH  27  28
ATOM     28  O   UNL     1      12.333  16.186  16.751  0.00  0.00    +0.000 OA
ATOM     29  H   UNL     1      12.933  15.457  16.499  0.00  0.00    +0.000 HD
ENDBRANCH  27  28
ENDBRANCH  13  27
TORSDOF 6
ENDMDL
