MODEL 1
REMARK VINA RESULT:      -6.8      0.000      0.000
REMARK  Name = 
REMARK  8 active torsions:
REMARK  status: ('A' for Active; 'I' for Inactive)
REMARK    1  A    between atoms: C_1  and  O_2
REMARK    2  A    between atoms: O_2  and  C_3
REMARK    3  A    between atoms: C_3  and  C_4
REMARK    4  A    between atoms: C_4  and  N_5
REMARK    5  A    between atoms: C_8  and  C_9
REMARK    6  A    between atoms: N_15  and  C_16
REMARK    7  A    between atoms: C_20  and  O_21
REMARK    8  A    between atoms: O_21  and  C_22
REMARK                            x       y       z     vdW  Elec       q    Type
REMARK                         _______ _______ _______ _____ _____    ______ ____
ROOT
ATOM      1  N   UNL     1      -1.173  10.868  19.442  0.00  0.00    +0.000 N 
ATOM      2  C   UNL     1      -2.075  11.910  19.593  0.00  0.00    +0.000 A 
ATOM      3  O   UNL     1      -2.664  12.477  18.684  0.00  0.00    +0.000 OA
ATOM      4  C   UNL     1      -2.297  12.396  21.026  0.00  0.00    +0.000 A 
ATOM      5  C   UNL     1      -3.262  13.529  21.240  0.00  0.00    +0.000 C 
ATOM      6  N   UNL     1      -1.668  11.899  22.056  0.00  0.00    +0.000 NA
ATOM      7  C   UNL     1      -0.756  10.863  21.810  0.00  0.00    +0.000 A 
ATOM      8  C   UNL     1      -0.005  10.310  22.828  0.00  0.00    +0.000 A 
ATOM      9  N   UNL     1       0.908   9.323  22.660  0.00  0.00    +0.000 NA
ATOM     10  C   UNL     1       1.044   8.844  21.418  0.00  0.00    +0.000 A 
ATOM     11  N   UNL     1       1.967   7.823  21.206  0.00  0.00    +0.000 N 
ATOM     12  N   UNL     1       0.378   9.331  20.363  0.00  0.00    +0.000 NA
ATOM     13  C   UNL     1      -0.500  10.329  20.563  0.00  0.00    +0.000 A 
ATOM     14  H   UNL     1       2.549   7.656  22.012  0.00  0.00    +0.000 HD
ENDROOT
BRANCH  11  15
ATOM     15  C   UNL     1       1.927   6.823  20.222  0.00  0.00    +0.000 A 
ATOM     16  C   UNL     1       2.463   7.024  18.943  0.00  0.00    +0.000 A 
ATOM     17  C   UNL     1       2.513   5.987  18.011  0.00  0.00    +0.000 A 
ATOM     18  C   UNL     1       2.016   4.733  18.350  0.00  0.00    +0.000 A 
ATOM     19  C   UNL     1       1.454   4.515  19.610  0.00  0.00    +0.000 A 
ATOM     20  C   UNL     1       1.403   5.563  20.535  0.00  0.00    +0.000 A 
BRANCH  19  21
ATOM     21  O   UNL     1       1.010   3.237  19.820  0.00  0.00    +0.000 OA
ATOM     22  C   UNL     1       1.187   2.319  18.748  0.00  0.00    +0.000 C 
ENDBRANCH  19  21
ENDBRANCH  11  15
BRANCH   1  23
ATOM     23  C   UNL     1      -0.847  10.364  18.106  0.00  0.00    +0.000 C 
BRANCH  23  24
ATOM     24  C   UNL     1      -2.029   9.750  17.351  0.00  0.00    +0.000 C 
BRANCH  24  26
ATOM     25  C   UNL     1      -3.517  10.765  15.846  0.00  0.00    +0.000 C 
ATOM     26  O   UNL     1      -2.175  10.349  16.060  0.00  0.00    +0.000 OA
ENDBRANCH  24  26
ENDBRANCH  23  24
ENDBRANCH   1  23
TORSDOF 5
ENDMDL
MODEL 2
REMARK VINA RESULT:      -6.2      2.221      3.252
REMARK  Name = 
REMARK  8 active torsions:
REMARK  status: ('A' for Active; 'I' for Inactive)
REMARK    1  A    between atoms: C_1  and  O_2
REMARK    2  A    between atoms: O_2  and  C_3
REMARK    3  A    between atoms: C_3  and  C_4
REMARK    4  A    between atoms: C_4  and  N_5
REMARK    5  A    between atoms: C_8  and  C_9
REMARK    6  A    between atoms: N_15  and  C_16
REMARK    7  A    between atoms: C_20  and  O_21
REMARK    8  A    between atoms: O_21  and  C_22
REMARK                            x       y       z     vdW  Elec       q    Type
REMARK                         _______ _______ _______ _____ _____    ______ ____
ROOT
ATOM      1  N   UNL     1      -3.677  11.015  18.338  0.00  0.00    +0.000 N 
ATOM      2  C   UNL     1      -4.991  11.448  18.426  0.00  0.00    +0.000 A 
ATOM      3  O   UNL     1      -5.922  11.033  17.752  0.00  0.00    +0.000 OA
ATOM      4  C   UNL     1      -5.257  12.571  19.430  0.00  0.00    +0.000 A 
ATOM      5  C   UNL     1      -6.666  13.078  19.556  0.00  0.00    +0.000 C 
ATOM      6  N   UNL     1      -4.320  13.124  20.150  0.00  0.00    +0.000 NA
ATOM      7  C   UNL     1      -3.014  12.641  19.980  0.00  0.00    +0.000 A 
ATOM      8  C   UNL     1      -1.948  13.199  20.659  0.00  0.00    +0.000 A 
ATOM      9  N   UNL     1      -0.660  12.797  20.529  0.00  0.00    +0.000 NA
ATOM     10  C   UNL     1      -0.440  11.763  19.710  0.00  0.00    +0.000 A 
ATOM     11  N   UNL     1       0.869  11.315  19.557  0.00  0.00    +0.000 N 
ATOM     12  N   UNL     1      -1.404  11.171  18.992  0.00  0.00    +0.000 NA
ATOM     13  C   UNL     1      -2.667  11.615  19.126  0.00  0.00    +0.000 A 
ATOM     14  H   UNL     1       1.541  11.934  19.982  0.00  0.00    +0.000 HD
ENDROOT
BRANCH  11  15
ATOM     15  C   UNL     1       1.300  10.016  19.242  0.00  0.00    +0.000 A 
ATOM     16  C   UNL     1       1.860   9.705  17.996  0.00  0.00    +0.000 A 
ATOM     17  C   UNL     1       2.380   8.437  17.735  0.00  0.00    +0.000 A 
ATOM     18  C   UNL     1       2.338   7.460  18.724  0.00  0.00    +0.000 A 
ATOM     19  C   UNL     1       1.763   7.739  19.966  0.00  0.00    +0.000 A 
ATOM     20  C   UNL     1       1.237   9.011  20.215  0.00  0.00    +0.000 A 
BRANCH  19  21
ATOM     21  O   UNL     1       1.792   6.696  20.852  0.00  0.00    +0.000 OA
ATOM     22  C   UNL     1       1.901   5.392  20.295  0.00  0.00    +0.000 C 
ENDBRANCH  19  21
ENDBRANCH  11  15
BRANCH   1  23
ATOM     23  C   UNL     1      -3.305   9.982  17.369  0.00  0.00    +0.000 C 
BRANCH  23  24
ATOM     24  C   UNL     1      -3.042  10.502  15.953  0.00  0.00    +0.000 C 
BRANCH  24  26
ATOM     25  C   UNL     1      -3.479  10.048  13.692  0.00  0.00    +0.000 C 
ATOM     26  O   UNL     1      -3.287   9.482  14.982  0.00  0.00    +0.000 OA
ENDBRANCH  24  26
ENDBRANCH  23  24
ENDBRANCH   1  23
TORSDOF 5
ENDMDL
MODEL 3
REMARK VINA RESULT:      -6.0      1.908      2.369
REMARK  Name = 
REMARK  8 active torsions:
REMARK  status: ('A' for Active; 'I' for Inactive)
REMARK    1  A    between atoms: C_1  and  O_2
REMARK    2  A    between atoms: O_2  and  C_3
REMARK    3  A    between atoms: C_3  and  C_4
REMARK    4  A    between atoms: C_4  and  N_5
REMARK    5  A    between atoms: C_8  and  C_9
REMARK    6  A    between atoms: N_15  and  C_16
REMARK    7  A    between atoms: C_20  and  O_21
REMARK    8  A    between atoms: O_21  and  C_22
REMARK                            x       y       z     vdW  Elec       q    Type
REMARK                         _______ _______ _______ _____ _____    ______ ____
ROOT
ATOM      1  N   UNL     1      -0.017  11.769  19.635  0.00  0.00    +0.000 N 
ATOM      2  C   UNL     1      -0.748  12.945  19.697  0.00  0.00    +0.000 A 
ATOM      3  O   UNL     1      -0.814  13.788  18.814  0.00  0.00    +0.000 OA
ATOM      4  C   UNL     1      -1.489  13.201  21.011  0.00  0.00    +0.000 A 
ATOM      5  C   UNL     1      -2.290  14.467  21.128  0.00  0.00    +0.000 C 
ATOM      6  N   UNL     1      -1.429  12.394  22.035  0.00  0.00    +0.000 NA
ATOM      7  C   UNL     1      -0.647  11.238  21.894  0.00  0.00    +0.000 A 
ATOM      8  C   UNL     1      -0.481  10.351  22.939  0.00  0.00    +0.000 A 
ATOM      9  N   UNL     1       0.274   9.227  22.880  0.00  0.00    +0.000 NA
ATOM     10  C   UNL     1       0.857   8.964  21.705  0.00  0.00    +0.000 A 
ATOM     11  N   UNL     1       1.635   7.814  21.603  0.00  0.00    +0.000 N 
ATOM     12  N   UNL     1       0.773   9.774  20.642  0.00  0.00    +0.000 NA
ATOM     13  C   UNL     1       0.037  10.895  20.745  0.00  0.00    +0.000 A 
ATOM     14  H   UNL     1       1.792   7.374  22.496  0.00  0.00    +0.000 HD
ENDROOT
BRANCH  11  15
ATOM     15  C   UNL     1       1.881   7.045  20.454  0.00  0.00    +0.000 A 
ATOM     16  C   UNL     1       2.276   7.631  19.244  0.00  0.00    +0.000 A 
ATOM     17  C   UNL     1       2.620   6.848  18.142  0.00  0.00    +0.000 A 
ATOM     18  C   UNL     1       2.564   5.462  18.239  0.00  0.00    +0.000 A 
ATOM     19  C   UNL     1       2.150   4.855  19.427  0.00  0.00    +0.000 A 
ATOM     20  C   UNL     1       1.801   5.649  20.524  0.00  0.00    +0.000 A 
BRANCH  19  21
ATOM     21  O   UNL     1       2.148   3.486  19.394  0.00  0.00    +0.000 OA
ATOM     22  C   UNL     1       1.314   2.876  18.417  0.00  0.00    +0.000 C 
ENDBRANCH  19  21
ENDBRANCH  11  15
BRANCH   1  23
ATOM     23  C   UNL     1       0.772  11.454  18.442  0.00  0.00    +0.000 C 
BRANCH  23  24
ATOM     24  C   UNL     1       2.189  12.033  18.445  0.00  0.00    +0.000 C 
BRANCH  24  26
ATOM     25  C   UNL     1       2.830  14.287  18.594  0.00  0.00    +0.000 C 
ATOM     26  O   UNL     1       2.225  13.295  17.774  0.00  0.00    +0.000 OA
ENDBRANCH  24  26
ENDBRANCH  23  24
ENDBRANCH   1  23
TORSDOF 5
ENDMDL
MODEL 4
REMARK VINA RESULT:      -6.0      1.152      1.256
REMARK  Name = 
REMARK  8 active torsions:
REMARK  status: ('A' for Active; 'I' for Inactive)
REMARK    1  A    between atoms: C_1  and  O_2
REMARK    2  A    between atoms: O_2  and  C_3
REMARK    3  A    between atoms: C_3  and  C_4
REMARK    4  A    between atoms: C_4  and  N_5
REMARK    5  A    between atoms: C_8  and  C_9
REMARK    6  A    between atoms: N_15  and  C_16
REMARK    7  A    between atoms: C_20  and  O_21
REMARK    8  A    between atoms: O_21  and  C_22
REMARK                            x       y       z     vdW  Elec       q    Type
REMARK                         _______ _______ _______ _____ _____    ______ ____
ROOT
ATOM      1  N   UNL     1      -0.865  11.677  20.262  0.00  0.00    +0.000 N 
ATOM      2  C   UNL     1      -1.764  12.692  20.547  0.00  0.00    +0.000 A 
ATOM      3  O   UNL     1      -2.131  13.557  19.764  0.00  0.00    +0.000 OA
ATOM      4  C   UNL     1      -2.292  12.733  21.982  0.00  0.00    +0.000 A 
ATOM      5  C   UNL     1      -3.265  13.820  22.340  0.00  0.00    +0.000 C 
ATOM      6  N   UNL     1      -1.912  11.894  22.907  0.00  0.00    +0.000 NA
ATOM      7  C   UNL     1      -0.981  10.913  22.538  0.00  0.00    +0.000 A 
ATOM      8  C   UNL     1      -0.480  10.014  23.460  0.00  0.00    +0.000 A 
ATOM      9  N   UNL     1       0.434   9.055  23.179  0.00  0.00    +0.000 NA
ATOM     10  C   UNL     1       0.835   8.970  21.905  0.00  0.00    +0.000 A 
ATOM     11  N   UNL     1       1.768   7.991  21.575  0.00  0.00    +0.000 N 
ATOM     12  N   UNL     1       0.424   9.810  20.946  0.00  0.00    +0.000 NA
ATOM     13  C   UNL     1      -0.464  10.767  21.267  0.00  0.00    +0.000 A 
ATOM     14  H   UNL     1       2.156   7.538  22.388  0.00  0.00    +0.000 HD
ENDROOT
BRANCH  11  15
ATOM     15  C   UNL     1       1.934   7.347  20.339  0.00  0.00    +0.000 A 
ATOM     16  C   UNL     1       2.107   8.067  19.149  0.00  0.00    +0.000 A 
ATOM     17  C   UNL     1       2.377   7.415  17.945  0.00  0.00    +0.000 A 
ATOM     18  C   UNL     1       2.469   6.028  17.920  0.00  0.00    +0.000 A 
ATOM     19  C   UNL     1       2.277   5.288  19.088  0.00  0.00    +0.000 A 
ATOM     20  C   UNL     1       2.000   5.950  20.289  0.00  0.00    +0.000 A 
BRANCH  19  21
ATOM     21  O   UNL     1       2.403   3.933  18.930  0.00  0.00    +0.000 OA
ATOM     22  C   UNL     1       3.718   3.401  19.040  0.00  0.00    +0.000 C 
ENDBRANCH  19  21
ENDBRANCH  11  15
BRANCH   1  23
ATOM     23  C   UNL     1      -0.259  11.581  18.932  0.00  0.00    +0.000 C 
BRANCH  23  24
ATOM     24  C   UNL     1      -1.035  10.712  17.939  0.00  0.00    +0.000 C 
BRANCH  24  26
ATOM     25  C   UNL     1      -2.716  10.685  16.301  0.00  0.00    +0.000 C 
ATOM     26  O   UNL     1      -2.035  11.479  17.264  0.00  0.00    +0.000 OA
ENDBRANCH  24  26
ENDBRANCH  23  24
ENDBRANCH   1  23
TORSDOF 5
ENDMDL
MODEL 5
REMARK VINA RESULT:      -6.0      1.864      2.735
REMARK  Name = 
REMARK  8 active torsions:
REMARK  status: ('A' for Active; 'I' for Inactive)
REMARK    1  A    between atoms: C_1  and  O_2
REMARK    2  A    between atoms: O_2  and  C_3
REMARK    3  A    between atoms: C_3  and  C_4
REMARK    4  A    between atoms: C_4  and  N_5
REMARK    5  A    between atoms: C_8  and  C_9
REMARK    6  A    between atoms: N_15  and  C_16
REMARK    7  A    between atoms: C_20  and  O_21
REMARK    8  A    between atoms: O_21  and  C_22
REMARK                            x       y       z     vdW  Elec       q    Type
REMARK                         _______ _______ _______ _____ _____    ______ ____
ROOT
ATOM      1  N   UNL     1      -3.270  12.126  19.723  0.00  0.00    +0.000 N 
ATOM      2  C   UNL     1      -4.513  12.685  19.970  0.00  0.00    +0.000 A 
ATOM      3  O   UNL     1      -5.344  12.974  19.121  0.00  0.00    +0.000 OA
ATOM      4  C   UNL     1      -4.826  12.993  21.435  0.00  0.00    +0.000 A 
ATOM      5  C   UNL     1      -6.161  13.606  21.752  0.00  0.00    +0.000 C 
ATOM      6  N   UNL     1      -3.981  12.781  22.407  0.00  0.00    +0.000 NA
ATOM      7  C   UNL     1      -2.736  12.235  22.065  0.00  0.00    +0.000 A 
ATOM      8  C   UNL     1      -1.758  12.023  23.017  0.00  0.00    +0.000 A 
ATOM      9  N   UNL     1      -0.528  11.519  22.755  0.00  0.00    +0.000 NA
ATOM     10  C   UNL     1      -0.284  11.175  21.485  0.00  0.00    +0.000 A 
ATOM     11  N   UNL     1       0.966  10.645  21.178  0.00  0.00    +0.000 N 
ATOM     12  N   UNL     1      -1.160  11.363  20.489  0.00  0.00    +0.000 NA
ATOM     13  C   UNL     1      -2.361  11.892  20.782  0.00  0.00    +0.000 A 
ATOM     14  H   UNL     1       1.615  10.719  21.945  0.00  0.00    +0.000 HD
ENDROOT
BRANCH  11  15
ATOM     15  C   UNL     1       1.287   9.749  20.146  0.00  0.00    +0.000 A 
ATOM     16  C   UNL     1       1.353  10.157  18.807  0.00  0.00    +0.000 A 
ATOM     17  C   UNL     1       1.776   9.281  17.807  0.00  0.00    +0.000 A 
ATOM     18  C   UNL     1       2.132   7.979  18.138  0.00  0.00    +0.000 A 
ATOM     19  C   UNL     1       2.051   7.542  19.462  0.00  0.00    +0.000 A 
ATOM     20  C   UNL     1       1.619   8.425  20.457  0.00  0.00    +0.000 A 
BRANCH  19  21
ATOM     21  O   UNL     1       2.439   6.243  19.657  0.00  0.00    +0.000 OA
ATOM     22  C   UNL     1       2.804   5.509  18.494  0.00  0.00    +0.000 C 
ENDBRANCH  19  21
ENDBRANCH  11  15
BRANCH   1  23
ATOM     23  C   UNL     1      -2.849  11.842  18.349  0.00  0.00    +0.000 C 
BRANCH  23  24
ATOM     24  C   UNL     1      -3.454  10.572  17.747  0.00  0.00    +0.000 C 
BRANCH  24  26
ATOM     25  C   UNL     1      -3.179  10.809  15.428  0.00  0.00    +0.000 C 
ATOM     26  O   UNL     1      -4.105  10.857  16.505  0.00  0.00    +0.000 OA
ENDBRANCH  24  26
ENDBRANCH  23  24
ENDBRANCH   1  23
TORSDOF 5
ENDMDL
MODEL 6
REMARK VINA RESULT:      -5.9      1.741      2.201
REMARK  Name = 
REMARK  8 active torsions:
REMARK  status: ('A' for Active; 'I' for Inactive)
REMARK    1  A    between atoms: C_1  and  O_2
REMARK    2  A    between atoms: O_2  and  C_3
REMARK    3  A    between atoms: C_3  and  C_4
REMARK    4  A    between atoms: C_4  and  N_5
REMARK    5  A    between atoms: C_8  and  C_9
REMARK    6  A    between atoms: N_15  and  C_16
REMARK    7  A    between atoms: C_20  and  O_21
REMARK    8  A    between atoms: O_21  and  C_22
REMARK                            x       y       z     vdW  Elec       q    Type
REMARK                         _______ _______ _______ _____ _____    ______ ____
ROOT
ATOM      1  N   UNL     1      -1.166  11.526  20.263  0.00  0.00    +0.000 N 
ATOM      2  C   UNL     1      -2.127  12.476  20.572  0.00  0.00    +0.000 A 
ATOM      3  O   UNL     1      -2.611  13.277  19.786  0.00  0.00    +0.000 OA
ATOM      4  C   UNL     1      -2.566  12.529  22.036  0.00  0.00    +0.000 A 
ATOM      5  C   UNL     1      -3.601  13.548  22.420  0.00  0.00    +0.000 C 
ATOM      6  N   UNL     1      -2.061  11.760  22.963  0.00  0.00    +0.000 NA
ATOM      7  C   UNL     1      -1.077  10.844  22.567  0.00  0.00    +0.000 A 
ATOM      8  C   UNL     1      -0.448  10.024  23.484  0.00  0.00    +0.000 A 
ATOM      9  N   UNL     1       0.524   9.132  23.177  0.00  0.00    +0.000 NA
ATOM     10  C   UNL     1       0.851   9.030  21.884  0.00  0.00    +0.000 A 
ATOM     11  N   UNL     1       1.840   8.118  21.527  0.00  0.00    +0.000 N 
ATOM     12  N   UNL     1       0.314   9.796  20.925  0.00  0.00    +0.000 NA
ATOM     13  C   UNL     1      -0.629  10.691  21.271  0.00  0.00    +0.000 A 
ATOM     14  H   UNL     1       2.313   7.729  22.327  0.00  0.00    +0.000 HD
ENDROOT
BRANCH  11  15
ATOM     15  C   UNL     1       1.982   7.442  20.305  0.00  0.00    +0.000 A 
ATOM     16  C   UNL     1       2.145   8.130  19.095  0.00  0.00    +0.000 A 
ATOM     17  C   UNL     1       2.391   7.446  17.904  0.00  0.00    +0.000 A 
ATOM     18  C   UNL     1       2.469   6.058  17.912  0.00  0.00    +0.000 A 
ATOM     19  C   UNL     1       2.286   5.349  19.101  0.00  0.00    +0.000 A 
ATOM     20  C   UNL     1       2.032   6.043  20.288  0.00  0.00    +0.000 A 
BRANCH  19  21
ATOM     21  O   UNL     1       2.396   3.989  18.974  0.00  0.00    +0.000 OA
ATOM     22  C   UNL     1       3.705   3.445  19.095  0.00  0.00    +0.000 C 
ENDBRANCH  19  21
ENDBRANCH  11  15
BRANCH   1  23
ATOM     23  C   UNL     1      -0.637  11.428  18.901  0.00  0.00    +0.000 C 
BRANCH  23  24
ATOM     24  C   UNL     1       0.386  12.506  18.536  0.00  0.00    +0.000 C 
BRANCH  24  26
ATOM     25  C   UNL     1       2.667  12.971  18.232  0.00  0.00    +0.000 C 
ATOM     26  O   UNL     1       1.721  12.023  18.710  0.00  0.00    +0.000 OA
ENDBRANCH  24  26
ENDBRANCH  23  24
ENDBRANCH   1  23
TORSDOF 5
ENDMDL
MODEL 7
REMARK VINA RESULT:      -5.9      3.743      8.286
REMARK  Name = 
REMARK  8 active torsions:
REMARK  status: ('A' for Active; 'I' for Inactive)
REMARK    1  A    between atoms: C_1  and  O_2
REMARK    2  A    between atoms: O_2  and  C_3
REMARK    3  A    between atoms: C_3  and  C_4
REMARK    4  A    between atoms: C_4  and  N_5
REMARK    5  A    between atoms: C_8  and  C_9
REMARK    6  A    between atoms: N_15  and  C_16
REMARK    7  A    between atoms: C_20  and  O_21
REMARK    8  A    between atoms: O_21  and  C_22
REMARK                            x       y       z     vdW  Elec       q    Type
REMARK                         _______ _______ _______ _____ _____    ______ ____
ROOT
ATOM      1  N   UNL     1      -1.225  11.548  19.478  0.00  0.00    +0.000 N 
ATOM      2  C   UNL     1       0.042  10.987  19.470  0.00  0.00    +0.000 A 
ATOM      3  O   UNL     1       0.945  11.261  20.246  0.00  0.00    +0.000 OA
ATOM      4  C   UNL     1       0.315   9.974  18.357  0.00  0.00    +0.000 A 
ATOM      5  C   UNL     1       1.677   9.343  18.303  0.00  0.00    +0.000 C 
ATOM      6  N   UNL     1      -0.563   9.662  17.442  0.00  0.00    +0.000 NA
ATOM      7  C   UNL     1      -1.812  10.296  17.512  0.00  0.00    +0.000 A 
ATOM      8  C   UNL     1      -2.786  10.070  16.559  0.00  0.00    +0.000 A 
ATOM      9  N   UNL     1      -4.005  10.661  16.552  0.00  0.00    +0.000 NA
ATOM     10  C   UNL     1      -4.271  11.487  17.571  0.00  0.00    +0.000 A 
ATOM     11  N   UNL     1      -5.517  12.107  17.604  0.00  0.00    +0.000 N 
ATOM     12  N   UNL     1      -3.384  11.786  18.529  0.00  0.00    +0.000 NA
ATOM     13  C   UNL     1      -2.174  11.201  18.488  0.00  0.00    +0.000 A 
ATOM     14  H   UNL     1      -6.039  11.971  16.752  0.00  0.00    +0.000 HD
ENDROOT
BRANCH  11  15
ATOM     15  C   UNL     1      -6.231  12.538  18.734  0.00  0.00    +0.000 A 
ATOM     16  C   UNL     1      -6.751  13.835  18.828  0.00  0.00    +0.000 A 
ATOM     17  C   UNL     1      -7.548  14.216  19.908  0.00  0.00    +0.000 A 
ATOM     18  C   UNL     1      -7.827  13.297  20.914  0.00  0.00    +0.000 A 
ATOM     19  C   UNL     1      -7.300  12.006  20.855  0.00  0.00    +0.000 A 
ATOM     20  C   UNL     1      -6.496  11.635  19.771  0.00  0.00    +0.000 A 
BRANCH  19  21
ATOM     21  O   UNL     1      -7.656  11.197  21.901  0.00  0.00    +0.000 OA
ATOM     22  C   UNL     1      -7.913  11.843  23.142  0.00  0.00    +0.000 C 
ENDBRANCH  19  21
ENDBRANCH  11  15
BRANCH   1  23
ATOM     23  C   UNL     1      -1.572  12.570  20.469  0.00  0.00    +0.000 C 
BRANCH  23  24
ATOM     24  C   UNL     1      -1.113  13.986  20.112  0.00  0.00    +0.000 C 
BRANCH  24  26
ATOM     25  C   UNL     1      -0.356  13.905  22.332  0.00  0.00    +0.000 C 
ATOM     26  O   UNL     1      -0.129  14.451  21.039  0.00  0.00    +0.000 OA
ENDBRANCH  24  26
ENDBRANCH  23  24
ENDBRANCH   1  23
TORSDOF 5
ENDMDL
MODEL 8
REMARK VINA RESULT:      -5.8      2.945      4.416
REMARK  Name = 
REMARK  8 active torsions:
REMARK  status: ('A' for Active; 'I' for Inactive)
REMARK    1  A    between atoms: C_1  and  O_2
REMARK    2  A    between atoms: O_2  and  C_3
REMARK    3  A    between atoms: C_3  and  C_4
REMARK    4  A    between atoms: C_4  and  N_5
REMARK    5  A    between atoms: C_8  and  C_9
REMARK    6  A    between atoms: N_15  and  C_16
REMARK    7  A    between atoms: C_20  and  O_21
REMARK    8  A    between atoms: O_21  and  C_22
REMARK                            x       y       z     vdW  Elec       q    Type
REMARK                         _______ _______ _______ _____ _____    ______ ____
ROOT
ATOM      1  N   UNL     1      -4.120  11.998  18.467  0.00  0.00    +0.000 N 
ATOM      2  C   UNL     1      -5.391  12.338  18.033  0.00  0.00    +0.000 A 
ATOM      3  O   UNL     1      -5.805  12.224  16.889  0.00  0.00    +0.000 OA
ATOM      4  C   UNL     1      -6.317  12.943  19.090  0.00  0.00    +0.000 A 
ATOM      5  C   UNL     1      -7.704  13.334  18.665  0.00  0.00    +0.000 C 
ATOM      6  N   UNL     1      -5.948  13.164  20.322  0.00  0.00    +0.000 NA
ATOM      7  C   UNL     1      -4.635  12.812  20.670  0.00  0.00    +0.000 A 
ATOM      8  C   UNL     1      -4.137  13.055  21.935  0.00  0.00    +0.000 A 
ATOM      9  N   UNL     1      -2.876  12.760  22.334  0.00  0.00    +0.000 NA
ATOM     10  C   UNL     1      -2.093  12.158  21.431  0.00  0.00    +0.000 A 
ATOM     11  N   UNL     1      -0.793  11.832  21.806  0.00  0.00    +0.000 N 
ATOM     12  N   UNL     1      -2.478  11.902  20.174  0.00  0.00    +0.000 NA
ATOM     13  C   UNL     1      -3.728  12.233  19.806  0.00  0.00    +0.000 A 
ATOM     14  H   UNL     1      -0.536  12.230  22.696  0.00  0.00    +0.000 HD
ENDROOT
BRANCH  11  15
ATOM     15  C   UNL     1       0.003  10.784  21.316  0.00  0.00    +0.000 A 
ATOM     16  C   UNL     1       0.290   9.651  22.089  0.00  0.00    +0.000 A 
ATOM     17  C   UNL     1       0.993   8.572  21.553  0.00  0.00    +0.000 A 
ATOM     18  C   UNL     1       1.424   8.620  20.232  0.00  0.00    +0.000 A 
ATOM     19  C   UNL     1       1.171   9.748  19.449  0.00  0.00    +0.000 A 
ATOM     20  C   UNL     1       0.472  10.828  19.998  0.00  0.00    +0.000 A 
BRANCH  19  21
ATOM     21  O   UNL     1       1.640   9.665  18.165  0.00  0.00    +0.000 OA
ATOM     22  C   UNL     1       2.360   8.486  17.827  0.00  0.00    +0.000 C 
ENDBRANCH  19  21
ENDBRANCH  11  15
BRANCH   1  23
ATOM     23  C   UNL     1      -3.137  11.462  17.522  0.00  0.00    +0.000 C 
BRANCH  23  24
ATOM     24  C   UNL     1      -3.308   9.974  17.202  0.00  0.00    +0.000 C 
BRANCH  24  26
ATOM     25  C   UNL     1      -3.342  10.229  14.869  0.00  0.00    +0.000 C 
ATOM     26  O   UNL     1      -2.662   9.641  15.971  0.00  0.00    +0.000 OA
ENDBRANCH  24  26
ENDBRANCH  23  24
ENDBRANCH   1  23
TORSDOF 5
ENDMDL
MODEL 9
REMARK VINA RESULT:      -5.8      3.707      8.242
REMARK  Name = 
REMARK  8 active torsions:
REMARK  status: ('A' for Active; 'I' for Inactive)
REMARK    1  A    between atoms: C_1  and  O_2
REMARK    2  A    between atoms: O_2  and  C_3
REMARK    3  A    between atoms: C_3  and  C_4
REMARK    4  A    between atoms: C_4  and  N_5
REMARK    5  A    between atoms: C_8  and  C_9
REMARK    6  A    between atoms: N_15  and  C_16
REMARK    7  A    between atoms: C_20  and  O_21
REMARK    8  A    between atoms: O_21  and  C_22
REMARK                            x       y       z     vdW  Elec       q    Type
REMARK                         _______ _______ _______ _____ _____    ______ ____
ROOT
ATOM      1  N   UNL     1      -0.825  11.687  19.292  0.00  0.00    +0.000 N 
ATOM      2  C   UNL     1       0.404  11.067  19.133  0.00  0.00    +0.000 A 
ATOM      3  O   UNL     1       1.435  11.373  19.712  0.00  0.00    +0.000 OA
ATOM      4  C   UNL     1       0.449   9.933  18.107  0.00  0.00    +0.000 A 
ATOM      5  C   UNL     1       1.762   9.234  17.894  0.00  0.00    +0.000 C 
ATOM      6  N   UNL     1      -0.582   9.573  17.392  0.00  0.00    +0.000 NA
ATOM      7  C   UNL     1      -1.780  10.271  17.601  0.00  0.00    +0.000 A 
ATOM      8  C   UNL     1      -2.910   9.998  16.855  0.00  0.00    +0.000 A 
ATOM      9  N   UNL     1      -4.093  10.644  16.989  0.00  0.00    +0.000 NA
ATOM     10  C   UNL     1      -4.154  11.582  17.942  0.00  0.00    +0.000 A 
ATOM     11  N   UNL     1      -5.356  12.262  18.116  0.00  0.00    +0.000 N 
ATOM     12  N   UNL     1      -3.107  11.933  18.699  0.00  0.00    +0.000 NA
ATOM     13  C   UNL     1      -1.940  11.288  18.520  0.00  0.00    +0.000 A 
ATOM     14  H   UNL     1      -6.020  12.066  17.384  0.00  0.00    +0.000 HD
ENDROOT
BRANCH  11  15
ATOM     15  C   UNL     1      -5.851  12.840  19.296  0.00  0.00    +0.000 A 
ATOM     16  C   UNL     1      -6.140  14.208  19.383  0.00  0.00    +0.000 A 
ATOM     17  C   UNL     1      -6.730  14.749  20.525  0.00  0.00    +0.000 A 
ATOM     18  C   UNL     1      -7.032  13.922  21.601  0.00  0.00    +0.000 A 
ATOM     19  C   UNL     1      -6.730  12.559  21.548  0.00  0.00    +0.000 A 
ATOM     20  C   UNL     1      -6.132  12.027  20.400  0.00  0.00    +0.000 A 
BRANCH  19  21
ATOM     21  O   UNL     1      -7.085  11.854  22.667  0.00  0.00    +0.000 OA
ATOM     22  C   UNL     1      -7.213  12.599  23.872  0.00  0.00    +0.000 C 
ENDBRANCH  19  21
ENDBRANCH  11  15
BRANCH   1  23
ATOM     23  C   UNL     1      -0.965  12.820  20.210  0.00  0.00    +0.000 C 
BRANCH  23  24
ATOM     24  C   UNL     1      -1.303  12.434  21.652  0.00  0.00    +0.000 C 
BRANCH  24  26
ATOM     25  C   UNL     1      -1.176  10.718  23.249  0.00  0.00    +0.000 C 
ATOM     26  O   UNL     1      -1.107  11.034  21.864  0.00  0.00    +0.000 OA
ENDBRANCH  24  26
ENDBRANCH  23  24
ENDBRANCH   1  23
TORSDOF 5
ENDMDL
