MODEL 1
REMARK VINA RESULT:      -8.2      0.000      0.000
REMARK  Name = 
REMARK  9 active torsions:
REMARK  status: ('A' for Active; 'I' for Inactive)
REMARK    1  A    between atoms: C_1  and  C_2
REMARK    2  A    between atoms: C_2  and  N_3
REMARK    3  A    between atoms: C_2  and  C_12
REMARK    4  A    between atoms: C_4  and  C_6
REMARK    5  A    between atoms: C_10  and  O_11
REMARK    6  A    between atoms: C_15  and  C_16
REMARK    7  A    between atoms: C_19  and  C_20
REMARK    8  A    between atoms: C_20  and  C_21
REMARK    9  A    between atoms: C_21  and  C_22
REMARK                            x       y       z     vdW  Elec       q    Type
REMARK                         _______ _______ _______ _____ _____    ______ ____
ROOT
ATOM      1  C   UNL     1       6.571   5.560  17.423  0.00  0.00    +0.000 A 
ATOM      2  C   UNL     1       6.131   6.728  16.783  0.00  0.00    +0.000 A 
ATOM      3  C   UNL     1       6.706   7.970  17.075  0.00  0.00    +0.000 A 
ATOM      4  C   UNL     1       7.743   8.070  18.008  0.00  0.00    +0.000 A 
ATOM      5  C   UNL     1       8.189   6.904  18.646  0.00  0.00    +0.000 A 
ATOM      6  C   UNL     1       7.616   5.662  18.354  0.00  0.00    +0.000 A 
ENDROOT
BRANCH   4   7
ATOM      7  C   UNL     1       8.381   9.348  18.294  0.00  0.00    +0.000 A 
ATOM      8  N   UNL     1       8.272  10.441  17.519  0.00  0.00    +0.000 NA
ATOM      9  O   UNL     1       9.104  11.371  18.139  0.00  0.00    +0.000 OA
ATOM     10  C   UNL     1       9.629  10.751  19.231  0.00  0.00    +0.000 A 
ATOM     11  N   UNL     1       9.206   9.519  19.386  0.00  0.00    +0.000 NA
BRANCH  10  12
ATOM     12  C   UNL     1      10.651  11.490  20.003  0.00  0.00    +0.000 C 
BRANCH  12  13
ATOM     13  C   UNL     1      11.972  11.598  19.229  0.00  0.00    +0.000 C 
BRANCH  13  14
ATOM     14  C   UNL     1      12.278  13.015  18.730  0.00  0.00    +0.000 C 
ATOM     15  C   UNL     1      11.941  13.231  17.258  0.00  0.00    +0.000 C 
ATOM     16  C   UNL     1      11.927  14.744  17.113  0.00  0.00    +0.000 C 
ATOM     17  C   UNL     1      11.482  15.286  18.470  0.00  0.00    +0.000 C 
ATOM     18  C   UNL     1      11.444  14.092  19.423  0.00  0.00    +0.000 C 
ENDBRANCH  13  14
ENDBRANCH  12  13
ENDBRANCH  10  12
ENDBRANCH   4   7
BRANCH   1  20
ATOM     19  C   UNL     1       5.849   4.016  15.511  0.00  0.00    +0.000 C 
ATOM     20  C   UNL     1       5.952   4.231  17.025  0.00  0.00    +0.000 C 
BRANCH  20  21
ATOM     21  N   UNL     1       4.646   4.107  17.651  0.00  0.00    +0.000 N 
ATOM     22  C   UNL     1       4.476   3.569  18.907  0.00  0.00    +0.000 C 
ATOM     23  O   UNL     1       5.411   3.189  19.609  0.00  0.00    +0.000 OA
ATOM     24  H   UNL     1       3.847   4.529  17.187  0.00  0.00    +0.000 HD
BRANCH  22  25
ATOM     25  C   UNL     1       3.006   3.464  19.343  0.00  0.00    +0.000 C 
ATOM     26  N   UNL     1       2.880   2.830  20.678  0.00  0.00    +0.000 NA
ATOM     27  C   UNL     1       1.778   3.492  21.381  0.00  0.00    +0.000 C 
ATOM     28  C   UNL     1       1.230   4.569  20.461  0.00  0.00    +0.000 C 
ATOM     29  C   UNL     1       2.359   4.836  19.484  0.00  0.00    +0.000 C 
ATOM     30  H   UNL     1       3.761   2.991  21.180  0.00  0.00    +0.000 HD
BRANCH  29  31
ATOM     31  O   UNL     1       1.864   5.329  18.240  0.00  0.00    +0.000 OA
ATOM     32  H   UNL     1       1.256   4.670  17.867  0.00  0.00    +0.000 HD
ENDBRANCH  29  31
ENDBRANCH  22  25
ENDBRANCH  20  21
ENDBRANCH   1  20
TORSDOF 8
ENDMDL
MODEL 2
REMARK VINA RESULT:      -8.1      6.455      9.484
REMARK  Name = 
REMARK  9 active torsions:
REMARK  status: ('A' for Active; 'I' for Inactive)
REMARK    1  A    between atoms: C_1  and  C_2
REMARK    2  A    between atoms: C_2  and  N_3
REMARK    3  A    between atoms: C_2  and  C_12
REMARK    4  A    between atoms: C_4  and  C_6
REMARK    5  A    between atoms: C_10  and  O_11
REMARK    6  A    between atoms: C_15  and  C_16
REMARK    7  A    between atoms: C_19  and  C_20
REMARK    8  A    between atoms: C_20  and  C_21
REMARK    9  A    between atoms: C_21  and  C_22
REMARK                            x       y       z     vdW  Elec       q    Type
REMARK                         _______ _______ _______ _____ _____    ______ ____
ROOT
ATOM      1  C   UNL     1       0.934   9.336  19.835  0.00  0.00    +0.000 A 
ATOM      2  C   UNL     1       1.177   8.319  20.770  0.00  0.00    +0.000 A 
ATOM      3  C   UNL     1       1.948   7.201  20.436  0.00  0.00    +0.000 A 
ATOM      4  C   UNL     1       2.506   7.080  19.158  0.00  0.00    +0.000 A 
ATOM      5  C   UNL     1       2.270   8.097  18.222  0.00  0.00    +0.000 A 
ATOM      6  C   UNL     1       1.499   9.216  18.557  0.00  0.00    +0.000 A 
ENDROOT
BRANCH   4   7
ATOM      7  C   UNL     1       3.346   5.944  18.805  0.00  0.00    +0.000 A 
ATOM      8  N   UNL     1       4.066   5.230  19.687  0.00  0.00    +0.000 NA
ATOM      9  O   UNL     1       4.758   4.320  18.891  0.00  0.00    +0.000 OA
ATOM     10  C   UNL     1       4.382   4.569  17.606  0.00  0.00    +0.000 A 
ATOM     11  N   UNL     1       3.505   5.538  17.497  0.00  0.00    +0.000 NA
BRANCH  10  12
ATOM     12  C   UNL     1       5.072   3.810  16.540  0.00  0.00    +0.000 C 
BRANCH  12  13
ATOM     13  C   UNL     1       5.602   4.740  15.440  0.00  0.00    +0.000 C 
BRANCH  13  14
ATOM     14  C   UNL     1       6.197   3.995  14.240  0.00  0.00    +0.000 C 
ATOM     15  C   UNL     1       5.161   3.599  13.191  0.00  0.00    +0.000 C 
ATOM     16  C   UNL     1       6.000   3.275  11.966  0.00  0.00    +0.000 C 
ATOM     17  C   UNL     1       7.234   4.170  12.060  0.00  0.00    +0.000 C 
ATOM     18  C   UNL     1       7.180   4.841  13.431  0.00  0.00    +0.000 C 
ENDBRANCH  13  14
ENDBRANCH  12  13
ENDBRANCH  10  12
ENDBRANCH   4   7
BRANCH   1  20
ATOM     19  C   UNL     1      -0.427  10.459  21.692  0.00  0.00    +0.000 C 
ATOM     20  C   UNL     1       0.138  10.554  20.271  0.00  0.00    +0.000 C 
BRANCH  20  21
ATOM     21  N   UNL     1      -0.925  10.797  19.311  0.00  0.00    +0.000 N 
ATOM     22  C   UNL     1      -0.940  11.900  18.485  0.00  0.00    +0.000 C 
ATOM     23  O   UNL     1      -0.042  12.739  18.468  0.00  0.00    +0.000 OA
ATOM     24  H   UNL     1      -1.625  10.074  19.174  0.00  0.00    +0.000 HD
BRANCH  22  25
ATOM     25  C   UNL     1      -2.194  11.998  17.603  0.00  0.00    +0.000 C 
ATOM     26  N   UNL     1      -2.058  11.179  16.374  0.00  0.00    +0.000 NA
ATOM     27  C   UNL     1      -3.373  10.606  16.076  0.00  0.00    +0.000 C 
ATOM     28  C   UNL     1      -4.331  11.070  17.158  0.00  0.00    +0.000 C 
ATOM     29  C   UNL     1      -3.429  11.459  18.314  0.00  0.00    +0.000 C 
ATOM     30  H   UNL     1      -1.388  10.428  16.576  0.00  0.00    +0.000 HD
BRANCH  29  31
ATOM     31  O   UNL     1      -4.044  12.441  19.146  0.00  0.00    +0.000 OA
ATOM     32  H   UNL     1      -4.659  11.992  19.749  0.00  0.00    +0.000 HD
ENDBRANCH  29  31
ENDBRANCH  22  25
ENDBRANCH  20  21
ENDBRANCH   1  20
TORSDOF 8
ENDMDL
MODEL 3
REMARK VINA RESULT:      -8.0      6.540      9.916
REMARK  Name = 
REMARK  9 active torsions:
REMARK  status: ('A' for Active; 'I' for Inactive)
REMARK    1  A    between atoms: C_1  and  C_2
REMARK    2  A    between atoms: C_2  and  N_3
REMARK    3  A    between atoms: C_2  and  C_12
REMARK    4  A    between atoms: C_4  and  C_6
REMARK    5  A    between atoms: C_10  and  O_11
REMARK    6  A    between atoms: C_15  and  C_16
REMARK    7  A    between atoms: C_19  and  C_20
REMARK    8  A    between atoms: C_20  and  C_21
REMARK    9  A    between atoms: C_21  and  C_22
REMARK                            x       y       z     vdW  Elec       q    Type
REMARK                         _______ _______ _______ _____ _____    ______ ____
ROOT
ATOM      1  C   UNL     1       2.222   7.414  18.642  0.00  0.00    +0.000 A 
ATOM      2  C   UNL     1       2.084   7.131  20.009  0.00  0.00    +0.000 A 
ATOM      3  C   UNL     1       1.527   8.068  20.887  0.00  0.00    +0.000 A 
ATOM      4  C   UNL     1       1.083   9.307  20.413  0.00  0.00    +0.000 A 
ATOM      5  C   UNL     1       1.213   9.591  19.046  0.00  0.00    +0.000 A 
ATOM      6  C   UNL     1       1.769   8.654  18.169  0.00  0.00    +0.000 A 
ENDROOT
BRANCH   4   7
ATOM      7  C   UNL     1       0.462  10.278  21.304  0.00  0.00    +0.000 A 
ATOM      8  N   UNL     1       0.288  10.094  22.624  0.00  0.00    +0.000 NA
ATOM      9  O   UNL     1      -0.407  11.231  23.029  0.00  0.00    +0.000 OA
ATOM     10  C   UNL     1      -0.579  11.994  21.914  0.00  0.00    +0.000 A 
ATOM     11  N   UNL     1      -0.050  11.469  20.836  0.00  0.00    +0.000 NA
BRANCH  10  12
ATOM     12  C   UNL     1      -1.403  13.215  22.051  0.00  0.00    +0.000 C 
BRANCH  12  13
ATOM     13  C   UNL     1      -1.501  13.667  23.514  0.00  0.00    +0.000 C 
BRANCH  13  14
ATOM     14  C   UNL     1      -2.942  13.815  24.017  0.00  0.00    +0.000 C 
ATOM     15  C   UNL     1      -3.824  14.659  23.103  0.00  0.00    +0.000 C 
ATOM     16  C   UNL     1      -5.235  14.324  23.559  0.00  0.00    +0.000 C 
ATOM     17  C   UNL     1      -5.175  12.883  24.066  0.00  0.00    +0.000 C 
ATOM     18  C   UNL     1      -3.699  12.489  24.078  0.00  0.00    +0.000 C 
ENDBRANCH  13  14
ENDBRANCH  12  13
ENDBRANCH  10  12
ENDBRANCH   4   7
BRANCH   1  20
ATOM     19  C   UNL     1       2.141   4.958  17.917  0.00  0.00    +0.000 C 
ATOM     20  C   UNL     1       2.780   6.338  17.726  0.00  0.00    +0.000 C 
BRANCH  20  21
ATOM     21  N   UNL     1       4.220   6.265  17.899  0.00  0.00    +0.000 N 
ATOM     22  C   UNL     1       5.102   6.468  16.860  0.00  0.00    +0.000 C 
ATOM     23  O   UNL     1       4.744   6.762  15.721  0.00  0.00    +0.000 OA
ATOM     24  H   UNL     1       4.589   6.166  18.840  0.00  0.00    +0.000 HD
BRANCH  22  25
ATOM     25  C   UNL     1       6.576   6.269  17.249  0.00  0.00    +0.000 C 
ATOM     26  N   UNL     1       7.287   7.566  17.360  0.00  0.00    +0.000 NA
ATOM     27  C   UNL     1       8.239   7.456  18.467  0.00  0.00    +0.000 C 
ATOM     28  C   UNL     1       8.094   6.065  19.059  0.00  0.00    +0.000 C 
ATOM     29  C   UNL     1       6.716   5.612  18.615  0.00  0.00    +0.000 C 
ATOM     30  H   UNL     1       6.585   8.285  17.574  0.00  0.00    +0.000 HD
BRANCH  29  31
ATOM     31  O   UNL     1       6.635   4.190  18.541  0.00  0.00    +0.000 OA
ATOM     32  H   UNL     1       6.491   3.842  19.437  0.00  0.00    +0.000 HD
ENDBRANCH  29  31
ENDBRANCH  22  25
ENDBRANCH  20  21
ENDBRANCH   1  20
TORSDOF 8
ENDMDL
MODEL 4
REMARK VINA RESULT:      -7.9      5.413      8.744
REMARK  Name = 
REMARK  9 active torsions:
REMARK  status: ('A' for Active; 'I' for Inactive)
REMARK    1  A    between atoms: C_1  and  C_2
REMARK    2  A    between atoms: C_2  and  N_3
REMARK    3  A    between atoms: C_2  and  C_12
REMARK    4  A    between atoms: C_4  and  C_6
REMARK    5  A    between atoms: C_10  and  O_11
REMARK    6  A    between atoms: C_15  and  C_16
REMARK    7  A    between atoms: C_19  and  C_20
REMARK    8  A    between atoms: C_20  and  C_21
REMARK    9  A    between atoms: C_21  and  C_22
REMARK                            x       y       z     vdW  Elec       q    Type
REMARK                         _______ _______ _______ _____ _____    ______ ____
ROOT
ATOM      1  C   UNL     1       0.991   9.091  20.213  0.00  0.00    +0.000 A 
ATOM      2  C   UNL     1       1.460   9.110  18.891  0.00  0.00    +0.000 A 
ATOM      3  C   UNL     1       2.166   8.026  18.360  0.00  0.00    +0.000 A 
ATOM      4  C   UNL     1       2.409   6.889  19.139  0.00  0.00    +0.000 A 
ATOM      5  C   UNL     1       1.938   6.863  20.459  0.00  0.00    +0.000 A 
ATOM      6  C   UNL     1       1.231   7.948  20.989  0.00  0.00    +0.000 A 
ENDROOT
BRANCH   4   7
ATOM      7  C   UNL     1       3.106   5.733  18.591  0.00  0.00    +0.000 A 
ATOM      8  N   UNL     1       3.239   4.555  19.226  0.00  0.00    +0.000 NA
ATOM      9  O   UNL     1       4.034   3.803  18.364  0.00  0.00    +0.000 OA
ATOM     10  C   UNL     1       4.298   4.597  17.291  0.00  0.00    +0.000 A 
ATOM     11  N   UNL     1       3.738   5.780  17.367  0.00  0.00    +0.000 NA
BRANCH  10  12
ATOM     12  C   UNL     1       5.233   4.070  16.273  0.00  0.00    +0.000 C 
BRANCH  12  13
ATOM     13  C   UNL     1       6.125   5.181  15.701  0.00  0.00    +0.000 C 
BRANCH  13  14
ATOM     14  C   UNL     1       7.232   5.636  16.659  0.00  0.00    +0.000 C 
ATOM     15  C   UNL     1       7.012   7.034  17.228  0.00  0.00    +0.000 C 
ATOM     16  C   UNL     1       7.959   7.090  18.415  0.00  0.00    +0.000 C 
ATOM     17  C   UNL     1       8.058   5.656  18.934  0.00  0.00    +0.000 C 
ATOM     18  C   UNL     1       7.329   4.777  17.919  0.00  0.00    +0.000 C 
ENDBRANCH  13  14
ENDBRANCH  12  13
ENDBRANCH  10  12
ENDBRANCH   4   7
BRANCH   1  20
ATOM     19  C   UNL     1      -0.511  10.029  22.064  0.00  0.00    +0.000 C 
ATOM     20  C   UNL     1       0.180  10.272  20.718  0.00  0.00    +0.000 C 
BRANCH  20  21
ATOM     21  N   UNL     1      -0.789  10.653  19.705  0.00  0.00    +0.000 N 
ATOM     22  C   UNL     1      -0.768  11.884  19.086  0.00  0.00    +0.000 C 
ATOM     23  O   UNL     1       0.089  12.737  19.313  0.00  0.00    +0.000 OA
ATOM     24  H   UNL     1      -1.437   9.948  19.368  0.00  0.00    +0.000 HD
BRANCH  22  25
ATOM     25  C   UNL     1      -1.928  12.104  18.103  0.00  0.00    +0.000 C 
ATOM     26  N   UNL     1      -1.832  11.192  16.937  0.00  0.00    +0.000 NA
ATOM     27  C   UNL     1      -3.193  10.798  16.568  0.00  0.00    +0.000 C 
ATOM     28  C   UNL     1      -4.144  11.471  17.543  0.00  0.00    +0.000 C 
ATOM     29  C   UNL     1      -3.277  11.802  18.742  0.00  0.00    +0.000 C 
ATOM     30  H   UNL     1      -1.298  10.366  17.235  0.00  0.00    +0.000 HD
BRANCH  29  31
ATOM     31  O   UNL     1      -3.793  12.918  19.466  0.00  0.00    +0.000 OA
ATOM     32  H   UNL     1      -3.063  13.335  19.952  0.00  0.00    +0.000 HD
ENDBRANCH  29  31
ENDBRANCH  22  25
ENDBRANCH  20  21
ENDBRANCH   1  20
TORSDOF 8
ENDMDL
MODEL 5
REMARK VINA RESULT:      -7.9      5.882      8.922
REMARK  Name = 
REMARK  9 active torsions:
REMARK  status: ('A' for Active; 'I' for Inactive)
REMARK    1  A    between atoms: C_1  and  C_2
REMARK    2  A    between atoms: C_2  and  N_3
REMARK    3  A    between atoms: C_2  and  C_12
REMARK    4  A    between atoms: C_4  and  C_6
REMARK    5  A    between atoms: C_10  and  O_11
REMARK    6  A    between atoms: C_15  and  C_16
REMARK    7  A    between atoms: C_19  and  C_20
REMARK    8  A    between atoms: C_20  and  C_21
REMARK    9  A    between atoms: C_21  and  C_22
REMARK                            x       y       z     vdW  Elec       q    Type
REMARK                         _______ _______ _______ _____ _____    ______ ____
ROOT
ATOM      1  C   UNL     1       0.986   9.803  19.466  0.00  0.00    +0.000 A 
ATOM      2  C   UNL     1       1.396   9.567  18.145  0.00  0.00    +0.000 A 
ATOM      3  C   UNL     1       2.049   8.381  17.794  0.00  0.00    +0.000 A 
ATOM      4  C   UNL     1       2.299   7.397  18.757  0.00  0.00    +0.000 A 
ATOM      5  C   UNL     1       1.886   7.626  20.077  0.00  0.00    +0.000 A 
ATOM      6  C   UNL     1       1.232   8.812  20.428  0.00  0.00    +0.000 A 
ENDROOT
BRANCH   4   7
ATOM      7  C   UNL     1       2.940   6.138  18.402  0.00  0.00    +0.000 A 
ATOM      8  N   UNL     1       2.833   5.004  19.115  0.00  0.00    +0.000 NA
ATOM      9  O   UNL     1       3.668   4.111  18.447  0.00  0.00    +0.000 OA
ATOM     10  C   UNL     1       4.193   4.792  17.391  0.00  0.00    +0.000 A 
ATOM     11  N   UNL     1       3.766   6.029  17.304  0.00  0.00    +0.000 NA
BRANCH  10  12
ATOM     12  C   UNL     1       5.217   4.099  16.581  0.00  0.00    +0.000 C 
BRANCH  12  13
ATOM     13  C   UNL     1       6.172   5.095  15.908  0.00  0.00    +0.000 C 
BRANCH  13  14
ATOM     14  C   UNL     1       7.285   5.600  16.834  0.00  0.00    +0.000 C 
ATOM     15  C   UNL     1       7.129   7.064  17.235  0.00  0.00    +0.000 C 
ATOM     16  C   UNL     1       8.057   7.208  18.430  0.00  0.00    +0.000 C 
ATOM     17  C   UNL     1       8.072   5.840  19.110  0.00  0.00    +0.000 C 
ATOM     18  C   UNL     1       7.315   4.888  18.185  0.00  0.00    +0.000 C 
ENDBRANCH  13  14
ENDBRANCH  12  13
ENDBRANCH  10  12
ENDBRANCH   4   7
BRANCH   1  20
ATOM     19  C   UNL     1       0.390  11.570  21.222  0.00  0.00    +0.000 C 
ATOM     20  C   UNL     1       0.229  11.083  19.778  0.00  0.00    +0.000 C 
BRANCH  20  21
ATOM     21  N   UNL     1      -1.174  10.898  19.452  0.00  0.00    +0.000 N 
ATOM     22  C   UNL     1      -1.824  11.669  18.513  0.00  0.00    +0.000 C 
ATOM     23  O   UNL     1      -1.262  12.542  17.855  0.00  0.00    +0.000 OA
ATOM     24  H   UNL     1      -1.663  10.104  19.854  0.00  0.00    +0.000 HD
BRANCH  22  25
ATOM     25  C   UNL     1      -3.322  11.354  18.380  0.00  0.00    +0.000 C 
ATOM     26  N   UNL     1      -4.151  12.346  19.107  0.00  0.00    +0.000 NA
ATOM     27  C   UNL     1      -5.367  12.568  18.322  0.00  0.00    +0.000 C 
ATOM     28  C   UNL     1      -5.271  11.706  17.075  0.00  0.00    +0.000 C 
ATOM     29  C   UNL     1      -3.788  11.422  16.932  0.00  0.00    +0.000 C 
ATOM     30  H   UNL     1      -3.610  13.216  19.167  0.00  0.00    +0.000 HD
BRANCH  29  31
ATOM     31  O   UNL     1      -3.558  10.199  16.233  0.00  0.00    +0.000 OA
ATOM     32  H   UNL     1      -4.417   9.817  15.990  0.00  0.00    +0.000 HD
ENDBRANCH  29  31
ENDBRANCH  22  25
ENDBRANCH  20  21
ENDBRANCH   1  20
TORSDOF 8
ENDMDL
MODEL 6
REMARK VINA RESULT:      -7.9      5.080      9.123
REMARK  Name = 
REMARK  9 active torsions:
REMARK  status: ('A' for Active; 'I' for Inactive)
REMARK    1  A    between atoms: C_1  and  C_2
REMARK    2  A    between atoms: C_2  and  N_3
REMARK    3  A    between atoms: C_2  and  C_12
REMARK    4  A    between atoms: C_4  and  C_6
REMARK    5  A    between atoms: C_10  and  O_11
REMARK    6  A    between atoms: C_15  and  C_16
REMARK    7  A    between atoms: C_19  and  C_20
REMARK    8  A    between atoms: C_20  and  C_21
REMARK    9  A    between atoms: C_21  and  C_22
REMARK                            x       y       z     vdW  Elec       q    Type
REMARK                         _______ _______ _______ _____ _____    ______ ____
ROOT
ATOM      1  C   UNL     1       1.187   9.584  19.860  0.00  0.00    +0.000 A 
ATOM      2  C   UNL     1       1.423   8.444  20.642  0.00  0.00    +0.000 A 
ATOM      3  C   UNL     1       1.895   7.260  20.066  0.00  0.00    +0.000 A 
ATOM      4  C   UNL     1       2.152   7.193  18.692  0.00  0.00    +0.000 A 
ATOM      5  C   UNL     1       1.922   8.332  17.908  0.00  0.00    +0.000 A 
ATOM      6  C   UNL     1       1.451   9.516  18.485  0.00  0.00    +0.000 A 
ENDROOT
BRANCH   4   7
ATOM      7  C   UNL     1       2.682   5.982  18.080  0.00  0.00    +0.000 A 
ATOM      8  N   UNL     1       2.074   4.783  18.118  0.00  0.00    +0.000 NA
ATOM      9  O   UNL     1       2.978   3.933  17.486  0.00  0.00    +0.000 OA
ATOM     10  C   UNL     1       4.041   4.702  17.122  0.00  0.00    +0.000 A 
ATOM     11  N   UNL     1       3.904   5.966  17.443  0.00  0.00    +0.000 NA
BRANCH  10  12
ATOM     12  C   UNL     1       5.207   4.009  16.533  0.00  0.00    +0.000 C 
BRANCH  12  13
ATOM     13  C   UNL     1       6.172   5.000  15.867  0.00  0.00    +0.000 C 
BRANCH  13  14
ATOM     14  C   UNL     1       7.272   5.510  16.806  0.00  0.00    +0.000 C 
ATOM     15  C   UNL     1       7.106   6.974  17.203  0.00  0.00    +0.000 C 
ATOM     16  C   UNL     1       8.020   7.123  18.409  0.00  0.00    +0.000 C 
ATOM     17  C   UNL     1       8.030   5.756  19.092  0.00  0.00    +0.000 C 
ATOM     18  C   UNL     1       7.289   4.800  18.159  0.00  0.00    +0.000 C 
ENDBRANCH  13  14
ENDBRANCH  12  13
ENDBRANCH  10  12
ENDBRANCH   4   7
BRANCH   1  20
ATOM     19  C   UNL     1      -0.773  10.913  20.837  0.00  0.00    +0.000 C 
ATOM     20  C   UNL     1       0.730  10.860  20.548  0.00  0.00    +0.000 C 
BRANCH  20  21
ATOM     21  N   UNL     1       1.142  12.003  19.753  0.00  0.00    +0.000 N 
ATOM     22  C   UNL     1       1.593  13.175  20.319  0.00  0.00    +0.000 C 
ATOM     23  O   UNL     1       1.720  13.331  21.532  0.00  0.00    +0.000 OA
ATOM     24  H   UNL     1       1.196  11.895  18.744  0.00  0.00    +0.000 HD
BRANCH  22  25
ATOM     25  C   UNL     1       1.903  14.280  19.296  0.00  0.00    +0.000 C 
ATOM     26  N   UNL     1       2.431  15.498  19.957  0.00  0.00    +0.000 NA
ATOM     27  C   UNL     1       3.446  16.077  19.074  0.00  0.00    +0.000 C 
ATOM     28  C   UNL     1       3.555  15.180  17.853  0.00  0.00    +0.000 C 
ATOM     29  C   UNL     1       2.984  13.853  18.312  0.00  0.00    +0.000 C 
ATOM     30  H   UNL     1       2.863  15.207  20.841  0.00  0.00    +0.000 HD
BRANCH  29  31
ATOM     31  O   UNL     1       2.453  13.108  17.217  0.00  0.00    +0.000 OA
ATOM     32  H   UNL     1       3.072  13.174  16.471  0.00  0.00    +0.000 HD
ENDBRANCH  29  31
ENDBRANCH  22  25
ENDBRANCH  20  21
ENDBRANCH   1  20
TORSDOF 8
ENDMDL
MODEL 7
REMARK VINA RESULT:      -7.9      5.486      8.881
REMARK  Name = 
REMARK  9 active torsions:
REMARK  status: ('A' for Active; 'I' for Inactive)
REMARK    1  A    between atoms: C_1  and  C_2
REMARK    2  A    between atoms: C_2  and  N_3
REMARK    3  A    between atoms: C_2  and  C_12
REMARK    4  A    between atoms: C_4  and  C_6
REMARK    5  A    between atoms: C_10  and  O_11
REMARK    6  A    between atoms: C_15  and  C_16
REMARK    7  A    between atoms: C_19  and  C_20
REMARK    8  A    between atoms: C_20  and  C_21
REMARK    9  A    between atoms: C_21  and  C_22
REMARK                            x       y       z     vdW  Elec       q    Type
REMARK                         _______ _______ _______ _____ _____    ______ ____
ROOT
ATOM      1  C   UNL     1       0.907   9.370  20.206  0.00  0.00    +0.000 A 
ATOM      2  C   UNL     1       1.009   8.306  21.115  0.00  0.00    +0.000 A 
ATOM      3  C   UNL     1       1.649   7.114  20.760  0.00  0.00    +0.000 A 
ATOM      4  C   UNL     1       2.213   6.963  19.488  0.00  0.00    +0.000 A 
ATOM      5  C   UNL     1       2.117   8.026  18.579  0.00  0.00    +0.000 A 
ATOM      6  C   UNL     1       1.478   9.219  18.935  0.00  0.00    +0.000 A 
ENDROOT
BRANCH   4   7
ATOM      7  C   UNL     1       2.919   5.745  19.115  0.00  0.00    +0.000 A 
ATOM      8  N   UNL     1       3.317   4.802  19.986  0.00  0.00    +0.000 NA
ATOM      9  O   UNL     1       4.008   3.889  19.193  0.00  0.00    +0.000 OA
ATOM     10  C   UNL     1       3.953   4.366  17.919  0.00  0.00    +0.000 A 
ATOM     11  N   UNL     1       3.282   5.487  17.810  0.00  0.00    +0.000 NA
BRANCH  10  12
ATOM     12  C   UNL     1       4.722   3.635  16.888  0.00  0.00    +0.000 C 
BRANCH  12  13
ATOM     13  C   UNL     1       5.958   4.428  16.441  0.00  0.00    +0.000 C 
BRANCH  13  14
ATOM     14  C   UNL     1       6.397   5.501  17.445  0.00  0.00    +0.000 C 
ATOM     15  C   UNL     1       7.589   5.085  18.302  0.00  0.00    +0.000 C 
ATOM     16  C   UNL     1       8.083   6.398  18.887  0.00  0.00    +0.000 C 
ATOM     17  C   UNL     1       7.751   7.466  17.845  0.00  0.00    +0.000 C 
ATOM     18  C   UNL     1       6.897   6.782  16.780  0.00  0.00    +0.000 C 
ENDBRANCH  13  14
ENDBRANCH  12  13
ENDBRANCH  10  12
ENDBRANCH   4   7
BRANCH   1  20
ATOM     19  C   UNL     1      -0.258  10.628  22.110  0.00  0.00    +0.000 C 
ATOM     20  C   UNL     1       0.252  10.662  20.665  0.00  0.00    +0.000 C 
BRANCH  20  21
ATOM     21  N   UNL     1      -0.822  11.004  19.749  0.00  0.00    +0.000 N 
ATOM     22  C   UNL     1      -0.677  11.953  18.760  0.00  0.00    +0.000 C 
ATOM     23  O   UNL     1       0.375  12.552  18.551  0.00  0.00    +0.000 OA
ATOM     24  H   UNL     1      -1.672  10.449  19.774  0.00  0.00    +0.000 HD
BRANCH  22  25
ATOM     25  C   UNL     1      -1.961  12.210  17.955  0.00  0.00    +0.000 C 
ATOM     26  N   UNL     1      -1.946  11.483  16.663  0.00  0.00    +0.000 NA
ATOM     27  C   UNL     1      -3.313  11.031  16.392  0.00  0.00    +0.000 C 
ATOM     28  C   UNL     1      -4.181  11.477  17.556  0.00  0.00    +0.000 C 
ATOM     29  C   UNL     1      -3.198  11.708  18.688  0.00  0.00    +0.000 C 
ATOM     30  H   UNL     1      -1.326  10.671  16.772  0.00  0.00    +0.000 HD
BRANCH  29  31
ATOM     31  O   UNL     1      -3.697  12.663  19.623  0.00  0.00    +0.000 OA
ATOM     32  H   UNL     1      -3.042  12.770  20.333  0.00  0.00    +0.000 HD
ENDBRANCH  29  31
ENDBRANCH  22  25
ENDBRANCH  20  21
ENDBRANCH   1  20
TORSDOF 8
ENDMDL
MODEL 8
REMARK VINA RESULT:      -7.9      6.032      9.159
REMARK  Name = 
REMARK  9 active torsions:
REMARK  status: ('A' for Active; 'I' for Inactive)
REMARK    1  A    between atoms: C_1  and  C_2
REMARK    2  A    between atoms: C_2  and  N_3
REMARK    3  A    between atoms: C_2  and  C_12
REMARK    4  A    between atoms: C_4  and  C_6
REMARK    5  A    between atoms: C_10  and  O_11
REMARK    6  A    between atoms: C_15  and  C_16
REMARK    7  A    between atoms: C_19  and  C_20
REMARK    8  A    between atoms: C_20  and  C_21
REMARK    9  A    between atoms: C_21  and  C_22
REMARK                            x       y       z     vdW  Elec       q    Type
REMARK                         _______ _______ _______ _____ _____    ______ ____
ROOT
ATOM      1  C   UNL     1       1.315   9.040  19.478  0.00  0.00    +0.000 A 
ATOM      2  C   UNL     1       1.726   9.041  18.136  0.00  0.00    +0.000 A 
ATOM      3  C   UNL     1       2.472   7.982  17.610  0.00  0.00    +0.000 A 
ATOM      4  C   UNL     1       2.815   6.888  18.412  0.00  0.00    +0.000 A 
ATOM      5  C   UNL     1       2.402   6.880  19.752  0.00  0.00    +0.000 A 
ATOM      6  C   UNL     1       1.656   7.940  20.278  0.00  0.00    +0.000 A 
ENDROOT
BRANCH   4   7
ATOM      7  C   UNL     1       3.555   5.757  17.870  0.00  0.00    +0.000 A 
ATOM      8  N   UNL     1       3.135   4.481  17.921  0.00  0.00    +0.000 NA
ATOM      9  O   UNL     1       4.190   3.762  17.363  0.00  0.00    +0.000 OA
ATOM     10  C   UNL     1       5.141   4.675  17.024  0.00  0.00    +0.000 A 
ATOM     11  N   UNL     1       4.797   5.911  17.293  0.00  0.00    +0.000 NA
BRANCH  10  12
ATOM     12  C   UNL     1       6.429   4.154  16.516  0.00  0.00    +0.000 C 
BRANCH  12  13
ATOM     13  C   UNL     1       7.106   5.154  15.569  0.00  0.00    +0.000 C 
BRANCH  13  14
ATOM     14  C   UNL     1       6.687   4.991  14.102  0.00  0.00    +0.000 C 
ATOM     15  C   UNL     1       7.847   5.112  13.119  0.00  0.00    +0.000 C 
ATOM     16  C   UNL     1       7.290   4.520  11.834  0.00  0.00    +0.000 C 
ATOM     17  C   UNL     1       6.278   3.462  12.272  0.00  0.00    +0.000 C 
ATOM     18  C   UNL     1       6.127   3.605  13.785  0.00  0.00    +0.000 C 
ENDBRANCH  13  14
ENDBRANCH  12  13
ENDBRANCH  10  12
ENDBRANCH   4   7
BRANCH   1  20
ATOM     19  C   UNL     1      -0.327   9.873  21.258  0.00  0.00    +0.000 C 
ATOM     20  C   UNL     1       0.458  10.189  19.981  0.00  0.00    +0.000 C 
BRANCH  20  21
ATOM     21  N   UNL     1      -0.437  10.615  18.919  0.00  0.00    +0.000 N 
ATOM     22  C   UNL     1      -1.380  11.604  19.099  0.00  0.00    +0.000 C 
ATOM     23  O   UNL     1      -1.512  12.225  20.151  0.00  0.00    +0.000 OA
ATOM     24  H   UNL     1      -0.290  10.244  17.986  0.00  0.00    +0.000 HD
BRANCH  22  25
ATOM     25  C   UNL     1      -2.270  11.843  17.868  0.00  0.00    +0.000 C 
ATOM     26  N   UNL     1      -1.894  10.951  16.745  0.00  0.00    +0.000 NA
ATOM     27  C   UNL     1      -3.125  10.566  16.053  0.00  0.00    +0.000 C 
ATOM     28  C   UNL     1      -4.284  11.224  16.781  0.00  0.00    +0.000 C 
ATOM     29  C   UNL     1      -3.732  11.532  18.159  0.00  0.00    +0.000 C 
ATOM     30  H   UNL     1      -1.446  10.119  17.148  0.00  0.00    +0.000 HD
BRANCH  29  31
ATOM     31  O   UNL     1      -4.411  12.637  18.756  0.00  0.00    +0.000 OA
ATOM     32  H   UNL     1      -4.135  12.702  19.685  0.00  0.00    +0.000 HD
ENDBRANCH  29  31
ENDBRANCH  22  25
ENDBRANCH  20  21
ENDBRANCH   1  20
TORSDOF 8
ENDMDL
MODEL 9
REMARK VINA RESULT:      -7.9      1.395      1.920
REMARK  Name = 
REMARK  9 active torsions:
REMARK  status: ('A' for Active; 'I' for Inactive)
REMARK    1  A    between atoms: C_1  and  C_2
REMARK    2  A    between atoms: C_2  and  N_3
REMARK    3  A    between atoms: C_2  and  C_12
REMARK    4  A    between atoms: C_4  and  C_6
REMARK    5  A    between atoms: C_10  and  O_11
REMARK    6  A    between atoms: C_15  and  C_16
REMARK    7  A    between atoms: C_19  and  C_20
REMARK    8  A    between atoms: C_20  and  C_21
REMARK    9  A    between atoms: C_21  and  C_22
REMARK                            x       y       z     vdW  Elec       q    Type
REMARK                         _______ _______ _______ _____ _____    ______ ____
ROOT
ATOM      1  C   UNL     1       6.823   5.877  17.779  0.00  0.00    +0.000 A 
ATOM      2  C   UNL     1       7.814   6.010  18.764  0.00  0.00    +0.000 A 
ATOM      3  C   UNL     1       8.443   7.238  18.993  0.00  0.00    +0.000 A 
ATOM      4  C   UNL     1       8.086   8.367  18.248  0.00  0.00    +0.000 A 
ATOM      5  C   UNL     1       7.094   8.241  17.267  0.00  0.00    +0.000 A 
ATOM      6  C   UNL     1       6.464   7.012  17.038  0.00  0.00    +0.000 A 
ENDROOT
BRANCH   4   7
ATOM      7  C   UNL     1       8.701   9.664  18.501  0.00  0.00    +0.000 A 
ATOM      8  N   UNL     1       8.607  10.722  17.677  0.00  0.00    +0.000 NA
ATOM      9  O   UNL     1       9.407  11.687  18.284  0.00  0.00    +0.000 OA
ATOM     10  C   UNL     1       9.900  11.120  19.420  0.00  0.00    +0.000 A 
ATOM     11  N   UNL     1       9.484   9.891  19.612  0.00  0.00    +0.000 NA
BRANCH  10  12
ATOM     12  C   UNL     1      10.886  11.904  20.195  0.00  0.00    +0.000 C 
BRANCH  12  13
ATOM     13  C   UNL     1      10.211  13.036  20.981  0.00  0.00    +0.000 C 
BRANCH  13  14
ATOM     14  C   UNL     1      10.589  14.437  20.486  0.00  0.00    +0.000 C 
ATOM     15  C   UNL     1      11.858  14.465  19.640  0.00  0.00    +0.000 C 
ATOM     16  C   UNL     1      11.795  15.816  18.946  0.00  0.00    +0.000 C 
ATOM     17  C   UNL     1      10.309  16.124  18.773  0.00  0.00    +0.000 C 
ATOM     18  C   UNL     1       9.550  15.046  19.546  0.00  0.00    +0.000 C 
ENDBRANCH  13  14
ENDBRANCH  12  13
ENDBRANCH  10  12
ENDBRANCH   4   7
BRANCH   1  20
ATOM     19  C   UNL     1       5.981   4.083  16.157  0.00  0.00    +0.000 C 
ATOM     20  C   UNL     1       6.133   4.534  17.613  0.00  0.00    +0.000 C 
BRANCH  20  21
ATOM     21  N   UNL     1       4.841   4.577  18.275  0.00  0.00    +0.000 N 
ATOM     22  C   UNL     1       4.508   3.726  19.306  0.00  0.00    +0.000 C 
ATOM     23  O   UNL     1       5.286   2.895  19.770  0.00  0.00    +0.000 OA
ATOM     24  H   UNL     1       4.203   5.331  18.038  0.00  0.00    +0.000 HD
BRANCH  22  25
ATOM     25  C   UNL     1       3.065   3.895  19.809  0.00  0.00    +0.000 C 
ATOM     26  N   UNL     1       2.122   4.114  18.686  0.00  0.00    +0.000 NA
ATOM     27  C   UNL     1       0.871   3.429  19.018  0.00  0.00    +0.000 C 
ATOM     28  C   UNL     1       1.060   2.759  20.368  0.00  0.00    +0.000 C 
ATOM     29  C   UNL     1       2.565   2.645  20.520  0.00  0.00    +0.000 C 
ATOM     30  H   UNL     1       2.538   3.694  17.847  0.00  0.00    +0.000 HD
BRANCH  29  31
ATOM     31  O   UNL     1       2.948   2.615  21.894  0.00  0.00    +0.000 OA
ATOM     32  H   UNL     1       2.531   1.845  22.314  0.00  0.00    +0.000 HD
ENDBRANCH  29  31
ENDBRANCH  22  25
ENDBRANCH  20  21
ENDBRANCH   1  20
TORSDOF 8
ENDMDL
