MODEL 1
REMARK VINA RESULT:      -8.3      0.000      0.000
REMARK  Name = 
REMARK  3 active torsions:
REMARK  status: ('A' for Active; 'I' for Inactive)
REMARK    1  A    between atoms: C_15  and  O_16
REMARK    2  A    between atoms: C_17  and  C_18
REMARK    3  A    between atoms: C_18  and  N_19
REMARK                            x       y       z     vdW  Elec       q    Type
REMARK                         _______ _______ _______ _____ _____    ______ ____
ROOT
ATOM      1  O   UNL     1       3.118   7.666  17.437  0.00  0.00    +0.000 OA
ATOM      2  C   UNL     1       2.592   7.849  18.529  0.00  0.00    +0.000 A 
ATOM      3  O   UNL     1       2.069   9.115  18.876  0.00  0.00    +0.000 OA
ATOM      4  C   UNL     1       1.227   9.318  20.009  0.00  0.00    +0.000 A 
ATOM      5  C   UNL     1       0.846  10.628  20.272  0.00  0.00    +0.000 A 
ATOM      6  C   UNL     1       0.009  10.872  21.356  0.00  0.00    +0.000 A 
ATOM      7  C   UNL     1      -0.446   9.807  22.148  0.00  0.00    +0.000 A 
ATOM      8  C   UNL     1      -0.041   8.490  21.882  0.00  0.00    +0.000 A 
ATOM      9  C   UNL     1       0.812   8.240  20.812  0.00  0.00    +0.000 A 
ATOM     10  C   UNL     1       1.427   6.978  20.486  0.00  0.00    +0.000 A 
ATOM     11  O   UNL     1       1.220   5.841  21.188  0.00  0.00    +0.000 OA
ATOM     12  C   UNL     1       2.127   4.934  20.689  0.00  0.00    +0.000 A 
ATOM     13  C   UNL     1       2.272   3.613  21.099  0.00  0.00    +0.000 A 
ATOM     14  C   UNL     1       3.325   2.891  20.522  0.00  0.00    +0.000 A 
ATOM     15  C   UNL     1       4.242   3.515  19.670  0.00  0.00    +0.000 A 
ATOM     16  C   UNL     1       4.123   4.869  19.304  0.00  0.00    +0.000 A 
ATOM     17  C   UNL     1       2.943   5.539  19.730  0.00  0.00    +0.000 A 
ATOM     18  C   UNL     1       2.357   6.803  19.494  0.00  0.00    +0.000 A 
ENDROOT
BRANCH  15  19
ATOM     19  O   UNL     1       5.311   2.806  19.192  0.00  0.00    +0.000 OA
ATOM     20  H   UNL     1       6.131   3.257  19.449  0.00  0.00    +0.000 HD
ENDBRANCH  15  19
BRANCH  16  21
ATOM     21  C   UNL     1       5.272   5.625  18.651  0.00  0.00    +0.000 C 
BRANCH  21  22
ATOM     22  N   UNL     1       5.698   4.906  17.446  0.00  0.00    +0.000 NA
ATOM     23  C   UNL     1       4.789   4.999  16.308  0.00  0.00    +0.000 C 
ATOM     24  C   UNL     1       5.559   4.148  15.311  0.00  0.00    +0.000 C 
ATOM     25  C   UNL     1       7.023   4.481  15.595  0.00  0.00    +0.000 C 
ATOM     26  C   UNL     1       7.005   5.262  16.912  0.00  0.00    +0.000 C 
ENDBRANCH  21  22
ENDBRANCH  16  21
TORSDOF 3
ENDMDL
MODEL 2
REMARK VINA RESULT:      -8.1      3.142      7.250
REMARK  Name = 
REMARK  3 active torsions:
REMARK  status: ('A' for Active; 'I' for Inactive)
REMARK    1  A    between atoms: C_15  and  O_16
REMARK    2  A    between atoms: C_17  and  C_18
REMARK    3  A    between atoms: C_18  and  N_19
REMARK                            x       y       z     vdW  Elec       q    Type
REMARK                         _______ _______ _______ _____ _____    ______ ____
ROOT
ATOM      1  O   UNL     1       2.241  10.111  17.753  0.00  0.00    +0.000 OA
ATOM      2  C   UNL     1       2.030   9.049  18.328  0.00  0.00    +0.000 A 
ATOM      3  O   UNL     1       2.465   7.826  17.770  0.00  0.00    +0.000 OA
ATOM      4  C   UNL     1       2.479   6.604  18.505  0.00  0.00    +0.000 A 
ATOM      5  C   UNL     1       2.862   5.465  17.808  0.00  0.00    +0.000 A 
ATOM      6  C   UNL     1       2.909   4.253  18.489  0.00  0.00    +0.000 A 
ATOM      7  C   UNL     1       2.589   4.200  19.853  0.00  0.00    +0.000 A 
ATOM      8  C   UNL     1       2.188   5.354  20.543  0.00  0.00    +0.000 A 
ATOM      9  C   UNL     1       2.120   6.566  19.864  0.00  0.00    +0.000 A 
ATOM     10  C   UNL     1       1.600   7.807  20.382  0.00  0.00    +0.000 A 
ATOM     11  O   UNL     1       1.129   7.954  21.641  0.00  0.00    +0.000 OA
ATOM     12  C   UNL     1       0.553   9.204  21.671  0.00  0.00    +0.000 A 
ATOM     13  C   UNL     1      -0.052   9.799  22.773  0.00  0.00    +0.000 A 
ATOM     14  C   UNL     1      -0.660  11.042  22.557  0.00  0.00    +0.000 A 
ATOM     15  C   UNL     1      -0.746  11.586  21.271  0.00  0.00    +0.000 A 
ATOM     16  C   UNL     1      -0.182  10.951  20.150  0.00  0.00    +0.000 A 
ATOM     17  C   UNL     1       0.605   9.795  20.406  0.00  0.00    +0.000 A 
ATOM     18  C   UNL     1       1.439   8.949  19.641  0.00  0.00    +0.000 A 
ENDROOT
BRANCH  15  19
ATOM     19  O   UNL     1      -1.424  12.760  21.079  0.00  0.00    +0.000 OA
ATOM     20  H   UNL     1      -0.921  13.320  20.465  0.00  0.00    +0.000 HD
ENDBRANCH  15  19
BRANCH  16  21
ATOM     21  C   UNL     1      -0.544  11.364  18.730  0.00  0.00    +0.000 C 
BRANCH  21  22
ATOM     22  N   UNL     1      -1.818  10.740  18.357  0.00  0.00    +0.000 NA
ATOM     23  C   UNL     1      -2.933  11.663  18.164  0.00  0.00    +0.000 C 
ATOM     24  C   UNL     1      -4.020  10.660  17.812  0.00  0.00    +0.000 C 
ATOM     25  C   UNL     1      -3.292   9.604  16.979  0.00  0.00    +0.000 C 
ATOM     26  C   UNL     1      -1.803   9.914  17.158  0.00  0.00    +0.000 C 
ENDBRANCH  21  22
ENDBRANCH  16  21
TORSDOF 3
ENDMDL
MODEL 3
REMARK VINA RESULT:      -7.7      2.258      6.651
REMARK  Name = 
REMARK  3 active torsions:
REMARK  status: ('A' for Active; 'I' for Inactive)
REMARK    1  A    between atoms: C_15  and  O_16
REMARK    2  A    between atoms: C_17  and  C_18
REMARK    3  A    between atoms: C_18  and  N_19
REMARK                            x       y       z     vdW  Elec       q    Type
REMARK                         _______ _______ _______ _____ _____    ______ ____
ROOT
ATOM      1  O   UNL     1       6.149   5.698  19.181  0.00  0.00    +0.000 OA
ATOM      2  C   UNL     1       5.882   5.362  18.033  0.00  0.00    +0.000 A 
ATOM      3  O   UNL     1       6.771   5.645  16.971  0.00  0.00    +0.000 OA
ATOM      4  C   UNL     1       6.640   5.060  15.678  0.00  0.00    +0.000 A 
ATOM      5  C   UNL     1       7.540   5.486  14.710  0.00  0.00    +0.000 A 
ATOM      6  C   UNL     1       7.463   4.928  13.438  0.00  0.00    +0.000 A 
ATOM      7  C   UNL     1       6.501   3.946  13.157  0.00  0.00    +0.000 A 
ATOM      8  C   UNL     1       5.586   3.535  14.139  0.00  0.00    +0.000 A 
ATOM      9  C   UNL     1       5.645   4.103  15.408  0.00  0.00    +0.000 A 
ATOM     10  C   UNL     1       4.704   3.897  16.479  0.00  0.00    +0.000 A 
ATOM     11  O   UNL     1       3.632   3.079  16.388  0.00  0.00    +0.000 OA
ATOM     12  C   UNL     1       2.893   3.316  17.525  0.00  0.00    +0.000 A 
ATOM     13  C   UNL     1       1.703   2.685  17.873  0.00  0.00    +0.000 A 
ATOM     14  C   UNL     1       1.067   3.147  19.032  0.00  0.00    +0.000 A 
ATOM     15  C   UNL     1       1.554   4.261  19.724  0.00  0.00    +0.000 A 
ATOM     16  C   UNL     1       2.727   4.932  19.332  0.00  0.00    +0.000 A 
ATOM     17  C   UNL     1       3.476   4.336  18.280  0.00  0.00    +0.000 A 
ATOM     18  C   UNL     1       4.731   4.570  17.673  0.00  0.00    +0.000 A 
ENDROOT
BRANCH  15  19
ATOM     19  O   UNL     1       0.860   4.743  20.802  0.00  0.00    +0.000 OA
ATOM     20  H   UNL     1      -0.059   4.910  20.538  0.00  0.00    +0.000 HD
ENDBRANCH  15  19
BRANCH  16  21
ATOM     21  C   UNL     1       3.080   6.311  19.874  0.00  0.00    +0.000 C 
BRANCH  21  22
ATOM     22  N   UNL     1       2.217   7.312  19.237  0.00  0.00    +0.000 NA
ATOM     23  C   UNL     1       1.764   8.392  20.109  0.00  0.00    +0.000 C 
ATOM     24  C   UNL     1       0.926   9.175  19.111  0.00  0.00    +0.000 C 
ATOM     25  C   UNL     1       1.705   9.054  17.801  0.00  0.00    +0.000 C 
ATOM     26  C   UNL     1       2.764   7.981  18.065  0.00  0.00    +0.000 C 
ENDBRANCH  21  22
ENDBRANCH  16  21
TORSDOF 3
ENDMDL
MODEL 4
REMARK VINA RESULT:      -7.1      0.964      1.339
REMARK  Name = 
REMARK  3 active torsions:
REMARK  status: ('A' for Active; 'I' for Inactive)
REMARK    1  A    between atoms: C_15  and  O_16
REMARK    2  A    between atoms: C_17  and  C_18
REMARK    3  A    between atoms: C_18  and  N_19
REMARK                            x       y       z     vdW  Elec       q    Type
REMARK                         _______ _______ _______ _____ _____    ______ ____
ROOT
ATOM      1  O   UNL     1       2.296   8.081  17.127  0.00  0.00    +0.000 OA
ATOM      2  C   UNL     1       2.028   8.320  18.299  0.00  0.00    +0.000 A 
ATOM      3  O   UNL     1       1.656   9.622  18.703  0.00  0.00    +0.000 OA
ATOM      4  C   UNL     1       1.090   9.900  19.982  0.00  0.00    +0.000 A 
ATOM      5  C   UNL     1       0.841  11.236  20.273  0.00  0.00    +0.000 A 
ATOM      6  C   UNL     1       0.271  11.553  21.502  0.00  0.00    +0.000 A 
ATOM      7  C   UNL     1      -0.054  10.536  22.412  0.00  0.00    +0.000 A 
ATOM      8  C   UNL     1       0.218   9.192  22.113  0.00  0.00    +0.000 A 
ATOM      9  C   UNL     1       0.805   8.868  20.895  0.00  0.00    +0.000 A 
ATOM     10  C   UNL     1       1.272   7.566  20.491  0.00  0.00    +0.000 A 
ATOM     11  O   UNL     1       1.165   6.460  21.261  0.00  0.00    +0.000 OA
ATOM     12  C   UNL     1       1.897   5.491  20.613  0.00  0.00    +0.000 A 
ATOM     13  C   UNL     1       2.062   4.175  21.031  0.00  0.00    +0.000 A 
ATOM     14  C   UNL     1       2.927   3.380  20.268  0.00  0.00    +0.000 A 
ATOM     15  C   UNL     1       3.668   3.930  19.216  0.00  0.00    +0.000 A 
ATOM     16  C   UNL     1       3.540   5.279  18.835  0.00  0.00    +0.000 A 
ATOM     17  C   UNL     1       2.515   6.025  19.480  0.00  0.00    +0.000 A 
ATOM     18  C   UNL     1       1.955   7.313  19.330  0.00  0.00    +0.000 A 
ENDROOT
BRANCH  15  19
ATOM     19  O   UNL     1       4.571   3.150  18.547  0.00  0.00    +0.000 OA
ATOM     20  H   UNL     1       4.160   2.294  18.341  0.00  0.00    +0.000 HD
ENDBRANCH  15  19
BRANCH  16  21
ATOM     21  C   UNL     1       4.557   5.952  17.924  0.00  0.00    +0.000 C 
BRANCH  21  22
ATOM     22  N   UNL     1       5.872   5.339  18.134  0.00  0.00    +0.000 NA
ATOM     23  C   UNL     1       6.680   5.162  16.931  0.00  0.00    +0.000 C 
ATOM     24  C   UNL     1       7.907   4.517  17.554  0.00  0.00    +0.000 C 
ATOM     25  C   UNL     1       8.055   5.227  18.899  0.00  0.00    +0.000 C 
ATOM     26  C   UNL     1       6.752   6.010  19.080  0.00  0.00    +0.000 C 
ENDBRANCH  21  22
ENDBRANCH  16  21
TORSDOF 3
ENDMDL
MODEL 5
REMARK VINA RESULT:      -7.0      1.360      1.845
REMARK  Name = 
REMARK  3 active torsions:
REMARK  status: ('A' for Active; 'I' for Inactive)
REMARK    1  A    between atoms: C_15  and  O_16
REMARK    2  A    between atoms: C_17  and  C_18
REMARK    3  A    between atoms: C_18  and  N_19
REMARK                            x       y       z     vdW  Elec       q    Type
REMARK                         _______ _______ _______ _____ _____    ______ ____
ROOT
ATOM      1  O   UNL     1       2.666   8.184  16.702  0.00  0.00    +0.000 OA
ATOM      2  C   UNL     1       2.423   8.213  17.904  0.00  0.00    +0.000 A 
ATOM      3  O   UNL     1       1.999   9.408  18.527  0.00  0.00    +0.000 OA
ATOM      4  C   UNL     1       1.460   9.441  19.846  0.00  0.00    +0.000 A 
ATOM      5  C   UNL     1       1.153  10.695  20.360  0.00  0.00    +0.000 A 
ATOM      6  C   UNL     1       0.606  10.775  21.637  0.00  0.00    +0.000 A 
ATOM      7  C   UNL     1       0.361   9.606  22.372  0.00  0.00    +0.000 A 
ATOM      8  C   UNL     1       0.690   8.346  21.849  0.00  0.00    +0.000 A 
ATOM      9  C   UNL     1       1.255   8.259  20.581  0.00  0.00    +0.000 A 
ATOM     10  C   UNL     1       1.774   7.068  19.957  0.00  0.00    +0.000 A 
ATOM     11  O   UNL     1       1.746   5.847  20.535  0.00  0.00    +0.000 OA
ATOM     12  C   UNL     1       2.504   5.039  19.719  0.00  0.00    +0.000 A 
ATOM     13  C   UNL     1       2.747   3.682  19.909  0.00  0.00    +0.000 A 
ATOM     14  C   UNL     1       3.627   3.072  19.007  0.00  0.00    +0.000 A 
ATOM     15  C   UNL     1       4.307   3.827  18.045  0.00  0.00    +0.000 A 
ATOM     16  C   UNL     1       4.101   5.211  17.895  0.00  0.00    +0.000 A 
ATOM     17  C   UNL     1       3.060   5.784  18.677  0.00  0.00    +0.000 A 
ATOM     18  C   UNL     1       2.432   7.048  18.755  0.00  0.00    +0.000 A 
ENDROOT
BRANCH  15  19
ATOM     19  O   UNL     1       5.227   3.217  17.235  0.00  0.00    +0.000 OA
ATOM     20  H   UNL     1       5.635   3.885  16.660  0.00  0.00    +0.000 HD
ENDBRANCH  15  19
BRANCH  16  21
ATOM     21  C   UNL     1       5.054   6.079  17.086  0.00  0.00    +0.000 C 
BRANCH  21  22
ATOM     22  N   UNL     1       6.193   6.459  17.929  0.00  0.00    +0.000 NA
ATOM     23  C   UNL     1       7.144   5.389  18.213  0.00  0.00    +0.000 C 
ATOM     24  C   UNL     1       8.124   6.159  19.083  0.00  0.00    +0.000 C 
ATOM     25  C   UNL     1       8.169   7.549  18.447  0.00  0.00    +0.000 C 
ATOM     26  C   UNL     1       7.007   7.567  17.450  0.00  0.00    +0.000 C 
ENDBRANCH  21  22
ENDBRANCH  16  21
TORSDOF 3
ENDMDL
MODEL 6
REMARK VINA RESULT:      -6.9      1.069      1.531
REMARK  Name = 
REMARK  3 active torsions:
REMARK  status: ('A' for Active; 'I' for Inactive)
REMARK    1  A    between atoms: C_15  and  O_16
REMARK    2  A    between atoms: C_17  and  C_18
REMARK    3  A    between atoms: C_18  and  N_19
REMARK                            x       y       z     vdW  Elec       q    Type
REMARK                         _______ _______ _______ _____ _____    ______ ____
ROOT
ATOM      1  O   UNL     1       4.222   6.944  16.662  0.00  0.00    +0.000 OA
ATOM      2  C   UNL     1       3.561   7.447  17.565  0.00  0.00    +0.000 A 
ATOM      3  O   UNL     1       3.216   8.816  17.531  0.00  0.00    +0.000 OA
ATOM      4  C   UNL     1       2.246   9.389  18.405  0.00  0.00    +0.000 A 
ATOM      5  C   UNL     1       2.060  10.763  18.311  0.00  0.00    +0.000 A 
ATOM      6  C   UNL     1       1.110  11.363  19.130  0.00  0.00    +0.000 A 
ATOM      7  C   UNL     1       0.352  10.584  20.016  0.00  0.00    +0.000 A 
ATOM      8  C   UNL     1       0.559   9.200  20.115  0.00  0.00    +0.000 A 
ATOM      9  C   UNL     1       1.522   8.595  19.312  0.00  0.00    +0.000 A 
ATOM     10  C   UNL     1       1.953   7.222  19.384  0.00  0.00    +0.000 A 
ATOM     11  O   UNL     1       1.438   6.319  20.248  0.00  0.00    +0.000 OA
ATOM     12  C   UNL     1       2.243   5.209  20.140  0.00  0.00    +0.000 A 
ATOM     13  C   UNL     1       2.086   4.014  20.834  0.00  0.00    +0.000 A 
ATOM     14  C   UNL     1       3.078   3.044  20.642  0.00  0.00    +0.000 A 
ATOM     15  C   UNL     1       4.218   3.323  19.882  0.00  0.00    +0.000 A 
ATOM     16  C   UNL     1       4.399   4.556  19.229  0.00  0.00    +0.000 A 
ATOM     17  C   UNL     1       3.300   5.458  19.262  0.00  0.00    +0.000 A 
ATOM     18  C   UNL     1       2.990   6.697  18.657  0.00  0.00    +0.000 A 
ENDROOT
BRANCH  15  19
ATOM     19  O   UNL     1       5.211   2.386  19.785  0.00  0.00    +0.000 OA
ATOM     20  H   UNL     1       5.412   2.044  20.672  0.00  0.00    +0.000 HD
ENDBRANCH  15  19
BRANCH  16  21
ATOM     21  C   UNL     1       5.755   4.979  18.679  0.00  0.00    +0.000 C 
BRANCH  21  22
ATOM     22  N   UNL     1       5.759   4.804  17.222  0.00  0.00    +0.000 NA
ATOM     23  C   UNL     1       7.079   4.777  16.600  0.00  0.00    +0.000 C 
ATOM     24  C   UNL     1       6.660   4.596  15.149  0.00  0.00    +0.000 C 
ATOM     25  C   UNL     1       5.447   3.669  15.228  0.00  0.00    +0.000 C 
ATOM     26  C   UNL     1       5.080   3.621  16.714  0.00  0.00    +0.000 C 
ENDBRANCH  21  22
ENDBRANCH  16  21
TORSDOF 3
ENDMDL
MODEL 7
REMARK VINA RESULT:      -6.8      3.303      7.542
REMARK  Name = 
REMARK  3 active torsions:
REMARK  status: ('A' for Active; 'I' for Inactive)
REMARK    1  A    between atoms: C_15  and  O_16
REMARK    2  A    between atoms: C_17  and  C_18
REMARK    3  A    between atoms: C_18  and  N_19
REMARK                            x       y       z     vdW  Elec       q    Type
REMARK                         _______ _______ _______ _____ _____    ______ ____
ROOT
ATOM      1  O   UNL     1       2.231  11.042  17.916  0.00  0.00    +0.000 OA
ATOM      2  C   UNL     1       1.938   9.978  18.449  0.00  0.00    +0.000 A 
ATOM      3  O   UNL     1       2.457   8.758  17.960  0.00  0.00    +0.000 OA
ATOM      4  C   UNL     1       2.362   7.533  18.684  0.00  0.00    +0.000 A 
ATOM      5  C   UNL     1       2.850   6.398  18.049  0.00  0.00    +0.000 A 
ATOM      6  C   UNL     1       2.797   5.183  18.725  0.00  0.00    +0.000 A 
ATOM      7  C   UNL     1       2.272   5.124  20.025  0.00  0.00    +0.000 A 
ATOM      8  C   UNL     1       1.767   6.274  20.649  0.00  0.00    +0.000 A 
ATOM      9  C   UNL     1       1.800   7.489  19.972  0.00  0.00    +0.000 A 
ATOM     10  C   UNL     1       1.204   8.726  20.409  0.00  0.00    +0.000 A 
ATOM     11  O   UNL     1       0.546   8.868  21.581  0.00  0.00    +0.000 OA
ATOM     12  C   UNL     1      -0.032  10.116  21.527  0.00  0.00    +0.000 A 
ATOM     13  C   UNL     1      -0.801  10.705  22.526  0.00  0.00    +0.000 A 
ATOM     14  C   UNL     1      -1.372  11.948  22.224  0.00  0.00    +0.000 A 
ATOM     15  C   UNL     1      -1.262  12.496  20.942  0.00  0.00    +0.000 A 
ATOM     16  C   UNL     1      -0.532  11.867  19.918  0.00  0.00    +0.000 A 
ATOM     17  C   UNL     1       0.211  10.712  20.288  0.00  0.00    +0.000 A 
ATOM     18  C   UNL     1       1.154   9.870  19.655  0.00  0.00    +0.000 A 
ENDROOT
BRANCH  15  19
ATOM     19  O   UNL     1      -1.906  13.669  20.653  0.00  0.00    +0.000 OA
ATOM     20  H   UNL     1      -1.280  14.279  20.230  0.00  0.00    +0.000 HD
ENDBRANCH  15  19
BRANCH  16  21
ATOM     21  C   UNL     1      -0.674  12.285  18.460  0.00  0.00    +0.000 C 
BRANCH  21  22
ATOM     22  N   UNL     1      -1.814  11.579  17.866  0.00  0.00    +0.000 NA
ATOM     23  C   UNL     1      -1.570  10.183  17.514  0.00  0.00    +0.000 C 
ATOM     24  C   UNL     1      -2.937   9.834  16.947  0.00  0.00    +0.000 C 
ATOM     25  C   UNL     1      -3.914  10.603  17.836  0.00  0.00    +0.000 C 
ATOM     26  C   UNL     1      -3.039  11.559  18.652  0.00  0.00    +0.000 C 
ENDBRANCH  21  22
ENDBRANCH  16  21
TORSDOF 3
ENDMDL
MODEL 8
REMARK VINA RESULT:      -6.8      5.919      8.958
REMARK  Name = 
REMARK  3 active torsions:
REMARK  status: ('A' for Active; 'I' for Inactive)
REMARK    1  A    between atoms: C_15  and  O_16
REMARK    2  A    between atoms: C_17  and  C_18
REMARK    3  A    between atoms: C_18  and  N_19
REMARK                            x       y       z     vdW  Elec       q    Type
REMARK                         _______ _______ _______ _____ _____    ______ ____
ROOT
ATOM      1  O   UNL     1      -1.886  14.327  20.660  0.00  0.00    +0.000 OA
ATOM      2  C   UNL     1      -2.970  13.768  20.783  0.00  0.00    +0.000 A 
ATOM      3  O   UNL     1      -3.900  14.201  21.755  0.00  0.00    +0.000 OA
ATOM      4  C   UNL     1      -5.258  13.766  21.772  0.00  0.00    +0.000 A 
ATOM      5  C   UNL     1      -6.040  14.213  22.828  0.00  0.00    +0.000 A 
ATOM      6  C   UNL     1      -7.377  13.830  22.875  0.00  0.00    +0.000 A 
ATOM      7  C   UNL     1      -7.913  13.022  21.862  0.00  0.00    +0.000 A 
ATOM      8  C   UNL     1      -7.109  12.562  20.809  0.00  0.00    +0.000 A 
ATOM      9  C   UNL     1      -5.767  12.925  20.765  0.00  0.00    +0.000 A 
ATOM     10  C   UNL     1      -4.779  12.433  19.838  0.00  0.00    +0.000 A 
ATOM     11  O   UNL     1      -5.053  11.554  18.848  0.00  0.00    +0.000 OA
ATOM     12  C   UNL     1      -3.829  11.193  18.332  0.00  0.00    +0.000 A 
ATOM     13  C   UNL     1      -3.615  10.313  17.277  0.00  0.00    +0.000 A 
ATOM     14  C   UNL     1      -2.281  10.013  16.973  0.00  0.00    +0.000 A 
ATOM     15  C   UNL     1      -1.238  10.490  17.774  0.00  0.00    +0.000 A 
ATOM     16  C   UNL     1      -1.465  11.334  18.877  0.00  0.00    +0.000 A 
ATOM     17  C   UNL     1      -2.798  11.795  19.056  0.00  0.00    +0.000 A 
ATOM     18  C   UNL     1      -3.441  12.724  19.906  0.00  0.00    +0.000 A 
ENDROOT
BRANCH  15  19
ATOM     19  O   UNL     1       0.049  10.107  17.505  0.00  0.00    +0.000 OA
ATOM     20  H   UNL     1       0.053   9.543  16.714  0.00  0.00    +0.000 HD
ENDBRANCH  15  19
BRANCH  16  21
ATOM     21  C   UNL     1      -0.390  11.589  19.925  0.00  0.00    +0.000 C 
BRANCH  21  22
ATOM     22  N   UNL     1      -0.574  10.655  21.041  0.00  0.00    +0.000 NA
ATOM     23  C   UNL     1       0.410   9.580  21.125  0.00  0.00    +0.000 C 
ATOM     24  C   UNL     1      -0.120   8.862  22.357  0.00  0.00    +0.000 C 
ATOM     25  C   UNL     1      -0.614   9.993  23.259  0.00  0.00    +0.000 C 
ATOM     26  C   UNL     1      -0.605  11.241  22.372  0.00  0.00    +0.000 C 
ENDBRANCH  21  22
ENDBRANCH  16  21
TORSDOF 3
ENDMDL
MODEL 9
REMARK VINA RESULT:      -6.8      2.218      4.502
REMARK  Name = 
REMARK  3 active torsions:
REMARK  status: ('A' for Active; 'I' for Inactive)
REMARK    1  A    between atoms: C_15  and  O_16
REMARK    2  A    between atoms: C_17  and  C_18
REMARK    3  A    between atoms: C_18  and  N_19
REMARK                            x       y       z     vdW  Elec       q    Type
REMARK                         _______ _______ _______ _____ _____    ______ ____
ROOT
ATOM      1  O   UNL     1       1.477   8.675  22.274  0.00  0.00    +0.000 OA
ATOM      2  C   UNL     1       0.920   9.112  21.274  0.00  0.00    +0.000 A 
ATOM      3  O   UNL     1      -0.179   9.993  21.385  0.00  0.00    +0.000 OA
ATOM      4  C   UNL     1      -0.696  10.726  20.277  0.00  0.00    +0.000 A 
ATOM      5  C   UNL     1      -1.825  11.499  20.516  0.00  0.00    +0.000 A 
ATOM      6  C   UNL     1      -2.353  12.247  19.469  0.00  0.00    +0.000 A 
ATOM      7  C   UNL     1      -1.738  12.225  18.208  0.00  0.00    +0.000 A 
ATOM      8  C   UNL     1      -0.607  11.429  17.974  0.00  0.00    +0.000 A 
ATOM      9  C   UNL     1      -0.085  10.662  19.011  0.00  0.00    +0.000 A 
ATOM     10  C   UNL     1       0.977   9.694  18.906  0.00  0.00    +0.000 A 
ATOM     11  O   UNL     1       1.636   9.426  17.757  0.00  0.00    +0.000 OA
ATOM     12  C   UNL     1       2.414   8.324  18.029  0.00  0.00    +0.000 A 
ATOM     13  C   UNL     1       3.281   7.696  17.142  0.00  0.00    +0.000 A 
ATOM     14  C   UNL     1       3.907   6.530  17.600  0.00  0.00    +0.000 A 
ATOM     15  C   UNL     1       3.576   5.976  18.841  0.00  0.00    +0.000 A 
ATOM     16  C   UNL     1       2.653   6.586  19.711  0.00  0.00    +0.000 A 
ATOM     17  C   UNL     1       2.176   7.870  19.328  0.00  0.00    +0.000 A 
ATOM     18  C   UNL     1       1.380   8.873  19.927  0.00  0.00    +0.000 A 
ENDROOT
BRANCH  15  19
ATOM     19  O   UNL     1       4.139   4.788  19.222  0.00  0.00    +0.000 OA
ATOM     20  H   UNL     1       3.519   4.066  19.027  0.00  0.00    +0.000 HD
ENDBRANCH  15  19
BRANCH  16  21
ATOM     21  C   UNL     1       2.057   5.839  20.896  0.00  0.00    +0.000 C 
BRANCH  21  22
ATOM     22  N   UNL     1       1.977   4.410  20.574  0.00  0.00    +0.000 NA
ATOM     23  C   UNL     1       2.087   3.505  21.714  0.00  0.00    +0.000 C 
ATOM     24  C   UNL     1       1.970   2.178  20.983  0.00  0.00    +0.000 C 
ATOM     25  C   UNL     1       0.954   2.455  19.875  0.00  0.00    +0.000 C 
ATOM     26  C   UNL     1       0.783   3.976  19.864  0.00  0.00    +0.000 C 
ENDBRANCH  21  22
ENDBRANCH  16  21
TORSDOF 3
ENDMDL
