MODEL 1
REMARK VINA RESULT:      -7.4      0.000      0.000
REMARK  Name = 
REMARK  3 active torsions:
REMARK  status: ('A' for Active; 'I' for Inactive)
REMARK    1  A    between atoms: N_10  and  C_11
REMARK    2  A    between atoms: C_11  and  N_12
REMARK    3  A    between atoms: N_15  and  C_16
REMARK                            x       y       z     vdW  Elec       q    Type
REMARK                         _______ _______ _______ _____ _____    ______ ____
ROOT
ATOM      1  N   UNL     1       4.210   5.494  18.201  0.00  0.00    +0.000 NA
ATOM      2  C   UNL     1       4.731   4.169  17.804  0.00  0.00    +0.000 C 
ATOM      3  C   UNL     1       4.770   3.897  16.284  0.00  0.00    +0.000 C 
ATOM      4  N   UNL     1       5.609   4.915  15.644  0.00  0.00    +0.000 N 
ATOM      5  C   UNL     1       5.185   6.304  15.917  0.00  0.00    +0.000 C 
ATOM      6  C   UNL     1       4.921   6.540  17.433  0.00  0.00    +0.000 C 
ENDROOT
BRANCH   4   7
ATOM      7  C   UNL     1       6.239   4.648  14.431  0.00  0.00    +0.000 A 
ATOM      8  C   UNL     1       7.371   5.343  13.977  0.00  0.00    +0.000 A 
ATOM      9  C   UNL     1       7.925   5.103  12.711  0.00  0.00    +0.000 A 
ATOM     10  C   UNL     1       7.355   4.161  11.860  0.00  0.00    +0.000 A 
ATOM     11  C   UNL     1       6.238   3.452  12.283  0.00  0.00    +0.000 A 
ATOM     12  C   UNL     1       5.695   3.695  13.550  0.00  0.00    +0.000 A 
ENDBRANCH   4   7
BRANCH   1  13
ATOM     13  C   UNL     1       2.755   5.609  18.120  0.00  0.00    +0.000 C 
BRANCH  13  23
ATOM     14  O   UNL     1       2.192   5.093  20.983  0.00  0.00    +0.000 OA
ATOM     15  C   UNL     1       2.008   6.176  20.446  0.00  0.00    +0.000 A 
ATOM     16  O   UNL     1       1.490   7.279  21.150  0.00  0.00    +0.000 OA
ATOM     17  C   UNL     1       1.488   8.258  20.180  0.00  0.00    +0.000 A 
ATOM     18  C   UNL     1       1.031   9.547  20.327  0.00  0.00    +0.000 A 
ATOM     19  C   UNL     1       1.098  10.370  19.200  0.00  0.00    +0.000 A 
ATOM     20  C   UNL     1       1.633   9.854  18.015  0.00  0.00    +0.000 A 
ATOM     21  N   UNL     1       2.090   8.584  17.866  0.00  0.00    +0.000 NA
ATOM     22  C   UNL     1       1.983   7.828  18.968  0.00  0.00    +0.000 A 
ATOM     23  N   UNL     1       2.280   6.502  19.138  0.00  0.00    +0.000 N 
ENDBRANCH  13  23
ENDBRANCH   1  13
TORSDOF 3
ENDMDL
MODEL 2
REMARK VINA RESULT:      -7.4      2.299      3.652
REMARK  Name = 
REMARK  3 active torsions:
REMARK  status: ('A' for Active; 'I' for Inactive)
REMARK    1  A    between atoms: N_10  and  C_11
REMARK    2  A    between atoms: C_11  and  N_12
REMARK    3  A    between atoms: N_15  and  C_16
REMARK                            x       y       z     vdW  Elec       q    Type
REMARK                         _______ _______ _______ _____ _____    ______ ____
ROOT
ATOM      1  N   UNL     1       5.919   4.303  18.719  0.00  0.00    +0.000 NA
ATOM      2  C   UNL     1       5.109   3.569  17.725  0.00  0.00    +0.000 C 
ATOM      3  C   UNL     1       5.028   4.216  16.325  0.00  0.00    +0.000 C 
ATOM      4  N   UNL     1       6.385   4.346  15.786  0.00  0.00    +0.000 N 
ATOM      5  C   UNL     1       7.310   5.099  16.657  0.00  0.00    +0.000 C 
ATOM      6  C   UNL     1       7.243   4.607  18.133  0.00  0.00    +0.000 C 
ENDROOT
BRANCH   4   7
ATOM      7  C   UNL     1       6.595   4.394  14.409  0.00  0.00    +0.000 A 
ATOM      8  C   UNL     1       5.968   3.527  13.501  0.00  0.00    +0.000 A 
ATOM      9  C   UNL     1       6.270   3.551  12.130  0.00  0.00    +0.000 A 
ATOM     10  C   UNL     1       7.216   4.441  11.634  0.00  0.00    +0.000 A 
ATOM     11  C   UNL     1       7.850   5.316  12.507  0.00  0.00    +0.000 A 
ATOM     12  C   UNL     1       7.538   5.288  13.872  0.00  0.00    +0.000 A 
ENDBRANCH   4   7
BRANCH   1  13
ATOM     13  C   UNL     1       5.253   5.479  19.277  0.00  0.00    +0.000 C 
BRANCH  13  23
ATOM     14  O   UNL     1       3.182   6.945  17.744  0.00  0.00    +0.000 OA
ATOM     15  C   UNL     1       2.926   6.043  18.530  0.00  0.00    +0.000 A 
ATOM     16  O   UNL     1       1.605   5.632  18.788  0.00  0.00    +0.000 OA
ATOM     17  C   UNL     1       1.799   4.602  19.682  0.00  0.00    +0.000 A 
ATOM     18  C   UNL     1       0.815   3.864  20.299  0.00  0.00    +0.000 A 
ATOM     19  C   UNL     1       1.236   2.879  21.196  0.00  0.00    +0.000 A 
ATOM     20  C   UNL     1       2.607   2.689  21.398  0.00  0.00    +0.000 A 
ATOM     21  N   UNL     1       3.582   3.411  20.788  0.00  0.00    +0.000 NA
ATOM     22  C   UNL     1       3.127   4.357  19.956  0.00  0.00    +0.000 A 
ATOM     23  N   UNL     1       3.830   5.294  19.246  0.00  0.00    +0.000 N 
ENDBRANCH  13  23
ENDBRANCH   1  13
TORSDOF 3
ENDMDL
MODEL 3
REMARK VINA RESULT:      -7.2      2.283      3.519
REMARK  Name = 
REMARK  3 active torsions:
REMARK  status: ('A' for Active; 'I' for Inactive)
REMARK    1  A    between atoms: N_10  and  C_11
REMARK    2  A    between atoms: C_11  and  N_12
REMARK    3  A    between atoms: N_15  and  C_16
REMARK                            x       y       z     vdW  Elec       q    Type
REMARK                         _______ _______ _______ _____ _____    ______ ____
ROOT
ATOM      1  N   UNL     1       5.913   4.329  18.756  0.00  0.00    +0.000 NA
ATOM      2  C   UNL     1       5.135   3.592  17.738  0.00  0.00    +0.000 C 
ATOM      3  C   UNL     1       5.120   4.223  16.328  0.00  0.00    +0.000 C 
ATOM      4  N   UNL     1       6.500   4.330  15.844  0.00  0.00    +0.000 N 
ATOM      5  C   UNL     1       7.398   5.082  16.744  0.00  0.00    +0.000 C 
ATOM      6  C   UNL     1       7.264   4.610  18.222  0.00  0.00    +0.000 C 
ENDROOT
BRANCH   4   7
ATOM      7  C   UNL     1       6.767   4.359  14.477  0.00  0.00    +0.000 A 
ATOM      8  C   UNL     1       7.654   5.269  13.881  0.00  0.00    +0.000 A 
ATOM      9  C   UNL     1       7.832   5.323  12.490  0.00  0.00    +0.000 A 
ATOM     10  C   UNL     1       7.117   4.469  11.656  0.00  0.00    +0.000 A 
ATOM     11  C   UNL     1       6.235   3.553  12.216  0.00  0.00    +0.000 A 
ATOM     12  C   UNL     1       6.070   3.503  13.605  0.00  0.00    +0.000 A 
ENDBRANCH   4   7
BRANCH   1  13
ATOM     13  C   UNL     1       5.239   5.520  19.272  0.00  0.00    +0.000 C 
BRANCH  13  23
ATOM     14  O   UNL     1       3.146   6.995  17.780  0.00  0.00    +0.000 OA
ATOM     15  C   UNL     1       2.902   6.079  18.552  0.00  0.00    +0.000 A 
ATOM     16  O   UNL     1       1.587   5.653  18.813  0.00  0.00    +0.000 OA
ATOM     17  C   UNL     1       1.795   4.609  19.688  0.00  0.00    +0.000 A 
ATOM     18  C   UNL     1       0.821   3.853  20.299  0.00  0.00    +0.000 A 
ATOM     19  C   UNL     1       1.256   2.856  21.175  0.00  0.00    +0.000 A 
ATOM     20  C   UNL     1       2.630   2.673  21.364  0.00  0.00    +0.000 A 
ATOM     21  N   UNL     1       3.595   3.412  20.759  0.00  0.00    +0.000 NA
ATOM     22  C   UNL     1       3.127   4.370  19.947  0.00  0.00    +0.000 A 
ATOM     23  N   UNL     1       3.818   5.324  19.248  0.00  0.00    +0.000 N 
ENDBRANCH  13  23
ENDBRANCH   1  13
TORSDOF 3
ENDMDL
MODEL 4
REMARK VINA RESULT:      -7.1      0.126      1.006
REMARK  Name = 
REMARK  3 active torsions:
REMARK  status: ('A' for Active; 'I' for Inactive)
REMARK    1  A    between atoms: N_10  and  C_11
REMARK    2  A    between atoms: C_11  and  N_12
REMARK    3  A    between atoms: N_15  and  C_16
REMARK                            x       y       z     vdW  Elec       q    Type
REMARK                         _______ _______ _______ _____ _____    ______ ____
ROOT
ATOM      1  N   UNL     1       4.200   5.631  18.193  0.00  0.00    +0.000 NA
ATOM      2  C   UNL     1       4.769   4.318  17.825  0.00  0.00    +0.000 C 
ATOM      3  C   UNL     1       4.751   3.984  16.317  0.00  0.00    +0.000 C 
ATOM      4  N   UNL     1       5.507   5.015  15.597  0.00  0.00    +0.000 N 
ATOM      5  C   UNL     1       5.025   6.391  15.834  0.00  0.00    +0.000 C 
ATOM      6  C   UNL     1       4.819   6.678  17.350  0.00  0.00    +0.000 C 
ENDROOT
BRANCH   4   7
ATOM      7  C   UNL     1       6.093   4.727  14.366  0.00  0.00    +0.000 A 
ATOM      8  C   UNL     1       5.602   3.752  13.485  0.00  0.00    +0.000 A 
ATOM      9  C   UNL     1       6.270   3.432  12.293  0.00  0.00    +0.000 A 
ATOM     10  C   UNL     1       7.455   4.078  11.954  0.00  0.00    +0.000 A 
ATOM     11  C   UNL     1       7.963   5.053  12.804  0.00  0.00    +0.000 A 
ATOM     12  C   UNL     1       7.286   5.369  13.988  0.00  0.00    +0.000 A 
ENDBRANCH   4   7
BRANCH   1  13
ATOM     13  C   UNL     1       2.738   5.671  18.178  0.00  0.00    +0.000 C 
BRANCH  13  23
ATOM     14  O   UNL     1       2.199   5.120  21.039  0.00  0.00    +0.000 OA
ATOM     15  C   UNL     1       2.004   6.208  20.515  0.00  0.00    +0.000 A 
ATOM     16  O   UNL     1       1.483   7.300  21.234  0.00  0.00    +0.000 OA
ATOM     17  C   UNL     1       1.467   8.289  20.275  0.00  0.00    +0.000 A 
ATOM     18  C   UNL     1       1.002   9.573  20.438  0.00  0.00    +0.000 A 
ATOM     19  C   UNL     1       1.056  10.409  19.320  0.00  0.00    +0.000 A 
ATOM     20  C   UNL     1       1.586   9.909  18.126  0.00  0.00    +0.000 A 
ATOM     21  N   UNL     1       2.051   8.644  17.961  0.00  0.00    +0.000 NA
ATOM     22  C   UNL     1       1.957   7.876  19.055  0.00  0.00    +0.000 A 
ATOM     23  N   UNL     1       2.264   6.550  19.209  0.00  0.00    +0.000 N 
ENDBRANCH  13  23
ENDBRANCH   1  13
TORSDOF 3
ENDMDL
MODEL 5
REMARK VINA RESULT:      -7.0      1.670      3.235
REMARK  Name = 
REMARK  3 active torsions:
REMARK  status: ('A' for Active; 'I' for Inactive)
REMARK    1  A    between atoms: N_10  and  C_11
REMARK    2  A    between atoms: C_11  and  N_12
REMARK    3  A    between atoms: N_15  and  C_16
REMARK                            x       y       z     vdW  Elec       q    Type
REMARK                         _______ _______ _______ _____ _____    ______ ____
ROOT
ATOM      1  N   UNL     1       4.331   6.116  17.893  0.00  0.00    +0.000 NA
ATOM      2  C   UNL     1       4.856   4.750  17.691  0.00  0.00    +0.000 C 
ATOM      3  C   UNL     1       4.829   4.235  16.234  0.00  0.00    +0.000 C 
ATOM      4  N   UNL     1       5.619   5.145  15.398  0.00  0.00    +0.000 N 
ATOM      5  C   UNL     1       5.183   6.555  15.463  0.00  0.00    +0.000 C 
ATOM      6  C   UNL     1       4.986   7.031  16.932  0.00  0.00    +0.000 C 
ENDROOT
BRANCH   4   7
ATOM      7  C   UNL     1       6.197   4.690  14.214  0.00  0.00    +0.000 A 
ATOM      8  C   UNL     1       7.362   5.243  13.661  0.00  0.00    +0.000 A 
ATOM      9  C   UNL     1       7.865   4.815  12.423  0.00  0.00    +0.000 A 
ATOM     10  C   UNL     1       7.208   3.823  11.701  0.00  0.00    +0.000 A 
ATOM     11  C   UNL     1       6.055   3.252  12.226  0.00  0.00    +0.000 A 
ATOM     12  C   UNL     1       5.565   3.682  13.464  0.00  0.00    +0.000 A 
ENDBRANCH   4   7
BRANCH   1  13
ATOM     13  C   UNL     1       2.872   6.202  17.866  0.00  0.00    +0.000 C 
BRANCH  13  23
ATOM     14  O   UNL     1       2.101   7.724  20.289  0.00  0.00    +0.000 OA
ATOM     15  C   UNL     1       2.032   6.506  20.209  0.00  0.00    +0.000 A 
ATOM     16  O   UNL     1       1.589   5.712  21.283  0.00  0.00    +0.000 OA
ATOM     17  C   UNL     1       1.643   4.446  20.742  0.00  0.00    +0.000 A 
ATOM     18  C   UNL     1       1.349   3.270  21.392  0.00  0.00    +0.000 A 
ATOM     19  C   UNL     1       1.497   2.091  20.657  0.00  0.00    +0.000 A 
ATOM     20  C   UNL     1       1.909   2.172  19.322  0.00  0.00    +0.000 A 
ATOM     21  N   UNL     1       2.195   3.331  18.675  0.00  0.00    +0.000 NA
ATOM     22  C   UNL     1       2.060   4.431  19.429  0.00  0.00    +0.000 A 
ATOM     23  N   UNL     1       2.333   5.735  19.111  0.00  0.00    +0.000 N 
ENDBRANCH  13  23
ENDBRANCH   1  13
TORSDOF 3
ENDMDL
MODEL 6
REMARK VINA RESULT:      -6.9      2.251      3.712
REMARK  Name = 
REMARK  3 active torsions:
REMARK  status: ('A' for Active; 'I' for Inactive)
REMARK    1  A    between atoms: N_10  and  C_11
REMARK    2  A    between atoms: C_11  and  N_12
REMARK    3  A    between atoms: N_15  and  C_16
REMARK                            x       y       z     vdW  Elec       q    Type
REMARK                         _______ _______ _______ _____ _____    ______ ____
ROOT
ATOM      1  N   UNL     1       5.548   6.313  18.329  0.00  0.00    +0.000 NA
ATOM      2  C   UNL     1       6.918   6.242  17.778  0.00  0.00    +0.000 C 
ATOM      3  C   UNL     1       7.162   5.119  16.746  0.00  0.00    +0.000 C 
ATOM      4  N   UNL     1       6.239   5.302  15.622  0.00  0.00    +0.000 N 
ATOM      5  C   UNL     1       4.816   5.353  16.013  0.00  0.00    +0.000 C 
ATOM      6  C   UNL     1       4.579   6.319  17.211  0.00  0.00    +0.000 C 
ENDROOT
BRANCH   4   7
ATOM      7  C   UNL     1       6.556   4.801  14.361  0.00  0.00    +0.000 A 
ATOM      8  C   UNL     1       7.597   5.307  13.567  0.00  0.00    +0.000 A 
ATOM      9  C   UNL     1       7.830   4.831  12.267  0.00  0.00    +0.000 A 
ATOM     10  C   UNL     1       7.020   3.839  11.724  0.00  0.00    +0.000 A 
ATOM     11  C   UNL     1       5.985   3.314  12.489  0.00  0.00    +0.000 A 
ATOM     12  C   UNL     1       5.764   3.791  13.786  0.00  0.00    +0.000 A 
ENDBRANCH   4   7
BRANCH   1  13
ATOM     13  C   UNL     1       5.259   5.294  19.336  0.00  0.00    +0.000 C 
BRANCH  13  23
ATOM     14  O   UNL     1       2.950   7.025  20.012  0.00  0.00    +0.000 OA
ATOM     15  C   UNL     1       2.840   5.848  19.699  0.00  0.00    +0.000 A 
ATOM     16  O   UNL     1       1.590   5.203  19.649  0.00  0.00    +0.000 OA
ATOM     17  C   UNL     1       1.940   3.938  19.231  0.00  0.00    +0.000 A 
ATOM     18  C   UNL     1       1.086   2.873  19.055  0.00  0.00    +0.000 A 
ATOM     19  C   UNL     1       1.660   1.667  18.648  0.00  0.00    +0.000 A 
ATOM     20  C   UNL     1       3.041   1.614  18.428  0.00  0.00    +0.000 A 
ATOM     21  N   UNL     1       3.887   2.662  18.595  0.00  0.00    +0.000 NA
ATOM     22  C   UNL     1       3.292   3.790  19.008  0.00  0.00    +0.000 A 
ATOM     23  N   UNL     1       3.856   4.994  19.336  0.00  0.00    +0.000 N 
ENDBRANCH  13  23
ENDBRANCH   1  13
TORSDOF 3
ENDMDL
MODEL 7
REMARK VINA RESULT:      -6.8      2.799      3.622
REMARK  Name = 
REMARK  3 active torsions:
REMARK  status: ('A' for Active; 'I' for Inactive)
REMARK    1  A    between atoms: N_10  and  C_11
REMARK    2  A    between atoms: C_11  and  N_12
REMARK    3  A    between atoms: N_15  and  C_16
REMARK                            x       y       z     vdW  Elec       q    Type
REMARK                         _______ _______ _______ _____ _____    ______ ____
ROOT
ATOM      1  N   UNL     1       5.449   4.875  18.531  0.00  0.00    +0.000 NA
ATOM      2  C   UNL     1       6.789   5.226  18.016  0.00  0.00    +0.000 C 
ATOM      3  C   UNL     1       7.248   4.443  16.767  0.00  0.00    +0.000 C 
ATOM      4  N   UNL     1       6.283   4.670  15.687  0.00  0.00    +0.000 N 
ATOM      5  C   UNL     1       4.891   4.322  16.040  0.00  0.00    +0.000 C 
ATOM      6  C   UNL     1       4.477   4.921  17.416  0.00  0.00    +0.000 C 
ENDROOT
BRANCH   4   7
ATOM      7  C   UNL     1       6.673   4.544  14.355  0.00  0.00    +0.000 A 
ATOM      8  C   UNL     1       7.606   5.394  13.739  0.00  0.00    +0.000 A 
ATOM      9  C   UNL     1       7.909   5.288  12.373  0.00  0.00    +0.000 A 
ATOM     10  C   UNL     1       7.278   4.332  11.584  0.00  0.00    +0.000 A 
ATOM     11  C   UNL     1       6.354   3.473  12.166  0.00  0.00    +0.000 A 
ATOM     12  C   UNL     1       6.063   3.582  13.531  0.00  0.00    +0.000 A 
ENDBRANCH   4   7
BRANCH   1  13
ATOM     13  C   UNL     1       5.409   3.617  19.276  0.00  0.00    +0.000 C 
BRANCH  13  23
ATOM     14  O   UNL     1       4.292   1.031  18.357  0.00  0.00    +0.000 OA
ATOM     15  C   UNL     1       3.612   1.920  18.850  0.00  0.00    +0.000 A 
ATOM     16  O   UNL     1       2.220   1.794  19.009  0.00  0.00    +0.000 OA
ATOM     17  C   UNL     1       1.895   2.987  19.616  0.00  0.00    +0.000 A 
ATOM     18  C   UNL     1       0.631   3.406  19.963  0.00  0.00    +0.000 A 
ATOM     19  C   UNL     1       0.525   4.670  20.548  0.00  0.00    +0.000 A 
ATOM     20  C   UNL     1       1.689   5.416  20.763  0.00  0.00    +0.000 A 
ATOM     21  N   UNL     1       2.939   5.005  20.428  0.00  0.00    +0.000 NA
ATOM     22  C   UNL     1       2.985   3.797  19.849  0.00  0.00    +0.000 A 
ATOM     23  N   UNL     1       4.062   3.127  19.333  0.00  0.00    +0.000 N 
ENDBRANCH  13  23
ENDBRANCH   1  13
TORSDOF 3
ENDMDL
MODEL 8
REMARK VINA RESULT:      -6.7      2.170      7.589
REMARK  Name = 
REMARK  3 active torsions:
REMARK  status: ('A' for Active; 'I' for Inactive)
REMARK    1  A    between atoms: N_10  and  C_11
REMARK    2  A    between atoms: C_11  and  N_12
REMARK    3  A    between atoms: N_15  and  C_16
REMARK                            x       y       z     vdW  Elec       q    Type
REMARK                         _______ _______ _______ _____ _____    ______ ____
ROOT
ATOM      1  N   UNL     1       3.304   4.704  18.392  0.00  0.00    +0.000 NA
ATOM      2  C   UNL     1       2.111   4.660  19.263  0.00  0.00    +0.000 C 
ATOM      3  C   UNL     1       2.033   5.765  20.340  0.00  0.00    +0.000 C 
ATOM      4  N   UNL     1       2.052   7.072  19.676  0.00  0.00    +0.000 N 
ATOM      5  C   UNL     1       3.218   7.283  18.794  0.00  0.00    +0.000 C 
ATOM      6  C   UNL     1       3.452   6.071  17.845  0.00  0.00    +0.000 C 
ENDROOT
BRANCH   4   7
ATOM      7  C   UNL     1       1.489   8.186  20.297  0.00  0.00    +0.000 A 
ATOM      8  C   UNL     1       1.145   8.221  21.657  0.00  0.00    +0.000 A 
ATOM      9  C   UNL     1       0.501   9.330  22.226  0.00  0.00    +0.000 A 
ATOM     10  C   UNL     1       0.177  10.434  21.443  0.00  0.00    +0.000 A 
ATOM     11  C   UNL     1       0.511  10.431  20.094  0.00  0.00    +0.000 A 
ATOM     12  C   UNL     1       1.158   9.322  19.538  0.00  0.00    +0.000 A 
ENDBRANCH   4   7
BRANCH   1  13
ATOM     13  C   UNL     1       4.523   4.203  19.026  0.00  0.00    +0.000 C 
BRANCH  13  23
ATOM     14  O   UNL     1       7.047   5.511  19.864  0.00  0.00    +0.000 OA
ATOM     15  C   UNL     1       6.794   5.216  18.704  0.00  0.00    +0.000 A 
ATOM     16  O   UNL     1       7.688   5.493  17.653  0.00  0.00    +0.000 OA
ATOM     17  C   UNL     1       7.019   4.970  16.567  0.00  0.00    +0.000 A 
ATOM     18  C   UNL     1       7.438   5.010  15.257  0.00  0.00    +0.000 A 
ATOM     19  C   UNL     1       6.587   4.438  14.308  0.00  0.00    +0.000 A 
ATOM     20  C   UNL     1       5.390   3.853  14.735  0.00  0.00    +0.000 A 
ATOM     21  N   UNL     1       4.975   3.807  16.027  0.00  0.00    +0.000 NA
ATOM     22  C   UNL     1       5.814   4.388  16.896  0.00  0.00    +0.000 A 
ATOM     23  N   UNL     1       5.667   4.576  18.244  0.00  0.00    +0.000 N 
ENDBRANCH  13  23
ENDBRANCH   1  13
TORSDOF 3
ENDMDL
MODEL 9
REMARK VINA RESULT:      -6.7      3.284      8.393
REMARK  Name = 
REMARK  3 active torsions:
REMARK  status: ('A' for Active; 'I' for Inactive)
REMARK    1  A    between atoms: N_10  and  C_11
REMARK    2  A    between atoms: C_11  and  N_12
REMARK    3  A    between atoms: N_15  and  C_16
REMARK                            x       y       z     vdW  Elec       q    Type
REMARK                         _______ _______ _______ _____ _____    ______ ____
ROOT
ATOM      1  N   UNL     1       2.795   7.549  18.507  0.00  0.00    +0.000 NA
ATOM      2  C   UNL     1       2.413   8.949  18.225  0.00  0.00    +0.000 C 
ATOM      3  C   UNL     1       1.033   9.384  18.767  0.00  0.00    +0.000 C 
ATOM      4  N   UNL     1       1.019   9.202  20.222  0.00  0.00    +0.000 N 
ATOM      5  C   UNL     1       1.345   7.830  20.661  0.00  0.00    +0.000 C 
ATOM      6  C   UNL     1       2.618   7.283  19.952  0.00  0.00    +0.000 C 
ENDROOT
BRANCH   4   7
ATOM      7  C   UNL     1       0.163   9.961  21.018  0.00  0.00    +0.000 A 
ATOM      8  C   UNL     1      -0.373  11.195  20.619  0.00  0.00    +0.000 A 
ATOM      9  C   UNL     1      -1.163  11.969  21.483  0.00  0.00    +0.000 A 
ATOM     10  C   UNL     1      -1.431  11.530  22.775  0.00  0.00    +0.000 A 
ATOM     11  C   UNL     1      -0.918  10.310  23.198  0.00  0.00    +0.000 A 
ATOM     12  C   UNL     1      -0.136   9.542  22.327  0.00  0.00    +0.000 A 
ENDBRANCH   4   7
BRANCH   1  13
ATOM     13  C   UNL     1       2.126   6.567  17.655  0.00  0.00    +0.000 C 
BRANCH  13  23
ATOM     14  O   UNL     1       4.826   5.913  16.624  0.00  0.00    +0.000 OA
ATOM     15  C   UNL     1       4.090   5.091  17.151  0.00  0.00    +0.000 A 
ATOM     16  O   UNL     1       4.462   3.742  17.298  0.00  0.00    +0.000 OA
ATOM     17  C   UNL     1       3.370   3.217  17.954  0.00  0.00    +0.000 A 
ATOM     18  C   UNL     1       3.191   1.900  18.312  0.00  0.00    +0.000 A 
ATOM     19  C   UNL     1       1.991   1.579  18.949  0.00  0.00    +0.000 A 
ATOM     20  C   UNL     1       1.064   2.596  19.200  0.00  0.00    +0.000 A 
ATOM     21  N   UNL     1       1.237   3.897  18.854  0.00  0.00    +0.000 NA
ATOM     22  C   UNL     1       2.393   4.150  18.225  0.00  0.00    +0.000 A 
ATOM     23  N   UNL     1       2.844   5.326  17.686  0.00  0.00    +0.000 N 
ENDBRANCH  13  23
ENDBRANCH   1  13
TORSDOF 3
ENDMDL
