MODEL 1
REMARK VINA RESULT:      -7.7      0.000      0.000
REMARK  Name = 
REMARK  6 active torsions:
REMARK  status: ('A' for Active; 'I' for Inactive)
REMARK    1  A    between atoms: C_1  and  O_2
REMARK    2  A    between atoms: O_2  and  C_3
REMARK    3  A    between atoms: C_5  and  C_6
REMARK    4  A    between atoms: N_10  and  C_11
REMARK    5  A    between atoms: N_21  and  C_22
REMARK    6  A    between atoms: C_30  and  O_31
REMARK                            x       y       z     vdW  Elec       q    Type
REMARK                         _______ _______ _______ _____ _____    ______ ____
ROOT
ATOM      1  C   UNL     1       0.695  10.950  19.347  0.00  0.00    +0.000 C 
ATOM      2  C   UNL     1       1.189  11.550  20.645  0.00  0.00    +0.000 C 
ATOM      3  C   UNL     1       1.534  12.967  20.359  0.00  0.00    +0.000 C 
ATOM      4  O   UNL     1       2.585  13.288  19.817  0.00  0.00    +0.000 OA
ATOM      5  N   UNL     1       0.506  13.775  20.765  0.00  0.00    +0.000 N 
ATOM      6  C   UNL     1      -0.346  13.123  21.629  0.00  0.00    +0.000 C 
ATOM      7  O   UNL     1      -1.255  13.578  22.304  0.00  0.00    +0.000 OA
ATOM      8  C   UNL     1      -0.023  11.651  21.534  0.00  0.00    +0.000 C 
ATOM      9  O   UNL     1      -1.135  11.057  20.872  0.00  0.00    +0.000 OA
ATOM     10  N   UNL     1      -0.745  10.846  19.544  0.00  0.00    +0.000 N 
ENDROOT
BRANCH   1  13
ATOM     11  C   UNL     1       1.980   7.356  19.813  0.00  0.00    +0.000 A 
ATOM     12  C   UNL     1       1.345   8.584  20.040  0.00  0.00    +0.000 A 
ATOM     13  C   UNL     1       1.357   9.612  19.085  0.00  0.00    +0.000 A 
ATOM     14  C   UNL     1       2.019   9.390  17.869  0.00  0.00    +0.000 A 
ATOM     15  C   UNL     1       2.652   8.170  17.627  0.00  0.00    +0.000 A 
ATOM     16  C   UNL     1       2.638   7.162  18.595  0.00  0.00    +0.000 A 
BRANCH  11  18
ATOM     17  C   UNL     1       1.458   5.165  20.597  0.00  0.00    +0.000 C 
ATOM     18  O   UNL     1       1.865   6.497  20.870  0.00  0.00    +0.000 OA
ENDBRANCH  11  18
BRANCH  16  19
ATOM     19  O   UNL     1       3.293   5.995  18.318  0.00  0.00    +0.000 OA
ATOM     20  H   UNL     1       3.827   5.736  19.087  0.00  0.00    +0.000 HD
ENDBRANCH  16  19
ENDBRANCH   1  13
BRANCH   5  21
ATOM     21  C   UNL     1       0.284  15.066  20.253  0.00  0.00    +0.000 A 
ATOM     22  C   UNL     1       0.690  16.182  21.006  0.00  0.00    +0.000 A 
ATOM     23  C   UNL     1       0.544  17.470  20.501  0.00  0.00    +0.000 A 
ATOM     24  C   UNL     1      -0.028  17.656  19.246  0.00  0.00    +0.000 A 
ATOM     25  C   UNL     1      -0.437  16.559  18.491  0.00  0.00    +0.000 A 
ATOM     26  C   UNL     1      -0.259  15.267  18.981  0.00  0.00    +0.000 A 
ENDBRANCH   5  21
BRANCH  10  27
ATOM     27  C   UNL     1      -1.675  10.819  18.508  0.00  0.00    +0.000 A 
ATOM     28  C   UNL     1      -2.834  11.606  18.579  0.00  0.00    +0.000 A 
ATOM     29  C   UNL     1      -3.829  11.528  17.602  0.00  0.00    +0.000 A 
ATOM     30  C   UNL     1      -3.687  10.651  16.532  0.00  0.00    +0.000 A 
ATOM     31  C   UNL     1      -2.532   9.882  16.423  0.00  0.00    +0.000 A 
ATOM     32  C   UNL     1      -1.536   9.975  17.393  0.00  0.00    +0.000 A 
ENDBRANCH  10  27
TORSDOF 5
ENDMDL
MODEL 2
REMARK VINA RESULT:      -7.6      2.857      5.685
REMARK  Name = 
REMARK  6 active torsions:
REMARK  status: ('A' for Active; 'I' for Inactive)
REMARK    1  A    between atoms: C_1  and  O_2
REMARK    2  A    between atoms: O_2  and  C_3
REMARK    3  A    between atoms: C_5  and  C_6
REMARK    4  A    between atoms: N_10  and  C_11
REMARK    5  A    between atoms: N_21  and  C_22
REMARK    6  A    between atoms: C_30  and  O_31
REMARK                            x       y       z     vdW  Elec       q    Type
REMARK                         _______ _______ _______ _____ _____    ______ ____
ROOT
ATOM      1  C   UNL     1      -0.408  13.030  20.191  0.00  0.00    +0.000 C 
ATOM      2  C   UNL     1      -0.092  12.981  21.670  0.00  0.00    +0.000 C 
ATOM      3  C   UNL     1      -1.273  13.537  22.381  0.00  0.00    +0.000 C 
ATOM      4  O   UNL     1      -1.476  14.742  22.470  0.00  0.00    +0.000 OA
ATOM      5  N   UNL     1      -2.044  12.508  22.851  0.00  0.00    +0.000 N 
ATOM      6  C   UNL     1      -1.351  11.317  22.873  0.00  0.00    +0.000 C 
ATOM      7  O   UNL     1      -1.665  10.252  23.379  0.00  0.00    +0.000 OA
ATOM      8  C   UNL     1      -0.107  11.521  22.041  0.00  0.00    +0.000 C 
ATOM      9  O   UNL     1      -0.304  10.744  20.864  0.00  0.00    +0.000 OA
ATOM     10  N   UNL     1      -0.674  11.639  19.852  0.00  0.00    +0.000 N 
ENDROOT
BRANCH   1  13
ATOM     11  C   UNL     1       1.965  15.560  18.532  0.00  0.00    +0.000 A 
ATOM     12  C   UNL     1       0.912  15.010  19.274  0.00  0.00    +0.000 A 
ATOM     13  C   UNL     1       0.749  13.622  19.412  0.00  0.00    +0.000 A 
ATOM     14  C   UNL     1       1.678  12.774  18.793  0.00  0.00    +0.000 A 
ATOM     15  C   UNL     1       2.735  13.308  18.055  0.00  0.00    +0.000 A 
ATOM     16  C   UNL     1       2.873  14.693  17.920  0.00  0.00    +0.000 A 
BRANCH  11  18
ATOM     17  C   UNL     1       2.231  17.615  19.712  0.00  0.00    +0.000 C 
ATOM     18  O   UNL     1       1.937  16.927  18.507  0.00  0.00    +0.000 OA
ENDBRANCH  11  18
BRANCH  16  19
ATOM     19  O   UNL     1       3.911  15.165  17.166  0.00  0.00    +0.000 OA
ATOM     20  H   UNL     1       4.682  15.312  17.738  0.00  0.00    +0.000 HD
ENDBRANCH  16  19
ENDBRANCH   1  13
BRANCH   5  21
ATOM     21  C   UNL     1      -3.413  12.637  23.149  0.00  0.00    +0.000 A 
ATOM     22  C   UNL     1      -4.328  12.829  22.099  0.00  0.00    +0.000 A 
ATOM     23  C   UNL     1      -5.695  12.895  22.352  0.00  0.00    +0.000 A 
ATOM     24  C   UNL     1      -6.157  12.790  23.661  0.00  0.00    +0.000 A 
ATOM     25  C   UNL     1      -5.260  12.602  24.710  0.00  0.00    +0.000 A 
ATOM     26  C   UNL     1      -3.895  12.501  24.454  0.00  0.00    +0.000 A 
ENDBRANCH   5  21
BRANCH  10  27
ATOM     27  C   UNL     1      -1.459  11.234  18.775  0.00  0.00    +0.000 A 
ATOM     28  C   UNL     1      -2.734  11.785  18.585  0.00  0.00    +0.000 A 
ATOM     29  C   UNL     1      -3.581  11.331  17.571  0.00  0.00    +0.000 A 
ATOM     30  C   UNL     1      -3.168  10.305  16.726  0.00  0.00    +0.000 A 
ATOM     31  C   UNL     1      -1.894   9.763  16.876  0.00  0.00    +0.000 A 
ATOM     32  C   UNL     1      -1.049  10.231  17.880  0.00  0.00    +0.000 A 
ENDBRANCH  10  27
TORSDOF 5
ENDMDL
MODEL 3
REMARK VINA RESULT:      -7.5      2.776      5.713
REMARK  Name = 
REMARK  6 active torsions:
REMARK  status: ('A' for Active; 'I' for Inactive)
REMARK    1  A    between atoms: C_1  and  O_2
REMARK    2  A    between atoms: O_2  and  C_3
REMARK    3  A    between atoms: C_5  and  C_6
REMARK    4  A    between atoms: N_10  and  C_11
REMARK    5  A    between atoms: N_21  and  C_22
REMARK    6  A    between atoms: C_30  and  O_31
REMARK                            x       y       z     vdW  Elec       q    Type
REMARK                         _______ _______ _______ _____ _____    ______ ____
ROOT
ATOM      1  C   UNL     1      -0.355  13.017  20.181  0.00  0.00    +0.000 C 
ATOM      2  C   UNL     1      -0.058  12.998  21.665  0.00  0.00    +0.000 C 
ATOM      3  C   UNL     1      -1.266  13.528  22.351  0.00  0.00    +0.000 C 
ATOM      4  O   UNL     1      -1.505  14.727  22.421  0.00  0.00    +0.000 OA
ATOM      5  N   UNL     1      -2.012  12.483  22.826  0.00  0.00    +0.000 N 
ATOM      6  C   UNL     1      -1.285  11.314  22.874  0.00  0.00    +0.000 C 
ATOM      7  O   UNL     1      -1.575  10.247  23.390  0.00  0.00    +0.000 OA
ATOM      8  C   UNL     1      -0.036  11.543  22.055  0.00  0.00    +0.000 C 
ATOM      9  O   UNL     1      -0.193  10.745  20.887  0.00  0.00    +0.000 OA
ATOM     10  N   UNL     1      -0.576  11.614  19.858  0.00  0.00    +0.000 N 
ENDROOT
BRANCH   1  13
ATOM     11  C   UNL     1       1.996  15.596  18.567  0.00  0.00    +0.000 A 
ATOM     12  C   UNL     1       0.950  15.023  19.303  0.00  0.00    +0.000 A 
ATOM     13  C   UNL     1       0.795  13.632  19.409  0.00  0.00    +0.000 A 
ATOM     14  C   UNL     1       1.724  12.803  18.766  0.00  0.00    +0.000 A 
ATOM     15  C   UNL     1       2.774  13.359  18.034  0.00  0.00    +0.000 A 
ATOM     16  C   UNL     1       2.905  14.747  17.930  0.00  0.00    +0.000 A 
BRANCH  11  18
ATOM     17  C   UNL     1       0.873  17.599  17.924  0.00  0.00    +0.000 C 
ATOM     18  O   UNL     1       1.962  16.963  18.574  0.00  0.00    +0.000 OA
ENDBRANCH  11  18
BRANCH  16  19
ATOM     19  O   UNL     1       3.937  15.241  17.181  0.00  0.00    +0.000 OA
ATOM     20  H   UNL     1       3.670  16.087  16.786  0.00  0.00    +0.000 HD
ENDBRANCH  16  19
ENDBRANCH   1  13
BRANCH   5  21
ATOM     21  C   UNL     1      -3.389  12.575  23.103  0.00  0.00    +0.000 A 
ATOM     22  C   UNL     1      -3.826  12.496  24.437  0.00  0.00    +0.000 A 
ATOM     23  C   UNL     1      -5.173  12.648  24.752  0.00  0.00    +0.000 A 
ATOM     24  C   UNL     1      -6.097  12.860  23.733  0.00  0.00    +0.000 A 
ATOM     25  C   UNL     1      -5.677  12.938  22.407  0.00  0.00    +0.000 A 
ATOM     26  C   UNL     1      -4.324  12.820  22.095  0.00  0.00    +0.000 A 
ENDBRANCH   5  21
BRANCH  10  27
ATOM     27  C   UNL     1      -1.333  11.171  18.776  0.00  0.00    +0.000 A 
ATOM     28  C   UNL     1      -0.882  10.102  17.989  0.00  0.00    +0.000 A 
ATOM     29  C   UNL     1      -1.571   9.698  16.843  0.00  0.00    +0.000 A 
ATOM     30  C   UNL     1      -2.729  10.365  16.456  0.00  0.00    +0.000 A 
ATOM     31  C   UNL     1      -3.214  11.410  17.238  0.00  0.00    +0.000 A 
ATOM     32  C   UNL     1      -2.529  11.798  18.388  0.00  0.00    +0.000 A 
ENDBRANCH  10  27
TORSDOF 5
ENDMDL
MODEL 4
REMARK VINA RESULT:      -7.4      3.188      6.245
REMARK  Name = 
REMARK  6 active torsions:
REMARK  status: ('A' for Active; 'I' for Inactive)
REMARK    1  A    between atoms: C_1  and  O_2
REMARK    2  A    between atoms: O_2  and  C_3
REMARK    3  A    between atoms: C_5  and  C_6
REMARK    4  A    between atoms: N_10  and  C_11
REMARK    5  A    between atoms: N_21  and  C_22
REMARK    6  A    between atoms: C_30  and  O_31
REMARK                            x       y       z     vdW  Elec       q    Type
REMARK                         _______ _______ _______ _____ _____    ______ ____
ROOT
ATOM      1  C   UNL     1      -1.758  13.997  20.340  0.00  0.00    +0.000 C 
ATOM      2  C   UNL     1      -1.850  14.271  21.825  0.00  0.00    +0.000 C 
ATOM      3  C   UNL     1      -3.291  14.465  22.137  0.00  0.00    +0.000 C 
ATOM      4  O   UNL     1      -3.872  15.520  21.912  0.00  0.00    +0.000 OA
ATOM      5  N   UNL     1      -3.801  13.307  22.658  0.00  0.00    +0.000 N 
ATOM      6  C   UNL     1      -2.807  12.455  23.085  0.00  0.00    +0.000 C 
ATOM      7  O   UNL     1      -2.899  11.430  23.740  0.00  0.00    +0.000 OA
ATOM      8  C   UNL     1      -1.512  12.967  22.500  0.00  0.00    +0.000 C 
ATOM      9  O   UNL     1      -1.136  12.015  21.511  0.00  0.00    +0.000 OA
ATOM     10  N   UNL     1      -1.480  12.569  20.272  0.00  0.00    +0.000 N 
ENDROOT
BRANCH   1  13
ATOM     11  C   UNL     1       1.567  15.083  18.743  0.00  0.00    +0.000 A 
ATOM     12  C   UNL     1       0.555  14.297  19.308  0.00  0.00    +0.000 A 
ATOM     13  C   UNL     1      -0.676  14.845  19.701  0.00  0.00    +0.000 A 
ATOM     14  C   UNL     1      -0.891  16.217  19.510  0.00  0.00    +0.000 A 
ATOM     15  C   UNL     1       0.107  17.012  18.944  0.00  0.00    +0.000 A 
ATOM     16  C   UNL     1       1.331  16.449  18.569  0.00  0.00    +0.000 A 
BRANCH  11  18
ATOM     17  C   UNL     1       2.552  12.962  18.275  0.00  0.00    +0.000 C 
ATOM     18  O   UNL     1       2.691  14.364  18.444  0.00  0.00    +0.000 OA
ENDBRANCH  11  18
BRANCH  16  19
ATOM     19  O   UNL     1       2.284  17.275  18.041  0.00  0.00    +0.000 OA
ATOM     20  H   UNL     1       2.322  18.094  18.562  0.00  0.00    +0.000 HD
ENDBRANCH  16  19
ENDBRANCH   1  13
BRANCH   5  21
ATOM     21  C   UNL     1      -5.170  12.982  22.633  0.00  0.00    +0.000 A 
ATOM     22  C   UNL     1      -5.937  13.154  23.799  0.00  0.00    +0.000 A 
ATOM     23  C   UNL     1      -7.306  12.904  23.792  0.00  0.00    +0.000 A 
ATOM     24  C   UNL     1      -7.917  12.459  22.623  0.00  0.00    +0.000 A 
ATOM     25  C   UNL     1      -7.167  12.282  21.462  0.00  0.00    +0.000 A 
ATOM     26  C   UNL     1      -5.804  12.566  21.459  0.00  0.00    +0.000 A 
ENDBRANCH   5  21
BRANCH  10  27
ATOM     27  C   UNL     1      -1.782  11.765  19.175  0.00  0.00    +0.000 A 
ATOM     28  C   UNL     1      -3.077  11.765  18.636  0.00  0.00    +0.000 A 
ATOM     29  C   UNL     1      -3.434  10.901  17.599  0.00  0.00    +0.000 A 
ATOM     30  C   UNL     1      -2.499  10.010  17.081  0.00  0.00    +0.000 A 
ATOM     31  C   UNL     1      -1.199  10.012  17.579  0.00  0.00    +0.000 A 
ATOM     32  C   UNL     1      -0.845  10.887  18.604  0.00  0.00    +0.000 A 
ENDBRANCH  10  27
TORSDOF 5
ENDMDL
MODEL 5
REMARK VINA RESULT:      -7.3      0.777      1.746
REMARK  Name = 
REMARK  6 active torsions:
REMARK  status: ('A' for Active; 'I' for Inactive)
REMARK    1  A    between atoms: C_1  and  O_2
REMARK    2  A    between atoms: O_2  and  C_3
REMARK    3  A    between atoms: C_5  and  C_6
REMARK    4  A    between atoms: N_10  and  C_11
REMARK    5  A    between atoms: N_21  and  C_22
REMARK    6  A    between atoms: C_30  and  O_31
REMARK                            x       y       z     vdW  Elec       q    Type
REMARK                         _______ _______ _______ _____ _____    ______ ____
ROOT
ATOM      1  C   UNL     1       0.632  11.057  19.698  0.00  0.00    +0.000 C 
ATOM      2  C   UNL     1       1.102  11.811  20.923  0.00  0.00    +0.000 C 
ATOM      3  C   UNL     1       1.596  13.132  20.451  0.00  0.00    +0.000 C 
ATOM      4  O   UNL     1       2.703  13.274  19.946  0.00  0.00    +0.000 OA
ATOM      5  N   UNL     1       0.626  14.076  20.653  0.00  0.00    +0.000 N 
ATOM      6  C   UNL     1      -0.334  13.643  21.541  0.00  0.00    +0.000 C 
ATOM      7  O   UNL     1      -1.235  14.274  22.070  0.00  0.00    +0.000 OA
ATOM      8  C   UNL     1      -0.146  12.152  21.694  0.00  0.00    +0.000 C 
ATOM      9  O   UNL     1      -1.268  11.557  21.050  0.00  0.00    +0.000 OA
ATOM     10  N   UNL     1      -0.820  11.108  19.802  0.00  0.00    +0.000 N 
ENDROOT
BRANCH   1  13
ATOM     11  C   UNL     1       2.336   7.805  18.556  0.00  0.00    +0.000 A 
ATOM     12  C   UNL     1       1.852   9.120  18.576  0.00  0.00    +0.000 A 
ATOM     13  C   UNL     1       1.180   9.644  19.692  0.00  0.00    +0.000 A 
ATOM     14  C   UNL     1       1.002   8.824  20.814  0.00  0.00    +0.000 A 
ATOM     15  C   UNL     1       1.483   7.514  20.811  0.00  0.00    +0.000 A 
ATOM     16  C   UNL     1       2.140   7.006  19.686  0.00  0.00    +0.000 A 
BRANCH  11  18
ATOM     17  C   UNL     1       4.312   7.104  17.419  0.00  0.00    +0.000 C 
ATOM     18  O   UNL     1       2.945   7.483  17.375  0.00  0.00    +0.000 OA
ENDBRANCH  11  18
BRANCH  16  19
ATOM     19  O   UNL     1       2.571   5.709  19.724  0.00  0.00    +0.000 OA
ATOM     20  H   UNL     1       2.684   5.382  18.816  0.00  0.00    +0.000 HD
ENDBRANCH  16  19
ENDBRANCH   1  13
BRANCH   5  21
ATOM     21  C   UNL     1       0.558  15.285  19.936  0.00  0.00    +0.000 A 
ATOM     22  C   UNL     1      -0.335  15.392  18.856  0.00  0.00    +0.000 A 
ATOM     23  C   UNL     1      -0.474  16.593  18.166  0.00  0.00    +0.000 A 
ATOM     24  C   UNL     1       0.294  17.692  18.539  0.00  0.00    +0.000 A 
ATOM     25  C   UNL     1       1.185  17.598  19.606  0.00  0.00    +0.000 A 
ATOM     26  C   UNL     1       1.299  16.406  20.318  0.00  0.00    +0.000 A 
ENDBRANCH   5  21
BRANCH  10  27
ATOM     27  C   UNL     1      -1.685  10.995  18.716  0.00  0.00    +0.000 A 
ATOM     28  C   UNL     1      -2.890  11.713  18.697  0.00  0.00    +0.000 A 
ATOM     29  C   UNL     1      -3.820  11.548  17.668  0.00  0.00    +0.000 A 
ATOM     30  C   UNL     1      -3.565  10.651  16.635  0.00  0.00    +0.000 A 
ATOM     31  C   UNL     1      -2.363   9.950  16.617  0.00  0.00    +0.000 A 
ATOM     32  C   UNL     1      -1.432  10.130  17.639  0.00  0.00    +0.000 A 
ENDBRANCH  10  27
TORSDOF 5
ENDMDL
MODEL 6
REMARK VINA RESULT:      -7.3      1.607      2.105
REMARK  Name = 
REMARK  6 active torsions:
REMARK  status: ('A' for Active; 'I' for Inactive)
REMARK    1  A    between atoms: C_1  and  O_2
REMARK    2  A    between atoms: O_2  and  C_3
REMARK    3  A    between atoms: C_5  and  C_6
REMARK    4  A    between atoms: N_10  and  C_11
REMARK    5  A    between atoms: N_21  and  C_22
REMARK    6  A    between atoms: C_30  and  O_31
REMARK                            x       y       z     vdW  Elec       q    Type
REMARK                         _______ _______ _______ _____ _____    ______ ____
ROOT
ATOM      1  C   UNL     1       0.703  12.180  19.025  0.00  0.00    +0.000 C 
ATOM      2  C   UNL     1       1.707  13.044  19.758  0.00  0.00    +0.000 C 
ATOM      3  C   UNL     1       1.973  14.222  18.891  0.00  0.00    +0.000 C 
ATOM      4  O   UNL     1       2.730  14.169  17.929  0.00  0.00    +0.000 OA
ATOM      5  N   UNL     1       1.236  15.286  19.334  0.00  0.00    +0.000 N 
ATOM      6  C   UNL     1       0.775  15.092  20.618  0.00  0.00    +0.000 C 
ATOM      7  O   UNL     1       0.238  15.886  21.373  0.00  0.00    +0.000 OA
ATOM      8  C   UNL     1       0.962  13.626  20.931  0.00  0.00    +0.000 C 
ATOM      9  O   UNL     1      -0.349  13.073  20.971  0.00  0.00    +0.000 OA
ATOM     10  N   UNL     1      -0.538  12.404  19.755  0.00  0.00    +0.000 N 
ENDROOT
BRANCH   1  13
ATOM     11  C   UNL     1       1.310   8.547  20.128  0.00  0.00    +0.000 A 
ATOM     12  C   UNL     1       0.884   9.882  20.114  0.00  0.00    +0.000 A 
ATOM     13  C   UNL     1       1.140  10.729  19.024  0.00  0.00    +0.000 A 
ATOM     14  C   UNL     1       1.834  10.213  17.921  0.00  0.00    +0.000 A 
ATOM     15  C   UNL     1       2.261   8.884  17.920  0.00  0.00    +0.000 A 
ATOM     16  C   UNL     1       2.006   8.059  19.019  0.00  0.00    +0.000 A 
BRANCH  11  18
ATOM     17  C   UNL     1      -0.105   8.414  22.043  0.00  0.00    +0.000 C 
ATOM     18  O   UNL     1       0.976   7.897  21.284  0.00  0.00    +0.000 OA
ENDBRANCH  11  18
BRANCH  16  19
ATOM     19  O   UNL     1       2.466   6.772  18.978  0.00  0.00    +0.000 OA
ATOM     20  H   UNL     1       2.938   6.573  19.803  0.00  0.00    +0.000 HD
ENDBRANCH  16  19
ENDBRANCH   1  13
BRANCH   5  21
ATOM     21  C   UNL     1       0.887  16.382  18.522  0.00  0.00    +0.000 A 
ATOM     22  C   UNL     1       1.904  17.119  17.892  0.00  0.00    +0.000 A 
ATOM     23  C   UNL     1       1.592  18.167  17.031  0.00  0.00    +0.000 A 
ATOM     24  C   UNL     1       0.259  18.500  16.810  0.00  0.00    +0.000 A 
ATOM     25  C   UNL     1      -0.759  17.779  17.431  0.00  0.00    +0.000 A 
ATOM     26  C   UNL     1      -0.447  16.708  18.265  0.00  0.00    +0.000 A 
ENDBRANCH   5  21
BRANCH  10  27
ATOM     27  C   UNL     1      -1.807  12.235  19.208  0.00  0.00    +0.000 A 
ATOM     28  C   UNL     1      -2.949  12.510  19.975  0.00  0.00    +0.000 A 
ATOM     29  C   UNL     1      -4.233  12.259  19.486  0.00  0.00    +0.000 A 
ATOM     30  C   UNL     1      -4.401  11.720  18.215  0.00  0.00    +0.000 A 
ATOM     31  C   UNL     1      -3.285  11.467  17.423  0.00  0.00    +0.000 A 
ATOM     32  C   UNL     1      -2.007  11.733  17.911  0.00  0.00    +0.000 A 
ENDBRANCH  10  27
TORSDOF 5
ENDMDL
MODEL 7
REMARK VINA RESULT:      -7.2      2.716      5.619
REMARK  Name = 
REMARK  6 active torsions:
REMARK  status: ('A' for Active; 'I' for Inactive)
REMARK    1  A    between atoms: C_1  and  O_2
REMARK    2  A    between atoms: O_2  and  C_3
REMARK    3  A    between atoms: C_5  and  C_6
REMARK    4  A    between atoms: N_10  and  C_11
REMARK    5  A    between atoms: N_21  and  C_22
REMARK    6  A    between atoms: C_30  and  O_31
REMARK                            x       y       z     vdW  Elec       q    Type
REMARK                         _______ _______ _______ _____ _____    ______ ____
ROOT
ATOM      1  C   UNL     1      -1.147  12.721  19.444  0.00  0.00    +0.000 C 
ATOM      2  C   UNL     1      -0.468  13.500  18.339  0.00  0.00    +0.000 C 
ATOM      3  C   UNL     1       0.058  14.747  18.953  0.00  0.00    +0.000 C 
ATOM      4  O   UNL     1      -0.659  15.713  19.186  0.00  0.00    +0.000 OA
ATOM      5  N   UNL     1       1.393  14.597  19.214  0.00  0.00    +0.000 N 
ATOM      6  C   UNL     1       1.934  13.537  18.519  0.00  0.00    +0.000 C 
ATOM      7  O   UNL     1       3.105  13.222  18.384  0.00  0.00    +0.000 OA
ATOM      8  C   UNL     1       0.776  12.720  17.998  0.00  0.00    +0.000 C 
ATOM      9  O   UNL     1       0.789  11.513  18.752  0.00  0.00    +0.000 OA
ATOM     10  N   UNL     1      -0.217  11.634  19.718  0.00  0.00    +0.000 N 
ENDROOT
BRANCH   1  13
ATOM     11  C   UNL     1      -3.960  11.122  17.366  0.00  0.00    +0.000 A 
ATOM     12  C   UNL     1      -2.694  11.546  17.793  0.00  0.00    +0.000 A 
ATOM     13  C   UNL     1      -2.514  12.238  19.001  0.00  0.00    +0.000 A 
ATOM     14  C   UNL     1      -3.636  12.498  19.799  0.00  0.00    +0.000 A 
ATOM     15  C   UNL     1      -4.902  12.078  19.389  0.00  0.00    +0.000 A 
ATOM     16  C   UNL     1      -5.064  11.400  18.177  0.00  0.00    +0.000 A 
BRANCH  11  18
ATOM     17  C   UNL     1      -2.799  10.707  15.325  0.00  0.00    +0.000 C 
ATOM     18  O   UNL     1      -3.924  10.481  16.159  0.00  0.00    +0.000 OA
ENDBRANCH  11  18
BRANCH  16  19
ATOM     19  O   UNL     1      -6.328  11.030  17.810  0.00  0.00    +0.000 OA
ATOM     20  H   UNL     1      -6.827  10.765  18.600  0.00  0.00    +0.000 HD
ENDBRANCH  16  19
ENDBRANCH   1  13
BRANCH   5  21
ATOM     21  C   UNL     1       2.087  15.355  20.175  0.00  0.00    +0.000 A 
ATOM     22  C   UNL     1       2.745  16.532  19.775  0.00  0.00    +0.000 A 
ATOM     23  C   UNL     1       3.386  17.339  20.710  0.00  0.00    +0.000 A 
ATOM     24  C   UNL     1       3.392  16.965  22.051  0.00  0.00    +0.000 A 
ATOM     25  C   UNL     1       2.746  15.800  22.459  0.00  0.00    +0.000 A 
ATOM     26  C   UNL     1       2.075  15.010  21.528  0.00  0.00    +0.000 A 
ENDBRANCH   5  21
BRANCH  10  27
ATOM     27  C   UNL     1      -0.145  10.955  20.932  0.00  0.00    +0.000 A 
ATOM     28  C   UNL     1       0.673   9.823  21.061  0.00  0.00    +0.000 A 
ATOM     29  C   UNL     1       0.693   9.067  22.235  0.00  0.00    +0.000 A 
ATOM     30  C   UNL     1      -0.116   9.427  23.309  0.00  0.00    +0.000 A 
ATOM     31  C   UNL     1      -0.914  10.564  23.216  0.00  0.00    +0.000 A 
ATOM     32  C   UNL     1      -0.918  11.322  22.047  0.00  0.00    +0.000 A 
ENDBRANCH  10  27
TORSDOF 5
ENDMDL
MODEL 8
REMARK VINA RESULT:      -7.2      2.356      3.460
REMARK  Name = 
REMARK  6 active torsions:
REMARK  status: ('A' for Active; 'I' for Inactive)
REMARK    1  A    between atoms: C_1  and  O_2
REMARK    2  A    between atoms: O_2  and  C_3
REMARK    3  A    between atoms: C_5  and  C_6
REMARK    4  A    between atoms: N_10  and  C_11
REMARK    5  A    between atoms: N_21  and  C_22
REMARK    6  A    between atoms: C_30  and  O_31
REMARK                            x       y       z     vdW  Elec       q    Type
REMARK                         _______ _______ _______ _____ _____    ______ ____
ROOT
ATOM      1  C   UNL     1       0.743  12.488  20.238  0.00  0.00    +0.000 C 
ATOM      2  C   UNL     1       2.046  13.256  20.186  0.00  0.00    +0.000 C 
ATOM      3  C   UNL     1       1.942  14.201  19.044  0.00  0.00    +0.000 C 
ATOM      4  O   UNL     1       2.112  13.846  17.884  0.00  0.00    +0.000 OA
ATOM      5  N   UNL     1       1.613  15.445  19.512  0.00  0.00    +0.000 N 
ATOM      6  C   UNL     1       1.838  15.558  20.867  0.00  0.00    +0.000 C 
ATOM      7  O   UNL     1       1.816  16.554  21.571  0.00  0.00    +0.000 OA
ATOM      8  C   UNL     1       2.035  14.156  21.395  0.00  0.00    +0.000 C 
ATOM      9  O   UNL     1       0.877  13.875  22.174  0.00  0.00    +0.000 OA
ATOM     10  N   UNL     1       0.054  13.061  21.387  0.00  0.00    +0.000 N 
ENDROOT
BRANCH   1  13
ATOM     11  C   UNL     1       1.475   8.811  19.386  0.00  0.00    +0.000 A 
ATOM     12  C   UNL     1       1.264  10.190  19.263  0.00  0.00    +0.000 A 
ATOM     13  C   UNL     1       1.000  11.001  20.379  0.00  0.00    +0.000 A 
ATOM     14  C   UNL     1       0.957  10.404  21.646  0.00  0.00    +0.000 A 
ATOM     15  C   UNL     1       1.170   9.032  21.785  0.00  0.00    +0.000 A 
ATOM     16  C   UNL     1       1.421   8.239  20.660  0.00  0.00    +0.000 A 
BRANCH  11  18
ATOM     17  C   UNL     1       3.044   7.904  17.835  0.00  0.00    +0.000 C 
ATOM     18  O   UNL     1       1.700   8.201  18.183  0.00  0.00    +0.000 OA
ENDBRANCH  11  18
BRANCH  16  19
ATOM     19  O   UNL     1       1.598   6.897  20.847  0.00  0.00    +0.000 OA
ATOM     20  H   UNL     1       2.496   6.650  20.569  0.00  0.00    +0.000 HD
ENDBRANCH  16  19
ENDBRANCH   1  13
BRANCH   5  21
ATOM     21  C   UNL     1       0.999  16.435  18.723  0.00  0.00    +0.000 A 
ATOM     22  C   UNL     1       1.795  17.241  17.892  0.00  0.00    +0.000 A 
ATOM     23  C   UNL     1       1.214  18.185  17.051  0.00  0.00    +0.000 A 
ATOM     24  C   UNL     1      -0.169  18.345  17.050  0.00  0.00    +0.000 A 
ATOM     25  C   UNL     1      -0.969  17.555  17.872  0.00  0.00    +0.000 A 
ATOM     26  C   UNL     1      -0.390  16.586  18.688  0.00  0.00    +0.000 A 
ENDBRANCH   5  21
BRANCH  10  27
ATOM     27  C   UNL     1      -1.329  13.045  21.555  0.00  0.00    +0.000 A 
ATOM     28  C   UNL     1      -2.157  13.725  20.650  0.00  0.00    +0.000 A 
ATOM     29  C   UNL     1      -3.538  13.808  20.846  0.00  0.00    +0.000 A 
ATOM     30  C   UNL     1      -4.120  13.213  21.962  0.00  0.00    +0.000 A 
ATOM     31  C   UNL     1      -3.322  12.506  22.857  0.00  0.00    +0.000 A 
ATOM     32  C   UNL     1      -1.947  12.416  22.648  0.00  0.00    +0.000 A 
ENDBRANCH  10  27
TORSDOF 5
ENDMDL
MODEL 9
REMARK VINA RESULT:      -7.2      3.330      6.675
REMARK  Name = 
REMARK  6 active torsions:
REMARK  status: ('A' for Active; 'I' for Inactive)
REMARK    1  A    between atoms: C_1  and  O_2
REMARK    2  A    between atoms: O_2  and  C_3
REMARK    3  A    between atoms: C_5  and  C_6
REMARK    4  A    between atoms: N_10  and  C_11
REMARK    5  A    between atoms: N_21  and  C_22
REMARK    6  A    between atoms: C_30  and  O_31
REMARK                            x       y       z     vdW  Elec       q    Type
REMARK                         _______ _______ _______ _____ _____    ______ ____
ROOT
ATOM      1  C   UNL     1      -1.679  13.977  20.430  0.00  0.00    +0.000 C 
ATOM      2  C   UNL     1      -1.777  14.242  21.916  0.00  0.00    +0.000 C 
ATOM      3  C   UNL     1      -3.213  14.485  22.215  0.00  0.00    +0.000 C 
ATOM      4  O   UNL     1      -3.754  15.562  21.994  0.00  0.00    +0.000 OA
ATOM      5  N   UNL     1      -3.771  13.342  22.720  0.00  0.00    +0.000 N 
ATOM      6  C   UNL     1      -2.812  12.451  23.151  0.00  0.00    +0.000 C 
ATOM      7  O   UNL     1      -2.948  11.424  23.795  0.00  0.00    +0.000 OA
ATOM      8  C   UNL     1      -1.493  12.921  22.584  0.00  0.00    +0.000 C 
ATOM      9  O   UNL     1      -1.141  11.964  21.590  0.00  0.00    +0.000 OA
ATOM     10  N   UNL     1      -1.451  12.541  20.352  0.00  0.00    +0.000 N 
ENDROOT
BRANCH   1  13
ATOM     11  C   UNL     1       0.267  16.868  18.803  0.00  0.00    +0.000 A 
ATOM     12  C   UNL     1      -0.756  16.120  19.401  0.00  0.00    +0.000 A 
ATOM     13  C   UNL     1      -0.561  14.792  19.810  0.00  0.00    +0.000 A 
ATOM     14  C   UNL     1       0.700  14.210  19.619  0.00  0.00    +0.000 A 
ATOM     15  C   UNL     1       1.731  14.944  19.029  0.00  0.00    +0.000 A 
ATOM     16  C   UNL     1       1.513  16.262  18.618  0.00  0.00    +0.000 A 
BRANCH  11  18
ATOM     17  C   UNL     1      -0.556  18.354  17.129  0.00  0.00    +0.000 C 
ATOM     18  O   UNL     1      -0.130  18.131  18.464  0.00  0.00    +0.000 OA
ENDBRANCH  11  18
BRANCH  16  19
ATOM     19  O   UNL     1       2.547  16.930  18.024  0.00  0.00    +0.000 OA
ATOM     20  H   UNL     1       3.390  16.564  18.341  0.00  0.00    +0.000 HD
ENDBRANCH  16  19
ENDBRANCH   1  13
BRANCH   5  21
ATOM     21  C   UNL     1      -5.150  13.066  22.679  0.00  0.00    +0.000 A 
ATOM     22  C   UNL     1      -5.933  13.313  23.820  0.00  0.00    +0.000 A 
ATOM     23  C   UNL     1      -7.310  13.113  23.792  0.00  0.00    +0.000 A 
ATOM     24  C   UNL     1      -7.913  12.644  22.628  0.00  0.00    +0.000 A 
ATOM     25  C   UNL     1      -7.147  12.394  21.492  0.00  0.00    +0.000 A 
ATOM     26  C   UNL     1      -5.774  12.627  21.508  0.00  0.00    +0.000 A 
ENDBRANCH   5  21
BRANCH  10  27
ATOM     27  C   UNL     1      -1.770  11.758  19.245  0.00  0.00    +0.000 A 
ATOM     28  C   UNL     1      -3.072  11.771  18.724  0.00  0.00    +0.000 A 
ATOM     29  C   UNL     1      -3.446  10.926  17.676  0.00  0.00    +0.000 A 
ATOM     30  C   UNL     1      -2.520  10.043  17.129  0.00  0.00    +0.000 A 
ATOM     31  C   UNL     1      -1.214  10.034  17.609  0.00  0.00    +0.000 A 
ATOM     32  C   UNL     1      -0.844  10.889  18.645  0.00  0.00    +0.000 A 
ENDBRANCH  10  27
TORSDOF 5
ENDMDL
