MODEL 1
REMARK VINA RESULT:      -6.9      0.000      0.000
REMARK  Name = 
REMARK  7 active torsions:
REMARK  status: ('A' for Active; 'I' for Inactive)
REMARK    1  A    between atoms: C_1  and  O_2
REMARK    2  A    between atoms: O_2  and  C_3
REMARK    3  A    between atoms: C_6  and  C_7
REMARK    4  A    between atoms: C_7  and  C_8
REMARK    5  A    between atoms: N_9  and  N_10
REMARK    6  A    between atoms: C_14  and  O_15
REMARK    7  A    between atoms: O_15  and  C_16
REMARK                            x       y       z     vdW  Elec       q    Type
REMARK                         _______ _______ _______ _____ _____    ______ ____
ROOT
ATOM      1  C   UNL     1       5.383   4.952  16.418  0.00  0.00    +0.000 C 
ATOM      2  C   UNL     1       5.088   6.423  16.163  0.00  0.00    +0.000 C 
ATOM      3  N   UNL     1       6.380   4.342  15.839  0.00  0.00    +0.000 NA
ENDROOT
BRANCH   3   4
ATOM      4  N   UNL     1       7.152   5.181  15.020  0.00  0.00    +0.000 NA
ATOM      5  C   UNL     1       7.160   4.783  13.786  0.00  0.00    +0.000 C 
ATOM      6  N   UNL     1       6.531   3.670  13.325  0.00  0.00    +0.000 N 
ATOM      7  N   UNL     1       7.852   5.426  12.822  0.00  0.00    +0.000 N 
ATOM      8  H   UNL     1       5.995   3.303  14.116  0.00  0.00    +0.000 HD
ATOM      9  H   UNL     1       5.933   3.832  12.533  0.00  0.00    +0.000 HD
ATOM     10  H   UNL     1       8.176   6.340  13.117  0.00  0.00    +0.000 HD
ATOM     11  H   UNL     1       7.469   5.401  11.892  0.00  0.00    +0.000 HD
ENDBRANCH   3   4
BRANCH   1  15
ATOM     12  C   UNL     1       2.779   2.852  19.161  0.00  0.00    +0.000 A 
ATOM     13  C   UNL     1       2.340   3.209  17.889  0.00  0.00    +0.000 A 
ATOM     14  C   UNL     1       3.195   3.869  17.001  0.00  0.00    +0.000 A 
ATOM     15  C   UNL     1       4.506   4.200  17.382  0.00  0.00    +0.000 A 
ATOM     16  C   UNL     1       4.962   3.823  18.665  0.00  0.00    +0.000 A 
ATOM     17  C   UNL     1       4.087   3.155  19.542  0.00  0.00    +0.000 A 
BRANCH  12  19
ATOM     18  C   UNL     1       1.495   2.832  21.166  0.00  0.00    +0.000 C 
ATOM     19  O   UNL     1       1.847   2.215  19.933  0.00  0.00    +0.000 OA
ENDBRANCH  12  19
BRANCH  16  20
ATOM     20  O   UNL     1       6.247   4.161  19.010  0.00  0.00    +0.000 OA
ATOM     21  C   UNL     1       6.498   5.483  19.470  0.00  0.00    +0.000 C 
ENDBRANCH  16  20
ENDBRANCH   1  15
TORSDOF 4
ENDMDL
MODEL 2
REMARK VINA RESULT:      -6.7      3.605      5.923
REMARK  Name = 
REMARK  7 active torsions:
REMARK  status: ('A' for Active; 'I' for Inactive)
REMARK    1  A    between atoms: C_1  and  O_2
REMARK    2  A    between atoms: O_2  and  C_3
REMARK    3  A    between atoms: C_6  and  C_7
REMARK    4  A    between atoms: C_7  and  C_8
REMARK    5  A    between atoms: N_9  and  N_10
REMARK    6  A    between atoms: C_14  and  O_15
REMARK    7  A    between atoms: O_15  and  C_16
REMARK                            x       y       z     vdW  Elec       q    Type
REMARK                         _______ _______ _______ _____ _____    ______ ____
ROOT
ATOM      1  C   UNL     1       4.174   4.396  18.872  0.00  0.00    +0.000 C 
ATOM      2  C   UNL     1       3.658   5.703  19.455  0.00  0.00    +0.000 C 
ATOM      3  N   UNL     1       3.879   3.243  19.407  0.00  0.00    +0.000 NA
ENDROOT
BRANCH   3   4
ATOM      4  N   UNL     1       3.021   3.340  20.514  0.00  0.00    +0.000 NA
ATOM      5  C   UNL     1       1.952   2.623  20.364  0.00  0.00    +0.000 C 
ATOM      6  N   UNL     1       1.659   1.885  19.261  0.00  0.00    +0.000 N 
ATOM      7  N   UNL     1       0.975   2.576  21.295  0.00  0.00    +0.000 N 
ATOM      8  H   UNL     1       2.484   1.943  18.658  0.00  0.00    +0.000 HD
ATOM      9  H   UNL     1       1.426   0.927  19.455  0.00  0.00    +0.000 HD
ATOM     10  H   UNL     1       1.260   2.977  22.180  0.00  0.00    +0.000 HD
ATOM     11  H   UNL     1       0.463   1.713  21.375  0.00  0.00    +0.000 HD
ENDBRANCH   3   4
BRANCH   1  15
ATOM     12  C   UNL     1       6.570   4.467  15.271  0.00  0.00    +0.000 A 
ATOM     13  C   UNL     1       5.185   4.343  15.207  0.00  0.00    +0.000 A 
ATOM     14  C   UNL     1       4.416   4.343  16.375  0.00  0.00    +0.000 A 
ATOM     15  C   UNL     1       5.028   4.448  17.634  0.00  0.00    +0.000 A 
ATOM     16  C   UNL     1       6.432   4.593  17.704  0.00  0.00    +0.000 A 
ATOM     17  C   UNL     1       7.186   4.595  16.516  0.00  0.00    +0.000 A 
BRANCH  12  19
ATOM     18  C   UNL     1       6.513   3.844  12.974  0.00  0.00    +0.000 C 
ATOM     19  O   UNL     1       7.205   4.450  14.060  0.00  0.00    +0.000 OA
ENDBRANCH  12  19
BRANCH  16  20
ATOM     20  O   UNL     1       7.002   4.692  18.949  0.00  0.00    +0.000 OA
ATOM     21  C   UNL     1       7.821   5.819  19.230  0.00  0.00    +0.000 C 
ENDBRANCH  16  20
ENDBRANCH   1  15
TORSDOF 4
ENDMDL
MODEL 3
REMARK VINA RESULT:      -6.6      1.211      1.363
REMARK  Name = 
REMARK  7 active torsions:
REMARK  status: ('A' for Active; 'I' for Inactive)
REMARK    1  A    between atoms: C_1  and  O_2
REMARK    2  A    between atoms: O_2  and  C_3
REMARK    3  A    between atoms: C_6  and  C_7
REMARK    4  A    between atoms: C_7  and  C_8
REMARK    5  A    between atoms: N_9  and  N_10
REMARK    6  A    between atoms: C_14  and  O_15
REMARK    7  A    between atoms: O_15  and  C_16
REMARK                            x       y       z     vdW  Elec       q    Type
REMARK                         _______ _______ _______ _____ _____    ______ ____
ROOT
ATOM      1  C   UNL     1       4.559   5.234  16.569  0.00  0.00    +0.000 C 
ATOM      2  C   UNL     1       4.737   6.729  16.349  0.00  0.00    +0.000 C 
ATOM      3  N   UNL     1       5.072   4.355  15.752  0.00  0.00    +0.000 NA
ENDROOT
BRANCH   3   4
ATOM      4  N   UNL     1       5.822   4.926  14.711  0.00  0.00    +0.000 NA
ATOM      5  C   UNL     1       7.093   4.915  14.965  0.00  0.00    +0.000 C 
ATOM      6  N   UNL     1       7.651   4.444  16.111  0.00  0.00    +0.000 N 
ATOM      7  N   UNL     1       8.006   5.428  14.114  0.00  0.00    +0.000 N 
ATOM      8  H   UNL     1       6.885   4.028  16.647  0.00  0.00    +0.000 HD
ATOM      9  H   UNL     1       8.389   3.776  15.966  0.00  0.00    +0.000 HD
ATOM     10  H   UNL     1       7.621   5.619  13.197  0.00  0.00    +0.000 HD
ATOM     11  H   UNL     1       8.913   4.992  14.102  0.00  0.00    +0.000 HD
ENDBRANCH   3   4
BRANCH   1  15
ATOM     12  C   UNL     1       2.273   3.986  20.023  0.00  0.00    +0.000 A 
ATOM     13  C   UNL     1       1.638   4.439  18.870  0.00  0.00    +0.000 A 
ATOM     14  C   UNL     1       2.384   4.820  17.750  0.00  0.00    +0.000 A 
ATOM     15  C   UNL     1       3.787   4.771  17.775  0.00  0.00    +0.000 A 
ATOM     16  C   UNL     1       4.436   4.293  18.935  0.00  0.00    +0.000 A 
ATOM     17  C   UNL     1       3.666   3.910  20.049  0.00  0.00    +0.000 A 
BRANCH  12  19
ATOM     18  C   UNL     1       1.743   2.467  21.777  0.00  0.00    +0.000 C 
ATOM     19  O   UNL     1       1.432   3.647  21.046  0.00  0.00    +0.000 OA
ENDBRANCH  12  19
BRANCH  16  20
ATOM     20  O   UNL     1       5.809   4.257  18.930  0.00  0.00    +0.000 OA
ATOM     21  C   UNL     1       6.516   5.391  19.415  0.00  0.00    +0.000 C 
ENDBRANCH  16  20
ENDBRANCH   1  15
TORSDOF 4
ENDMDL
MODEL 4
REMARK VINA RESULT:      -6.5      3.312      6.085
REMARK  Name = 
REMARK  7 active torsions:
REMARK  status: ('A' for Active; 'I' for Inactive)
REMARK    1  A    between atoms: C_1  and  O_2
REMARK    2  A    between atoms: O_2  and  C_3
REMARK    3  A    between atoms: C_6  and  C_7
REMARK    4  A    between atoms: C_7  and  C_8
REMARK    5  A    between atoms: N_9  and  N_10
REMARK    6  A    between atoms: C_14  and  O_15
REMARK    7  A    between atoms: O_15  and  C_16
REMARK                            x       y       z     vdW  Elec       q    Type
REMARK                         _______ _______ _______ _____ _____    ______ ____
ROOT
ATOM      1  C   UNL     1       3.666   3.455  17.419  0.00  0.00    +0.000 C 
ATOM      2  C   UNL     1       3.700   1.988  17.823  0.00  0.00    +0.000 C 
ATOM      3  N   UNL     1       2.658   4.226  17.722  0.00  0.00    +0.000 NA
ENDROOT
BRANCH   3   4
ATOM      4  N   UNL     1       1.666   3.583  18.479  0.00  0.00    +0.000 NA
ATOM      5  C   UNL     1       1.497   4.146  19.634  0.00  0.00    +0.000 C 
ATOM      6  N   UNL     1       2.207   5.210  20.092  0.00  0.00    +0.000 N 
ATOM      7  N   UNL     1       0.606   3.687  20.540  0.00  0.00    +0.000 N 
ATOM      8  H   UNL     1       2.799   5.509  19.312  0.00  0.00    +0.000 HD
ATOM      9  H   UNL     1       1.642   5.972  20.424  0.00  0.00    +0.000 HD
ATOM     10  H   UNL     1      -0.039   3.013  20.145  0.00  0.00    +0.000 HD
ATOM     11  H   UNL     1       0.178   4.369  21.144  0.00  0.00    +0.000 HD
ENDBRANCH   3   4
BRANCH   1  15
ATOM     12  C   UNL     1       7.034   5.005  15.190  0.00  0.00    +0.000 A 
ATOM     13  C   UNL     1       5.891   4.552  14.537  0.00  0.00    +0.000 A 
ATOM     14  C   UNL     1       4.799   4.073  15.266  0.00  0.00    +0.000 A 
ATOM     15  C   UNL     1       4.841   4.021  16.669  0.00  0.00    +0.000 A 
ATOM     16  C   UNL     1       5.991   4.498  17.337  0.00  0.00    +0.000 A 
ATOM     17  C   UNL     1       7.078   4.981  16.584  0.00  0.00    +0.000 A 
BRANCH  12  19
ATOM     18  C   UNL     1       7.855   5.237  12.968  0.00  0.00    +0.000 C 
ATOM     19  O   UNL     1       8.031   5.445  14.364  0.00  0.00    +0.000 OA
ENDBRANCH  12  19
BRANCH  16  20
ATOM     20  O   UNL     1       6.005   4.434  18.709  0.00  0.00    +0.000 OA
ATOM     21  C   UNL     1       6.753   5.408  19.424  0.00  0.00    +0.000 C 
ENDBRANCH  16  20
ENDBRANCH   1  15
TORSDOF 4
ENDMDL
MODEL 5
REMARK VINA RESULT:      -6.5      1.762      2.106
REMARK  Name = 
REMARK  7 active torsions:
REMARK  status: ('A' for Active; 'I' for Inactive)
REMARK    1  A    between atoms: C_1  and  O_2
REMARK    2  A    between atoms: O_2  and  C_3
REMARK    3  A    between atoms: C_6  and  C_7
REMARK    4  A    between atoms: C_7  and  C_8
REMARK    5  A    between atoms: N_9  and  N_10
REMARK    6  A    between atoms: C_14  and  O_15
REMARK    7  A    between atoms: O_15  and  C_16
REMARK                            x       y       z     vdW  Elec       q    Type
REMARK                         _______ _______ _______ _____ _____    ______ ____
ROOT
ATOM      1  C   UNL     1       5.259   5.305  17.285  0.00  0.00    +0.000 C 
ATOM      2  C   UNL     1       6.330   6.129  17.985  0.00  0.00    +0.000 C 
ATOM      3  N   UNL     1       5.254   5.146  15.990  0.00  0.00    +0.000 NA
ENDROOT
BRANCH   3   4
ATOM      4  N   UNL     1       6.339   5.760  15.343  0.00  0.00    +0.000 NA
ATOM      5  C   UNL     1       6.862   4.994  14.439  0.00  0.00    +0.000 C 
ATOM      6  N   UNL     1       6.448   3.730  14.157  0.00  0.00    +0.000 N 
ATOM      7  N   UNL     1       7.929   5.368  13.701  0.00  0.00    +0.000 N 
ATOM      8  H   UNL     1       5.608   3.577  14.721  0.00  0.00    +0.000 HD
ATOM      9  H   UNL     1       6.259   3.566  13.183  0.00  0.00    +0.000 HD
ATOM     10  H   UNL     1       8.132   6.357  13.782  0.00  0.00    +0.000 HD
ATOM     11  H   UNL     1       7.985   5.006  12.763  0.00  0.00    +0.000 HD
ENDBRANCH   3   4
BRANCH   1  15
ATOM     12  C   UNL     1       2.232   3.313  19.647  0.00  0.00    +0.000 A 
ATOM     13  C   UNL     1       3.480   2.730  19.444  0.00  0.00    +0.000 A 
ATOM     14  C   UNL     1       4.460   3.391  18.698  0.00  0.00    +0.000 A 
ATOM     15  C   UNL     1       4.198   4.645  18.122  0.00  0.00    +0.000 A 
ATOM     16  C   UNL     1       2.940   5.249  18.341  0.00  0.00    +0.000 A 
ATOM     17  C   UNL     1       1.969   4.569  19.100  0.00  0.00    +0.000 A 
BRANCH  12  19
ATOM     18  C   UNL     1       1.529   2.592  21.804  0.00  0.00    +0.000 C 
ATOM     19  O   UNL     1       1.363   2.564  20.391  0.00  0.00    +0.000 OA
ENDBRANCH  12  19
BRANCH  16  20
ATOM     20  O   UNL     1       2.711   6.474  17.764  0.00  0.00    +0.000 OA
ATOM     21  C   UNL     1       2.536   7.599  18.615  0.00  0.00    +0.000 C 
ENDBRANCH  16  20
ENDBRANCH   1  15
TORSDOF 4
ENDMDL
MODEL 6
REMARK VINA RESULT:      -6.5      3.514      6.201
REMARK  Name = 
REMARK  7 active torsions:
REMARK  status: ('A' for Active; 'I' for Inactive)
REMARK    1  A    between atoms: C_1  and  O_2
REMARK    2  A    between atoms: O_2  and  C_3
REMARK    3  A    between atoms: C_6  and  C_7
REMARK    4  A    between atoms: C_7  and  C_8
REMARK    5  A    between atoms: N_9  and  N_10
REMARK    6  A    between atoms: C_14  and  O_15
REMARK    7  A    between atoms: O_15  and  C_16
REMARK                            x       y       z     vdW  Elec       q    Type
REMARK                         _______ _______ _______ _____ _____    ______ ____
ROOT
ATOM      1  C   UNL     1       4.217   3.175  18.322  0.00  0.00    +0.000 C 
ATOM      2  C   UNL     1       3.699   1.785  17.986  0.00  0.00    +0.000 C 
ATOM      3  N   UNL     1       3.906   3.771  19.441  0.00  0.00    +0.000 NA
ENDROOT
BRANCH   3   4
ATOM      4  N   UNL     1       3.108   2.989  20.291  0.00  0.00    +0.000 NA
ATOM      5  C   UNL     1       2.394   3.716  21.091  0.00  0.00    +0.000 C 
ATOM      6  N   UNL     1       2.425   5.074  21.143  0.00  0.00    +0.000 N 
ATOM      7  N   UNL     1       1.563   3.180  22.010  0.00  0.00    +0.000 N 
ATOM      8  H   UNL     1       3.030   5.371  20.373  0.00  0.00    +0.000 HD
ATOM      9  H   UNL     1       1.521   5.510  21.075  0.00  0.00    +0.000 HD
ATOM     10  H   UNL     1       1.405   2.190  21.863  0.00  0.00    +0.000 HD
ATOM     11  H   UNL     1       0.734   3.704  22.237  0.00  0.00    +0.000 HD
ENDBRANCH   3   4
BRANCH   1  15
ATOM     12  C   UNL     1       6.819   5.064  15.428  0.00  0.00    +0.000 A 
ATOM     13  C   UNL     1       5.641   4.438  15.030  0.00  0.00    +0.000 A 
ATOM     14  C   UNL     1       4.795   3.849  15.974  0.00  0.00    +0.000 A 
ATOM     15  C   UNL     1       5.127   3.861  17.339  0.00  0.00    +0.000 A 
ATOM     16  C   UNL     1       6.311   4.512  17.750  0.00  0.00    +0.000 A 
ATOM     17  C   UNL     1       7.146   5.103  16.784  0.00  0.00    +0.000 A 
BRANCH  12  19
ATOM     18  C   UNL     1       7.493   4.941  13.148  0.00  0.00    +0.000 C 
ATOM     19  O   UNL     1       7.559   5.598  14.409  0.00  0.00    +0.000 OA
ENDBRANCH  12  19
BRANCH  16  20
ATOM     20  O   UNL     1       6.610   4.507  19.090  0.00  0.00    +0.000 OA
ATOM     21  C   UNL     1       7.418   5.556  19.607  0.00  0.00    +0.000 C 
ENDBRANCH  16  20
ENDBRANCH   1  15
TORSDOF 4
ENDMDL
MODEL 7
REMARK VINA RESULT:      -6.5      4.135      6.429
REMARK  Name = 
REMARK  7 active torsions:
REMARK  status: ('A' for Active; 'I' for Inactive)
REMARK    1  A    between atoms: C_1  and  O_2
REMARK    2  A    between atoms: O_2  and  C_3
REMARK    3  A    between atoms: C_6  and  C_7
REMARK    4  A    between atoms: C_7  and  C_8
REMARK    5  A    between atoms: N_9  and  N_10
REMARK    6  A    between atoms: C_14  and  O_15
REMARK    7  A    between atoms: O_15  and  C_16
REMARK                            x       y       z     vdW  Elec       q    Type
REMARK                         _______ _______ _______ _____ _____    ______ ____
ROOT
ATOM      1  C   UNL     1       2.478   4.476  18.760  0.00  0.00    +0.000 C 
ATOM      2  C   UNL     1       1.193   3.876  18.209  0.00  0.00    +0.000 C 
ATOM      3  N   UNL     1       2.669   4.630  20.041  0.00  0.00    +0.000 NA
ENDROOT
BRANCH   3   4
ATOM      4  N   UNL     1       1.610   4.150  20.829  0.00  0.00    +0.000 NA
ATOM      5  C   UNL     1       1.948   3.100  21.510  0.00  0.00    +0.000 C 
ATOM      6  N   UNL     1       3.166   2.499  21.457  0.00  0.00    +0.000 N 
ATOM      7  N   UNL     1       1.085   2.456  22.324  0.00  0.00    +0.000 N 
ATOM      8  H   UNL     1       3.750   3.099  20.868  0.00  0.00    +0.000 HD
ATOM      9  H   UNL     1       3.594   2.355  22.355  0.00  0.00    +0.000 HD
ATOM     10  H   UNL     1       0.243   2.990  22.501  0.00  0.00    +0.000 HD
ATOM     11  H   UNL     1       1.474   2.010  23.139  0.00  0.00    +0.000 HD
ENDBRANCH   3   4
BRANCH   1  15
ATOM     12  C   UNL     1       5.636   5.547  16.003  0.00  0.00    +0.000 A 
ATOM     13  C   UNL     1       5.211   4.227  16.128  0.00  0.00    +0.000 A 
ATOM     14  C   UNL     1       4.175   3.893  17.005  0.00  0.00    +0.000 A 
ATOM     15  C   UNL     1       3.557   4.879  17.791  0.00  0.00    +0.000 A 
ATOM     16  C   UNL     1       3.971   6.222  17.655  0.00  0.00    +0.000 A 
ATOM     17  C   UNL     1       5.013   6.538  16.762  0.00  0.00    +0.000 A 
BRANCH  12  19
ATOM     18  C   UNL     1       6.843   4.746  14.114  0.00  0.00    +0.000 C 
ATOM     19  O   UNL     1       6.657   5.740  15.115  0.00  0.00    +0.000 OA
ENDBRANCH  12  19
BRANCH  16  20
ATOM     20  O   UNL     1       3.350   7.165  18.437  0.00  0.00    +0.000 OA
ATOM     21  C   UNL     1       2.526   8.134  17.802  0.00  0.00    +0.000 C 
ENDBRANCH  16  20
ENDBRANCH   1  15
TORSDOF 4
ENDMDL
MODEL 8
REMARK VINA RESULT:      -6.4      3.569      6.015
REMARK  Name = 
REMARK  7 active torsions:
REMARK  status: ('A' for Active; 'I' for Inactive)
REMARK    1  A    between atoms: C_1  and  O_2
REMARK    2  A    between atoms: O_2  and  C_3
REMARK    3  A    between atoms: C_6  and  C_7
REMARK    4  A    between atoms: C_7  and  C_8
REMARK    5  A    between atoms: N_9  and  N_10
REMARK    6  A    between atoms: C_14  and  O_15
REMARK    7  A    between atoms: O_15  and  C_16
REMARK                            x       y       z     vdW  Elec       q    Type
REMARK                         _______ _______ _______ _____ _____    ______ ____
ROOT
ATOM      1  C   UNL     1       4.312   3.772  18.791  0.00  0.00    +0.000 C 
ATOM      2  C   UNL     1       4.524   2.397  19.406  0.00  0.00    +0.000 C 
ATOM      3  N   UNL     1       3.383   4.580  19.224  0.00  0.00    +0.000 NA
ENDROOT
BRANCH   3   4
ATOM      4  N   UNL     1       2.659   4.072  20.315  0.00  0.00    +0.000 NA
ATOM      5  C   UNL     1       1.509   3.596  19.956  0.00  0.00    +0.000 C 
ATOM      6  N   UNL     1       1.025   3.607  18.686  0.00  0.00    +0.000 N 
ATOM      7  N   UNL     1       0.635   3.071  20.841  0.00  0.00    +0.000 N 
ATOM      8  H   UNL     1       1.785   3.964  18.100  0.00  0.00    +0.000 HD
ATOM      9  H   UNL     1       0.710   2.711  18.356  0.00  0.00    +0.000 HD
ATOM     10  H   UNL     1       1.051   2.902  21.748  0.00  0.00    +0.000 HD
ATOM     11  H   UNL     1       0.042   2.327  20.510  0.00  0.00    +0.000 HD
ENDBRANCH   3   4
BRANCH   1  15
ATOM     12  C   UNL     1       6.881   4.938  15.512  0.00  0.00    +0.000 A 
ATOM     13  C   UNL     1       5.584   4.487  15.280  0.00  0.00    +0.000 A 
ATOM     14  C   UNL     1       4.754   4.132  16.347  0.00  0.00    +0.000 A 
ATOM     15  C   UNL     1       5.217   4.207  17.671  0.00  0.00    +0.000 A 
ATOM     16  C   UNL     1       6.525   4.683  17.913  0.00  0.00    +0.000 A 
ATOM     17  C   UNL     1       7.343   5.039  16.825  0.00  0.00    +0.000 A 
BRANCH  12  19
ATOM     18  C   UNL     1       7.146   4.678  13.161  0.00  0.00    +0.000 C 
ATOM     19  O   UNL     1       7.591   5.249  14.386  0.00  0.00    +0.000 OA
ENDBRANCH  12  19
BRANCH  16  20
ATOM     20  O   UNL     1       6.951   4.743  19.217  0.00  0.00    +0.000 OA
ATOM     21  C   UNL     1       7.851   5.780  19.586  0.00  0.00    +0.000 C 
ENDBRANCH  16  20
ENDBRANCH   1  15
TORSDOF 4
ENDMDL
MODEL 9
REMARK VINA RESULT:      -6.4      3.446      6.018
REMARK  Name = 
REMARK  7 active torsions:
REMARK  status: ('A' for Active; 'I' for Inactive)
REMARK    1  A    between atoms: C_1  and  O_2
REMARK    2  A    between atoms: O_2  and  C_3
REMARK    3  A    between atoms: C_6  and  C_7
REMARK    4  A    between atoms: C_7  and  C_8
REMARK    5  A    between atoms: N_9  and  N_10
REMARK    6  A    between atoms: C_14  and  O_15
REMARK    7  A    between atoms: O_15  and  C_16
REMARK                            x       y       z     vdW  Elec       q    Type
REMARK                         _______ _______ _______ _____ _____    ______ ____
ROOT
ATOM      1  C   UNL     1       4.034   4.617  18.559  0.00  0.00    +0.000 C 
ATOM      2  C   UNL     1       3.528   5.852  19.290  0.00  0.00    +0.000 C 
ATOM      3  N   UNL     1       3.586   3.424  18.839  0.00  0.00    +0.000 NA
ENDROOT
BRANCH   3   4
ATOM      4  N   UNL     1       2.583   3.415  19.821  0.00  0.00    +0.000 NA
ATOM      5  C   UNL     1       2.929   2.726  20.862  0.00  0.00    +0.000 C 
ATOM      6  N   UNL     1       4.103   2.054  20.994  0.00  0.00    +0.000 N 
ATOM      7  N   UNL     1       2.114   2.563  21.927  0.00  0.00    +0.000 N 
ATOM      8  H   UNL     1       4.659   2.295  20.170  0.00  0.00    +0.000 HD
ATOM      9  H   UNL     1       4.607   2.265  21.839  0.00  0.00    +0.000 HD
ATOM     10  H   UNL     1       1.322   3.194  21.911  0.00  0.00    +0.000 HD
ATOM     11  H   UNL     1       2.554   2.470  22.827  0.00  0.00    +0.000 HD
ENDBRANCH   3   4
BRANCH   1  15
ATOM     12  C   UNL     1       6.933   5.060  15.379  0.00  0.00    +0.000 A 
ATOM     13  C   UNL     1       5.567   5.078  15.110  0.00  0.00    +0.000 A 
ATOM     14  C   UNL     1       4.637   4.956  16.147  0.00  0.00    +0.000 A 
ATOM     15  C   UNL     1       5.063   4.794  17.475  0.00  0.00    +0.000 A 
ATOM     16  C   UNL     1       6.447   4.794  17.755  0.00  0.00    +0.000 A 
ATOM     17  C   UNL     1       7.367   4.923  16.698  0.00  0.00    +0.000 A 
BRANCH  12  19
ATOM     18  C   UNL     1       7.232   4.681  13.047  0.00  0.00    +0.000 C 
ATOM     19  O   UNL     1       7.736   5.185  14.279  0.00  0.00    +0.000 OA
ENDBRANCH  12  19
BRANCH  16  20
ATOM     20  O   UNL     1       6.834   4.633  19.063  0.00  0.00    +0.000 OA
ATOM     21  C   UNL     1       7.644   5.638  19.658  0.00  0.00    +0.000 C 
ENDBRANCH  16  20
ENDBRANCH   1  15
TORSDOF 4
ENDMDL
