MODEL 1
REMARK VINA RESULT:      -8.5      0.000      0.000
REMARK  Name = 
REMARK  7 active torsions:
REMARK  status: ('A' for Active; 'I' for Inactive)
REMARK    1  A    between atoms: C_1  and  O_2
REMARK    2  A    between atoms: O_2  and  C_3
REMARK    3  A    between atoms: C_8  and  N_9
REMARK    4  A    between atoms: C_13  and  C_15
REMARK    5  A    between atoms: C_15  and  C_16
REMARK    6  A    between atoms: C_16  and  C_17
REMARK    7  A    between atoms: C_18  and  C_19
REMARK                            x       y       z     vdW  Elec       q    Type
REMARK                         _______ _______ _______ _____ _____    ______ ____
ROOT
ATOM      1  C   UNL     1       3.274   7.998  17.646  0.00  0.00    +0.000 C 
ENDROOT
BRANCH   1   2
ATOM      2  C   UNL     1       4.342   6.898  17.549  0.00  0.00    +0.000 A 
ATOM      3  C   UNL     1       4.344   5.950  18.611  0.00  0.00    +0.000 A 
ATOM      4  N   UNL     1       5.736   5.881  18.763  0.00  0.00    +0.000 N 
ATOM      5  C   UNL     1       6.183   5.569  17.490  0.00  0.00    +0.000 A 
ATOM      6  C   UNL     1       7.262   4.770  17.104  0.00  0.00    +0.000 A 
ATOM      7  C   UNL     1       7.134   4.173  15.855  0.00  0.00    +0.000 A 
ATOM      8  C   UNL     1       6.041   4.476  15.035  0.00  0.00    +0.000 A 
ATOM      9  C   UNL     1       5.095   5.485  15.370  0.00  0.00    +0.000 A 
ATOM     10  C   UNL     1       5.159   6.075  16.654  0.00  0.00    +0.000 A 
ATOM     11  H   UNL     1       6.274   6.487  19.368  0.00  0.00    +0.000 HD
BRANCH   3  12
ATOM     12  C   UNL     1       3.468   4.714  18.478  0.00  0.00    +0.000 A 
ATOM     13  C   UNL     1       2.223   4.717  17.846  0.00  0.00    +0.000 A 
ATOM     14  C   UNL     1       1.365   3.609  17.976  0.00  0.00    +0.000 A 
ATOM     15  C   UNL     1       1.743   2.501  18.740  0.00  0.00    +0.000 A 
ATOM     16 CL   UNL     1       0.681   1.159  18.923  0.00  0.00    +0.000 Cl
ATOM     17  C   UNL     1       2.969   2.479  19.381  0.00  0.00    +0.000 A 
ATOM     18  C   UNL     1       3.817   3.571  19.237  0.00  0.00    +0.000 A 
ENDBRANCH   3  12
ENDBRANCH   1   2
BRANCH   1  19
ATOM     19  C   UNL     1       2.249   8.275  18.764  0.00  0.00    +0.000 C 
BRANCH  19  24
ATOM     20  N   UNL     1      -0.808  11.732  21.452  0.00  0.00    +0.000 N 
ATOM     21  C   UNL     1      -1.116  11.939  20.024  0.00  0.00    +0.000 C 
ATOM     22  C   UNL     1       0.127  11.572  19.168  0.00  0.00    +0.000 C 
ATOM     23  N   UNL     1       0.702  10.233  19.459  0.00  0.00    +0.000 N 
ATOM     24  C   UNL     1       1.486   9.630  18.468  0.00  0.00    +0.000 C 
ATOM     25  O   UNL     1       1.549  10.135  17.337  0.00  0.00    +0.000 OA
ATOM     26  C   UNL     1       0.841   9.948  20.895  0.00  0.00    +0.000 C 
ATOM     27  C   UNL     1      -0.416  10.330  21.724  0.00  0.00    +0.000 C 
BRANCH  20  33
ATOM     28  C   UNL     1      -0.885  13.654  23.002  0.00  0.00    +0.000 A 
ATOM     29  C   UNL     1      -1.571  14.422  23.969  0.00  0.00    +0.000 A 
ATOM     30  C   UNL     1      -2.832  14.032  24.417  0.00  0.00    +0.000 A 
ATOM     31  C   UNL     1      -3.413  12.890  23.894  0.00  0.00    +0.000 A 
ATOM     32  C   UNL     1      -2.727  12.119  22.930  0.00  0.00    +0.000 A 
ATOM     33  C   UNL     1      -1.453  12.463  22.458  0.00  0.00    +0.000 A 
BRANCH  28  35
ATOM     34  C   UNL     1       0.574  15.419  22.347  0.00  0.00    +0.000 C 
ATOM     35  O   UNL     1       0.356  14.024  22.525  0.00  0.00    +0.000 OA
ENDBRANCH  28  35
ENDBRANCH  20  33
ENDBRANCH  19  24
ENDBRANCH   1  19
TORSDOF 6
ENDMDL
MODEL 2
REMARK VINA RESULT:      -8.4      3.078      4.797
REMARK  Name = 
REMARK  7 active torsions:
REMARK  status: ('A' for Active; 'I' for Inactive)
REMARK    1  A    between atoms: C_1  and  O_2
REMARK    2  A    between atoms: O_2  and  C_3
REMARK    3  A    between atoms: C_8  and  N_9
REMARK    4  A    between atoms: C_13  and  C_15
REMARK    5  A    between atoms: C_15  and  C_16
REMARK    6  A    between atoms: C_16  and  C_17
REMARK    7  A    between atoms: C_18  and  C_19
REMARK                            x       y       z     vdW  Elec       q    Type
REMARK                         _______ _______ _______ _____ _____    ______ ____
ROOT
ATOM      1  C   UNL     1       2.040   7.805  19.008  0.00  0.00    +0.000 C 
ENDROOT
BRANCH   1   2
ATOM      2  C   UNL     1       1.887   6.280  19.110  0.00  0.00    +0.000 A 
ATOM      3  C   UNL     1       2.442   5.533  18.033  0.00  0.00    +0.000 A 
ATOM      4  N   UNL     1       1.388   4.617  17.910  0.00  0.00    +0.000 N 
ATOM      5  C   UNL     1       1.267   4.095  19.188  0.00  0.00    +0.000 A 
ATOM      6  C   UNL     1       0.926   2.800  19.584  0.00  0.00    +0.000 A 
ATOM      7  C   UNL     1       1.431   2.412  20.819  0.00  0.00    +0.000 A 
ATOM      8  C   UNL     1       2.124   3.327  21.620  0.00  0.00    +0.000 A 
ATOM      9  C   UNL     1       2.232   4.705  21.281  0.00  0.00    +0.000 A 
ATOM     10  C   UNL     1       1.780   5.128  20.009  0.00  0.00    +0.000 A 
ATOM     11  H   UNL     1       0.574   4.759  17.328  0.00  0.00    +0.000 HD
BRANCH   3  12
ATOM     12  C   UNL     1       3.899   5.107  18.125  0.00  0.00    +0.000 A 
ATOM     13  C   UNL     1       4.790   5.609  19.073  0.00  0.00    +0.000 A 
ATOM     14  C   UNL     1       6.169   5.360  18.946  0.00  0.00    +0.000 A 
ATOM     15  C   UNL     1       6.662   4.616  17.870  0.00  0.00    +0.000 A 
ATOM     16 CL   UNL     1       8.352   4.337  17.698  0.00  0.00    +0.000 Cl
ATOM     17  C   UNL     1       5.797   4.114  16.913  0.00  0.00    +0.000 A 
ATOM     18  C   UNL     1       4.435   4.353  17.053  0.00  0.00    +0.000 A 
ENDBRANCH   3  12
ENDBRANCH   1   2
BRANCH   1  19
ATOM     19  C   UNL     1       2.001   8.714  17.763  0.00  0.00    +0.000 C 
BRANCH  19  24
ATOM     20  N   UNL     1      -2.558  11.439  18.321  0.00  0.00    +0.000 N 
ATOM     21  C   UNL     1      -1.496  12.450  18.148  0.00  0.00    +0.000 C 
ATOM     22  C   UNL     1      -0.152  11.885  18.682  0.00  0.00    +0.000 C 
ATOM     23  N   UNL     1       0.213  10.548  18.144  0.00  0.00    +0.000 N 
ATOM     24  C   UNL     1       1.562  10.176  18.181  0.00  0.00    +0.000 C 
ATOM     25  O   UNL     1       2.425  11.008  18.501  0.00  0.00    +0.000 OA
ATOM     26  C   UNL     1      -0.899   9.587  18.145  0.00  0.00    +0.000 C 
ATOM     27  C   UNL     1      -2.230  10.182  17.609  0.00  0.00    +0.000 C 
BRANCH  20  33
ATOM     28  C   UNL     1      -4.395  12.365  19.690  0.00  0.00    +0.000 A 
ATOM     29  C   UNL     1      -5.736  12.789  19.815  0.00  0.00    +0.000 A 
ATOM     30  C   UNL     1      -6.618  12.669  18.742  0.00  0.00    +0.000 A 
ATOM     31  C   UNL     1      -6.163  12.142  17.546  0.00  0.00    +0.000 A 
ATOM     32  C   UNL     1      -4.823  11.714  17.420  0.00  0.00    +0.000 A 
ATOM     33  C   UNL     1      -3.902  11.802  18.474  0.00  0.00    +0.000 A 
BRANCH  28  35
ATOM     34  C   UNL     1      -4.015  12.947  21.967  0.00  0.00    +0.000 C 
ATOM     35  O   UNL     1      -3.492  12.487  20.727  0.00  0.00    +0.000 OA
ENDBRANCH  28  35
ENDBRANCH  20  33
ENDBRANCH  19  24
ENDBRANCH   1  19
TORSDOF 6
ENDMDL
MODEL 3
REMARK VINA RESULT:      -8.4      2.317      4.145
REMARK  Name = 
REMARK  7 active torsions:
REMARK  status: ('A' for Active; 'I' for Inactive)
REMARK    1  A    between atoms: C_1  and  O_2
REMARK    2  A    between atoms: O_2  and  C_3
REMARK    3  A    between atoms: C_8  and  N_9
REMARK    4  A    between atoms: C_13  and  C_15
REMARK    5  A    between atoms: C_15  and  C_16
REMARK    6  A    between atoms: C_16  and  C_17
REMARK    7  A    between atoms: C_18  and  C_19
REMARK                            x       y       z     vdW  Elec       q    Type
REMARK                         _______ _______ _______ _____ _____    ______ ____
ROOT
ATOM      1  C   UNL     1       1.977   7.547  19.449  0.00  0.00    +0.000 C 
ENDROOT
BRANCH   1   2
ATOM      2  C   UNL     1       1.843   6.030  19.250  0.00  0.00    +0.000 A 
ATOM      3  C   UNL     1       2.473   5.506  18.085  0.00  0.00    +0.000 A 
ATOM      4  N   UNL     1       1.444   4.623  17.728  0.00  0.00    +0.000 N 
ATOM      5  C   UNL     1       1.257   3.867  18.873  0.00  0.00    +0.000 A 
ATOM      6  C   UNL     1       0.916   2.518  18.995  0.00  0.00    +0.000 A 
ATOM      7  C   UNL     1       1.355   1.904  20.162  0.00  0.00    +0.000 A 
ATOM      8  C   UNL     1       1.985   2.654  21.163  0.00  0.00    +0.000 A 
ATOM      9  C   UNL     1       2.089   4.072  21.099  0.00  0.00    +0.000 A 
ATOM     10  C   UNL     1       1.705   4.727  19.906  0.00  0.00    +0.000 A 
ATOM     11  H   UNL     1       0.662   4.870  17.136  0.00  0.00    +0.000 HD
BRANCH   3  12
ATOM     12  C   UNL     1       3.929   5.077  18.182  0.00  0.00    +0.000 A 
ATOM     13  C   UNL     1       4.786   5.488  19.203  0.00  0.00    +0.000 A 
ATOM     14  C   UNL     1       6.171   5.258  19.097  0.00  0.00    +0.000 A 
ATOM     15  C   UNL     1       6.703   4.624  17.970  0.00  0.00    +0.000 A 
ATOM     16 CL   UNL     1       8.399   4.369  17.825  0.00  0.00    +0.000 Cl
ATOM     17  C   UNL     1       5.872   4.215  16.942  0.00  0.00    +0.000 A 
ATOM     18  C   UNL     1       4.504   4.433  17.060  0.00  0.00    +0.000 A 
ENDBRANCH   3  12
ENDBRANCH   1   2
BRANCH   1  19
ATOM     19  C   UNL     1       1.476   8.432  20.609  0.00  0.00    +0.000 C 
BRANCH  19  24
ATOM     20  N   UNL     1      -1.478  12.487  22.439  0.00  0.00    +0.000 N 
ATOM     21  C   UNL     1      -1.681  12.461  20.977  0.00  0.00    +0.000 C 
ATOM     22  C   UNL     1      -0.418  11.874  20.291  0.00  0.00    +0.000 C 
ATOM     23  N   UNL     1       0.038  10.572  20.845  0.00  0.00    +0.000 N 
ATOM     24  C   UNL     1       0.835   9.759  20.031  0.00  0.00    +0.000 C 
ATOM     25  O   UNL     1       1.005  10.054  18.839  0.00  0.00    +0.000 OA
ATOM     26  C   UNL     1       0.066  10.534  22.315  0.00  0.00    +0.000 C 
ATOM     27  C   UNL     1      -1.208  11.132  22.972  0.00  0.00    +0.000 C 
BRANCH  20  33
ATOM     28  C   UNL     1      -3.541  13.388  23.458  0.00  0.00    +0.000 A 
ATOM     29  C   UNL     1      -4.181  14.292  24.334  0.00  0.00    +0.000 A 
ATOM     30  C   UNL     1      -3.440  15.245  25.031  0.00  0.00    +0.000 A 
ATOM     31  C   UNL     1      -2.067  15.288  24.867  0.00  0.00    +0.000 A 
ATOM     32  C   UNL     1      -1.425  14.388  23.988  0.00  0.00    +0.000 A 
ATOM     33  C   UNL     1      -2.128  13.421  23.256  0.00  0.00    +0.000 A 
BRANCH  28  35
ATOM     34  C   UNL     1      -5.309  12.881  21.945  0.00  0.00    +0.000 C 
ATOM     35  O   UNL     1      -4.244  12.421  22.768  0.00  0.00    +0.000 OA
ENDBRANCH  28  35
ENDBRANCH  20  33
ENDBRANCH  19  24
ENDBRANCH   1  19
TORSDOF 6
ENDMDL
MODEL 4
REMARK VINA RESULT:      -8.4      2.296      3.995
REMARK  Name = 
REMARK  7 active torsions:
REMARK  status: ('A' for Active; 'I' for Inactive)
REMARK    1  A    between atoms: C_1  and  O_2
REMARK    2  A    between atoms: O_2  and  C_3
REMARK    3  A    between atoms: C_8  and  N_9
REMARK    4  A    between atoms: C_13  and  C_15
REMARK    5  A    between atoms: C_15  and  C_16
REMARK    6  A    between atoms: C_16  and  C_17
REMARK    7  A    between atoms: C_18  and  C_19
REMARK                            x       y       z     vdW  Elec       q    Type
REMARK                         _______ _______ _______ _____ _____    ______ ____
ROOT
ATOM      1  C   UNL     1       2.251   7.233  20.013  0.00  0.00    +0.000 C 
ENDROOT
BRANCH   1   2
ATOM      2  C   UNL     1       2.158   5.815  19.430  0.00  0.00    +0.000 A 
ATOM      3  C   UNL     1       2.310   5.721  18.018  0.00  0.00    +0.000 A 
ATOM      4  N   UNL     1       1.289   4.784  17.807  0.00  0.00    +0.000 N 
ATOM      5  C   UNL     1       1.625   3.745  18.659  0.00  0.00    +0.000 A 
ATOM      6  C   UNL     1       1.457   2.369  18.485  0.00  0.00    +0.000 A 
ATOM      7  C   UNL     1       2.365   1.574  19.174  0.00  0.00    +0.000 A 
ATOM      8  C   UNL     1       3.284   2.153  20.057  0.00  0.00    +0.000 A 
ATOM      9  C   UNL     1       3.254   3.536  20.389  0.00  0.00    +0.000 A 
ATOM     10  C   UNL     1       2.383   4.387  19.669  0.00  0.00    +0.000 A 
ATOM     11  H   UNL     1       0.321   5.023  17.637  0.00  0.00    +0.000 HD
BRANCH   3  12
ATOM     12  C   UNL     1       3.712   5.553  17.452  0.00  0.00    +0.000 A 
ATOM     13  C   UNL     1       4.634   6.596  17.359  0.00  0.00    +0.000 A 
ATOM     14  C   UNL     1       5.811   6.431  16.605  0.00  0.00    +0.000 A 
ATOM     15  C   UNL     1       6.067   5.228  15.939  0.00  0.00    +0.000 A 
ATOM     16 CL   UNL     1       7.492   5.036  14.993  0.00  0.00    +0.000 Cl
ATOM     17  C   UNL     1       5.163   4.183  16.012  0.00  0.00    +0.000 A 
ATOM     18  C   UNL     1       4.009   4.349  16.769  0.00  0.00    +0.000 A 
ENDBRANCH   3  12
ENDBRANCH   1   2
BRANCH   1  19
ATOM     19  C   UNL     1       1.292   7.963  20.976  0.00  0.00    +0.000 C 
BRANCH  19  24
ATOM     20  N   UNL     1      -1.412  12.307  22.503  0.00  0.00    +0.000 N 
ATOM     21  C   UNL     1      -1.508  12.263  21.031  0.00  0.00    +0.000 C 
ATOM     22  C   UNL     1      -0.256  11.550  20.452  0.00  0.00    +0.000 C 
ATOM     23  N   UNL     1       0.039  10.227  21.064  0.00  0.00    +0.000 N 
ATOM     24  C   UNL     1       0.818   9.326  20.328  0.00  0.00    +0.000 C 
ATOM     25  O   UNL     1       1.101   9.576  19.147  0.00  0.00    +0.000 OA
ATOM     26  C   UNL     1      -0.045  10.223  22.532  0.00  0.00    +0.000 C 
ATOM     27  C   UNL     1      -1.306  10.948  23.079  0.00  0.00    +0.000 C 
BRANCH  20  33
ATOM     28  C   UNL     1      -3.448  13.342  23.447  0.00  0.00    +0.000 A 
ATOM     29  C   UNL     1      -4.061  14.324  24.256  0.00  0.00    +0.000 A 
ATOM     30  C   UNL     1      -3.292  15.298  24.891  0.00  0.00    +0.000 A 
ATOM     31  C   UNL     1      -1.917  15.286  24.731  0.00  0.00    +0.000 A 
ATOM     32  C   UNL     1      -1.302  14.307  23.918  0.00  0.00    +0.000 A 
ATOM     33  C   UNL     1      -2.034  13.315  23.251  0.00  0.00    +0.000 A 
BRANCH  28  35
ATOM     34  C   UNL     1      -5.096  12.783  21.822  0.00  0.00    +0.000 C 
ATOM     35  O   UNL     1      -4.180  12.353  22.821  0.00  0.00    +0.000 OA
ENDBRANCH  28  35
ENDBRANCH  20  33
ENDBRANCH  19  24
ENDBRANCH   1  19
TORSDOF 6
ENDMDL
MODEL 5
REMARK VINA RESULT:      -8.3      2.153      3.866
REMARK  Name = 
REMARK  7 active torsions:
REMARK  status: ('A' for Active; 'I' for Inactive)
REMARK    1  A    between atoms: C_1  and  O_2
REMARK    2  A    between atoms: O_2  and  C_3
REMARK    3  A    between atoms: C_8  and  N_9
REMARK    4  A    between atoms: C_13  and  C_15
REMARK    5  A    between atoms: C_15  and  C_16
REMARK    6  A    between atoms: C_16  and  C_17
REMARK    7  A    between atoms: C_18  and  C_19
REMARK                            x       y       z     vdW  Elec       q    Type
REMARK                         _______ _______ _______ _____ _____    ______ ____
ROOT
ATOM      1  C   UNL     1       2.053   7.537  19.788  0.00  0.00    +0.000 C 
ENDROOT
BRANCH   1   2
ATOM      2  C   UNL     1       1.873   6.054  19.433  0.00  0.00    +0.000 A 
ATOM      3  C   UNL     1       2.478   5.636  18.214  0.00  0.00    +0.000 A 
ATOM      4  N   UNL     1       1.420   4.827  17.776  0.00  0.00    +0.000 N 
ATOM      5  C   UNL     1       1.219   3.960  18.838  0.00  0.00    +0.000 A 
ATOM      6  C   UNL     1       0.838   2.617  18.821  0.00  0.00    +0.000 A 
ATOM      7  C   UNL     1       1.267   1.871  19.913  0.00  0.00    +0.000 A 
ATOM      8  C   UNL     1       1.926   2.493  20.980  0.00  0.00    +0.000 A 
ATOM      9  C   UNL     1       2.072   3.906  21.064  0.00  0.00    +0.000 A 
ATOM     10  C   UNL     1       1.699   4.693  19.950  0.00  0.00    +0.000 A 
ATOM     11  H   UNL     1       0.642   5.157  17.221  0.00  0.00    +0.000 HD
BRANCH   3  12
ATOM     12  C   UNL     1       3.921   5.158  18.250  0.00  0.00    +0.000 A 
ATOM     13  C   UNL     1       4.807   5.460  19.285  0.00  0.00    +0.000 A 
ATOM     14  C   UNL     1       6.181   5.198  19.135  0.00  0.00    +0.000 A 
ATOM     15  C   UNL     1       6.675   4.639  17.952  0.00  0.00    +0.000 A 
ATOM     16 CL   UNL     1       8.359   4.345  17.758  0.00  0.00    +0.000 Cl
ATOM     17  C   UNL     1       5.816   4.338  16.910  0.00  0.00    +0.000 A 
ATOM     18  C   UNL     1       4.458   4.588  17.070  0.00  0.00    +0.000 A 
ENDBRANCH   3  12
ENDBRANCH   1   2
BRANCH   1  19
ATOM     19  C   UNL     1       1.346   8.380  20.869  0.00  0.00    +0.000 C 
BRANCH  19  24
ATOM     20  N   UNL     1      -1.684  12.493  22.426  0.00  0.00    +0.000 N 
ATOM     21  C   UNL     1      -1.889  12.362  20.971  0.00  0.00    +0.000 C 
ATOM     22  C   UNL     1      -0.617  11.754  20.321  0.00  0.00    +0.000 C 
ATOM     23  N   UNL     1      -0.134  10.503  20.963  0.00  0.00    +0.000 N 
ATOM     24  C   UNL     1       0.677   9.651  20.204  0.00  0.00    +0.000 C 
ATOM     25  O   UNL     1       0.838   9.866  18.994  0.00  0.00    +0.000 OA
ATOM     26  C   UNL     1      -0.102  10.567  22.431  0.00  0.00    +0.000 C 
ATOM     27  C   UNL     1      -1.386  11.184  23.051  0.00  0.00    +0.000 C 
BRANCH  20  33
ATOM     28  C   UNL     1      -1.695  14.661  23.612  0.00  0.00    +0.000 A 
ATOM     29  C   UNL     1      -2.390  15.670  24.314  0.00  0.00    +0.000 A 
ATOM     30  C   UNL     1      -3.747  15.525  24.602  0.00  0.00    +0.000 A 
ATOM     31  C   UNL     1      -4.410  14.385  24.180  0.00  0.00    +0.000 A 
ATOM     32  C   UNL     1      -3.715  13.374  23.481  0.00  0.00    +0.000 A 
ATOM     33  C   UNL     1      -2.350  13.469  23.179  0.00  0.00    +0.000 A 
BRANCH  28  35
ATOM     34  C   UNL     1       0.166  16.107  23.265  0.00  0.00    +0.000 C 
ATOM     35  O   UNL     1      -0.357  14.784  23.295  0.00  0.00    +0.000 OA
ENDBRANCH  28  35
ENDBRANCH  20  33
ENDBRANCH  19  24
ENDBRANCH   1  19
TORSDOF 6
ENDMDL
MODEL 6
REMARK VINA RESULT:      -8.1      1.673      2.338
REMARK  Name = 
REMARK  7 active torsions:
REMARK  status: ('A' for Active; 'I' for Inactive)
REMARK    1  A    between atoms: C_1  and  O_2
REMARK    2  A    between atoms: O_2  and  C_3
REMARK    3  A    between atoms: C_8  and  N_9
REMARK    4  A    between atoms: C_13  and  C_15
REMARK    5  A    between atoms: C_15  and  C_16
REMARK    6  A    between atoms: C_16  and  C_17
REMARK    7  A    between atoms: C_18  and  C_19
REMARK                            x       y       z     vdW  Elec       q    Type
REMARK                         _______ _______ _______ _____ _____    ______ ____
ROOT
ATOM      1  C   UNL     1       3.832   8.160  17.809  0.00  0.00    +0.000 C 
ENDROOT
BRANCH   1   2
ATOM      2  C   UNL     1       4.741   6.955  17.527  0.00  0.00    +0.000 A 
ATOM      3  C   UNL     1       4.741   5.939  18.524  0.00  0.00    +0.000 A 
ATOM      4  N   UNL     1       6.122   5.700  18.513  0.00  0.00    +0.000 N 
ATOM      5  C   UNL     1       6.391   5.430  17.181  0.00  0.00    +0.000 A 
ATOM      6  C   UNL     1       7.317   4.543  16.629  0.00  0.00    +0.000 A 
ATOM      7  C   UNL     1       6.986   4.056  15.370  0.00  0.00    +0.000 A 
ATOM      8  C   UNL     1       5.857   4.540  14.698  0.00  0.00    +0.000 A 
ATOM      9  C   UNL     1       5.082   5.624  15.197  0.00  0.00    +0.000 A 
ATOM     10  C   UNL     1       5.353   6.109  16.498  0.00  0.00    +0.000 A 
ATOM     11  H   UNL     1       6.791   6.195  19.088  0.00  0.00    +0.000 HD
BRANCH   3  12
ATOM     12  C   UNL     1       3.711   4.824  18.420  0.00  0.00    +0.000 A 
ATOM     13  C   UNL     1       2.494   4.961  17.751  0.00  0.00    +0.000 A 
ATOM     14  C   UNL     1       1.492   3.984  17.904  0.00  0.00    +0.000 A 
ATOM     15  C   UNL     1       1.701   2.873  18.728  0.00  0.00    +0.000 A 
ATOM     16 CL   UNL     1       0.465   1.693  18.938  0.00  0.00    +0.000 Cl
ATOM     17  C   UNL     1       2.897   2.721  19.405  0.00  0.00    +0.000 A 
ATOM     18  C   UNL     1       3.886   3.683  19.239  0.00  0.00    +0.000 A 
ENDBRANCH   3  12
ENDBRANCH   1   2
BRANCH   1  19
ATOM     19  C   UNL     1       2.294   8.260  17.766  0.00  0.00    +0.000 C 
BRANCH  19  24
ATOM     20  N   UNL     1      -0.931  11.525  20.498  0.00  0.00    +0.000 N 
ATOM     21  C   UNL     1      -0.112  10.823  21.505  0.00  0.00    +0.000 C 
ATOM     22  C   UNL     1       0.298   9.429  20.958  0.00  0.00    +0.000 C 
ATOM     23  N   UNL     1       0.918   9.454  19.607  0.00  0.00    +0.000 N 
ATOM     24  C   UNL     1       1.724   8.370  19.239  0.00  0.00    +0.000 C 
ATOM     25  O   UNL     1       2.031   7.513  20.081  0.00  0.00    +0.000 OA
ATOM     26  C   UNL     1       0.203  10.304  18.644  0.00  0.00    +0.000 C 
ATOM     27  C   UNL     1      -0.198  11.689  19.222  0.00  0.00    +0.000 C 
BRANCH  20  33
ATOM     28  C   UNL     1      -3.118  12.625  20.161  0.00  0.00    +0.000 A 
ATOM     29  C   UNL     1      -4.100  13.552  20.574  0.00  0.00    +0.000 A 
ATOM     30  C   UNL     1      -3.885  14.359  21.691  0.00  0.00    +0.000 A 
ATOM     31  C   UNL     1      -2.702  14.233  22.400  0.00  0.00    +0.000 A 
ATOM     32  C   UNL     1      -1.718  13.310  21.985  0.00  0.00    +0.000 A 
ATOM     33  C   UNL     1      -1.883  12.486  20.863  0.00  0.00    +0.000 A 
BRANCH  28  35
ATOM     34  C   UNL     1      -4.630  11.739  18.549  0.00  0.00    +0.000 C 
ATOM     35  O   UNL     1      -3.309  11.799  19.071  0.00  0.00    +0.000 OA
ENDBRANCH  28  35
ENDBRANCH  20  33
ENDBRANCH  19  24
ENDBRANCH   1  19
TORSDOF 6
ENDMDL
MODEL 7
REMARK VINA RESULT:      -8.1      2.429      4.090
REMARK  Name = 
REMARK  7 active torsions:
REMARK  status: ('A' for Active; 'I' for Inactive)
REMARK    1  A    between atoms: C_1  and  O_2
REMARK    2  A    between atoms: O_2  and  C_3
REMARK    3  A    between atoms: C_8  and  N_9
REMARK    4  A    between atoms: C_13  and  C_15
REMARK    5  A    between atoms: C_15  and  C_16
REMARK    6  A    between atoms: C_16  and  C_17
REMARK    7  A    between atoms: C_18  and  C_19
REMARK                            x       y       z     vdW  Elec       q    Type
REMARK                         _______ _______ _______ _____ _____    ______ ____
ROOT
ATOM      1  C   UNL     1       2.069   7.880  18.961  0.00  0.00    +0.000 C 
ENDROOT
BRANCH   1   2
ATOM      2  C   UNL     1       1.893   6.359  19.077  0.00  0.00    +0.000 A 
ATOM      3  C   UNL     1       2.438   5.595  18.006  0.00  0.00    +0.000 A 
ATOM      4  N   UNL     1       1.371   4.693  17.892  0.00  0.00    +0.000 N 
ATOM      5  C   UNL     1       1.242   4.184  19.174  0.00  0.00    +0.000 A 
ATOM      6  C   UNL     1       0.882   2.898  19.582  0.00  0.00    +0.000 A 
ATOM      7  C   UNL     1       1.382   2.513  20.821  0.00  0.00    +0.000 A 
ATOM      8  C   UNL     1       2.088   3.426  21.614  0.00  0.00    +0.000 A 
ATOM      9  C   UNL     1       2.216   4.799  21.262  0.00  0.00    +0.000 A 
ATOM     10  C   UNL     1       1.770   5.217  19.987  0.00  0.00    +0.000 A 
ATOM     11  H   UNL     1       0.559   4.841  17.308  0.00  0.00    +0.000 HD
BRANCH   3  12
ATOM     12  C   UNL     1       3.888   5.148  18.103  0.00  0.00    +0.000 A 
ATOM     13  C   UNL     1       4.752   5.548  19.123  0.00  0.00    +0.000 A 
ATOM     14  C   UNL     1       6.133   5.300  19.016  0.00  0.00    +0.000 A 
ATOM     15  C   UNL     1       6.656   4.659  17.889  0.00  0.00    +0.000 A 
ATOM     16 CL   UNL     1       8.348   4.382  17.744  0.00  0.00    +0.000 Cl
ATOM     17  C   UNL     1       5.820   4.260  16.861  0.00  0.00    +0.000 A 
ATOM     18  C   UNL     1       4.455   4.496  16.980  0.00  0.00    +0.000 A 
ENDBRANCH   3  12
ENDBRANCH   1   2
BRANCH   1  19
ATOM     19  C   UNL     1       1.915   8.795  17.729  0.00  0.00    +0.000 C 
BRANCH  19  24
ATOM     20  N   UNL     1      -1.847  11.936  19.851  0.00  0.00    +0.000 N 
ATOM     21  C   UNL     1      -0.869  12.841  19.216  0.00  0.00    +0.000 C 
ATOM     22  C   UNL     1       0.532  12.172  19.217  0.00  0.00    +0.000 C 
ATOM     23  N   UNL     1       0.559  10.794  18.663  0.00  0.00    +0.000 N 
ATOM     24  C   UNL     1       1.783  10.302  18.194  0.00  0.00    +0.000 C 
ATOM     25  O   UNL     1       2.759  11.061  18.100  0.00  0.00    +0.000 OA
ATOM     26  C   UNL     1      -0.529   9.937  19.157  0.00  0.00    +0.000 C 
ATOM     27  C   UNL     1      -1.917  10.635  19.147  0.00  0.00    +0.000 C 
BRANCH  20  33
ATOM     28  C   UNL     1      -3.015  12.679  21.897  0.00  0.00    +0.000 A 
ATOM     29  C   UNL     1      -4.152  13.231  22.527  0.00  0.00    +0.000 A 
ATOM     30  C   UNL     1      -5.289  13.546  21.784  0.00  0.00    +0.000 A 
ATOM     31  C   UNL     1      -5.288  13.324  20.418  0.00  0.00    +0.000 A 
ATOM     32  C   UNL     1      -4.153  12.767  19.787  0.00  0.00    +0.000 A 
ATOM     33  C   UNL     1      -2.992  12.423  20.493  0.00  0.00    +0.000 A 
BRANCH  28  35
ATOM     34  C   UNL     1      -1.107  13.478  23.076  0.00  0.00    +0.000 C 
ATOM     35  O   UNL     1      -1.868  12.374  22.602  0.00  0.00    +0.000 OA
ENDBRANCH  28  35
ENDBRANCH  20  33
ENDBRANCH  19  24
ENDBRANCH   1  19
TORSDOF 6
ENDMDL
MODEL 8
REMARK VINA RESULT:      -8.1      2.341      3.724
REMARK  Name = 
REMARK  7 active torsions:
REMARK  status: ('A' for Active; 'I' for Inactive)
REMARK    1  A    between atoms: C_1  and  O_2
REMARK    2  A    between atoms: O_2  and  C_3
REMARK    3  A    between atoms: C_8  and  N_9
REMARK    4  A    between atoms: C_13  and  C_15
REMARK    5  A    between atoms: C_15  and  C_16
REMARK    6  A    between atoms: C_16  and  C_17
REMARK    7  A    between atoms: C_18  and  C_19
REMARK                            x       y       z     vdW  Elec       q    Type
REMARK                         _______ _______ _______ _____ _____    ______ ____
ROOT
ATOM      1  C   UNL     1       1.444   6.024  20.425  0.00  0.00    +0.000 C 
ENDROOT
BRANCH   1   2
ATOM      2  C   UNL     1       1.951   4.868  19.550  0.00  0.00    +0.000 A 
ATOM      3  C   UNL     1       2.378   5.231  18.241  0.00  0.00    +0.000 A 
ATOM      4  N   UNL     1       1.798   4.143  17.574  0.00  0.00    +0.000 N 
ATOM      5  C   UNL     1       2.311   3.044  18.242  0.00  0.00    +0.000 A 
ATOM      6  C   UNL     1       2.660   1.788  17.741  0.00  0.00    +0.000 A 
ATOM      7  C   UNL     1       3.646   1.122  18.459  0.00  0.00    +0.000 A 
ATOM      8  C   UNL     1       4.136   1.660  19.655  0.00  0.00    +0.000 A 
ATOM      9  C   UNL     1       3.572   2.821  20.254  0.00  0.00    +0.000 A 
ATOM     10  C   UNL     1       2.607   3.558  19.529  0.00  0.00    +0.000 A 
ATOM     11  H   UNL     1       0.854   4.135  17.211  0.00  0.00    +0.000 HD
BRANCH   3  12
ATOM     12  C   UNL     1       3.829   5.640  18.042  0.00  0.00    +0.000 A 
ATOM     13  C   UNL     1       4.849   5.324  18.941  0.00  0.00    +0.000 A 
ATOM     14  C   UNL     1       6.108   5.941  18.823  0.00  0.00    +0.000 A 
ATOM     15  C   UNL     1       6.352   6.876  17.812  0.00  0.00    +0.000 A 
ATOM     16 CL   UNL     1       7.883   7.651  17.685  0.00  0.00    +0.000 Cl
ATOM     17  C   UNL     1       5.354   7.209  16.914  0.00  0.00    +0.000 A 
ATOM     18  C   UNL     1       4.116   6.587  17.029  0.00  0.00    +0.000 A 
ENDBRANCH   3  12
ENDBRANCH   1   2
BRANCH   1  19
ATOM     19  C   UNL     1       2.172   7.308  20.872  0.00  0.00    +0.000 C 
BRANCH  19  24
ATOM     20  N   UNL     1      -0.958  11.392  22.302  0.00  0.00    +0.000 N 
ATOM     21  C   UNL     1      -1.113  11.251  20.841  0.00  0.00    +0.000 C 
ATOM     22  C   UNL     1       0.188  10.654  20.239  0.00  0.00    +0.000 C 
ATOM     23  N   UNL     1       0.665   9.413  20.904  0.00  0.00    +0.000 N 
ATOM     24  C   UNL     1       1.511   8.567  20.178  0.00  0.00    +0.000 C 
ATOM     25  O   UNL     1       1.710   8.777  18.972  0.00  0.00    +0.000 OA
ATOM     26  C   UNL     1       0.646   9.485  22.372  0.00  0.00    +0.000 C 
ATOM     27  C   UNL     1      -0.665  10.090  22.944  0.00  0.00    +0.000 C 
BRANCH  20  33
ATOM     28  C   UNL     1      -1.114  13.659  23.273  0.00  0.00    +0.000 A 
ATOM     29  C   UNL     1      -1.855  14.655  23.947  0.00  0.00    +0.000 A 
ATOM     30  C   UNL     1      -3.151  14.394  24.389  0.00  0.00    +0.000 A 
ATOM     31  C   UNL     1      -3.711  13.152  24.149  0.00  0.00    +0.000 A 
ATOM     32  C   UNL     1      -2.971  12.153  23.479  0.00  0.00    +0.000 A 
ATOM     33  C   UNL     1      -1.661  12.363  23.026  0.00  0.00    +0.000 A 
BRANCH  28  35
ATOM     34  C   UNL     1       0.304  14.925  21.838  0.00  0.00    +0.000 C 
ATOM     35  O   UNL     1       0.164  13.892  22.806  0.00  0.00    +0.000 OA
ENDBRANCH  28  35
ENDBRANCH  20  33
ENDBRANCH  19  24
ENDBRANCH   1  19
TORSDOF 6
ENDMDL
MODEL 9
REMARK VINA RESULT:      -8.1      2.675      4.484
REMARK  Name = 
REMARK  7 active torsions:
REMARK  status: ('A' for Active; 'I' for Inactive)
REMARK    1  A    between atoms: C_1  and  O_2
REMARK    2  A    between atoms: O_2  and  C_3
REMARK    3  A    between atoms: C_8  and  N_9
REMARK    4  A    between atoms: C_13  and  C_15
REMARK    5  A    between atoms: C_15  and  C_16
REMARK    6  A    between atoms: C_16  and  C_17
REMARK    7  A    between atoms: C_18  and  C_19
REMARK                            x       y       z     vdW  Elec       q    Type
REMARK                         _______ _______ _______ _____ _____    ______ ____
ROOT
ATOM      1  C   UNL     1       2.149   7.809  19.512  0.00  0.00    +0.000 C 
ENDROOT
BRANCH   1   2
ATOM      2  C   UNL     1       1.946   6.290  19.409  0.00  0.00    +0.000 A 
ATOM      3  C   UNL     1       2.480   5.677  18.240  0.00  0.00    +0.000 A 
ATOM      4  N   UNL     1       1.398   4.819  17.999  0.00  0.00    +0.000 N 
ATOM      5  C   UNL     1       1.257   4.135  19.195  0.00  0.00    +0.000 A 
ATOM      6  C   UNL     1       0.874   2.810  19.416  0.00  0.00    +0.000 A 
ATOM      7  C   UNL     1       1.364   2.245  20.587  0.00  0.00    +0.000 A 
ATOM      8  C   UNL     1       2.084   3.022  21.501  0.00  0.00    +0.000 A 
ATOM      9  C   UNL     1       2.237   4.429  21.350  0.00  0.00    +0.000 A 
ATOM     10  C   UNL     1       1.801   5.032  20.146  0.00  0.00    +0.000 A 
ATOM     11  H   UNL     1       0.589   5.064  17.443  0.00  0.00    +0.000 HD
BRANCH   3  12
ATOM     12  C   UNL     1       3.922   5.195  18.271  0.00  0.00    +0.000 A 
ATOM     13  C   UNL     1       4.823   5.527  19.283  0.00  0.00    +0.000 A 
ATOM     14  C   UNL     1       6.195   5.255  19.123  0.00  0.00    +0.000 A 
ATOM     15  C   UNL     1       6.670   4.659  17.951  0.00  0.00    +0.000 A 
ATOM     16 CL   UNL     1       8.351   4.354  17.742  0.00  0.00    +0.000 Cl
ATOM     17  C   UNL     1       5.796   4.328  16.931  0.00  0.00    +0.000 A 
ATOM     18  C   UNL     1       4.441   4.587  17.102  0.00  0.00    +0.000 A 
ENDBRANCH   3  12
ENDBRANCH   1   2
BRANCH   1  19
ATOM     19  C   UNL     1       1.101   8.941  19.505  0.00  0.00    +0.000 C 
BRANCH  19  24
ATOM     20  N   UNL     1      -2.029  12.476  22.000  0.00  0.00    +0.000 N 
ATOM     21  C   UNL     1      -1.162  11.891  23.042  0.00  0.00    +0.000 C 
ATOM     22  C   UNL     1      -0.765  10.446  22.633  0.00  0.00    +0.000 C 
ATOM     23  N   UNL     1      -0.203  10.325  21.262  0.00  0.00    +0.000 N 
ATOM     24  C   UNL     1       0.594   9.209  20.980  0.00  0.00    +0.000 C 
ATOM     25  O   UNL     1       0.943   8.451  21.896  0.00  0.00    +0.000 OA
ATOM     26  C   UNL     1      -0.966  11.062  20.244  0.00  0.00    +0.000 C 
ATOM     27  C   UNL     1      -1.352  12.501  20.684  0.00  0.00    +0.000 C 
BRANCH  20  33
ATOM     28  C   UNL     1      -4.320  13.387  21.839  0.00  0.00    +0.000 A 
ATOM     29  C   UNL     1      -5.281  14.358  22.198  0.00  0.00    +0.000 A 
ATOM     30  C   UNL     1      -4.932  15.428  23.020  0.00  0.00    +0.000 A 
ATOM     31  C   UNL     1      -3.634  15.522  23.494  0.00  0.00    +0.000 A 
ATOM     32  C   UNL     1      -2.671  14.555  23.132  0.00  0.00    +0.000 A 
ATOM     33  C   UNL     1      -2.971  13.468  22.299  0.00  0.00    +0.000 A 
BRANCH  28  35
ATOM     34  C   UNL     1      -6.011  12.161  20.695  0.00  0.00    +0.000 C 
ATOM     35  O   UNL     1      -4.640  12.306  21.042  0.00  0.00    +0.000 OA
ENDBRANCH  28  35
ENDBRANCH  20  33
ENDBRANCH  19  24
ENDBRANCH   1  19
TORSDOF 6
ENDMDL
