MODEL 1
REMARK VINA RESULT:      -6.3      0.000      0.000
REMARK  Name = 
REMARK  3 active torsions:
REMARK  status: ('A' for Active; 'I' for Inactive)
REMARK    1  A    between atoms: C_1  and  S_2
REMARK    2  A    between atoms: S_2  and  C_5
REMARK    3  A    between atoms: C_10  and  N_11
REMARK                            x       y       z     vdW  Elec       q    Type
REMARK                         _______ _______ _______ _____ _____    ______ ____
ROOT
ATOM      1  C   UNL     1       5.699   5.477  17.836  0.00  0.00    +0.000 C 
ATOM      2  C   UNL     1       4.444   6.118  17.209  0.00  0.00    +0.000 C 
ATOM      3  C   UNL     1       3.377   5.013  17.347  0.00  0.00    +0.000 C 
ATOM      4  C   UNL     1       4.194   3.747  17.118  0.00  0.00    +0.000 C 
ATOM      5  C   UNL     1       5.194   4.075  18.233  0.00  0.00    +0.000 C 
ATOM      6  C   UNL     1       4.254   4.240  19.459  0.00  0.00    +0.000 C 
ATOM      7  C   UNL     1       2.989   4.861  18.828  0.00  0.00    +0.000 C 
ENDROOT
BRANCH   1   9
ATOM      8  C   UNL     1       6.374   5.095  15.118  0.00  0.00    +0.000 C 
ATOM      9  S   UNL     1       7.090   5.476  16.696  0.00  0.00    +0.000 S 
ATOM     10  O   UNL     1       7.938   4.354  17.056  0.00  0.00    +0.000 OA
ATOM     11  O   UNL     1       7.646   6.811  16.603  0.00  0.00    +0.000 OA
ENDBRANCH   1   9
BRANCH   6  12
ATOM     12  N   UNL     1       3.960   2.906  20.006  0.00  0.00    +0.000 NA
ATOM     13  C   UNL     1       2.982   2.823  20.652  0.00  0.00    +0.000 C 
ATOM     14  S   UNL     1       1.666   2.694  21.534  0.00  0.00    +0.000 S 
ENDBRANCH   6  12
TORSDOF 2
ENDMDL
MODEL 2
REMARK VINA RESULT:      -6.2      2.691      3.404
REMARK  Name = 
REMARK  3 active torsions:
REMARK  status: ('A' for Active; 'I' for Inactive)
REMARK    1  A    between atoms: C_1  and  S_2
REMARK    2  A    between atoms: S_2  and  C_5
REMARK    3  A    between atoms: C_10  and  N_11
REMARK                            x       y       z     vdW  Elec       q    Type
REMARK                         _______ _______ _______ _____ _____    ______ ____
ROOT
ATOM      1  C   UNL     1       5.275   5.345  16.864  0.00  0.00    +0.000 C 
ATOM      2  C   UNL     1       4.825   3.883  17.060  0.00  0.00    +0.000 C 
ATOM      3  C   UNL     1       3.980   3.944  18.348  0.00  0.00    +0.000 C 
ATOM      4  C   UNL     1       4.728   4.983  19.176  0.00  0.00    +0.000 C 
ATOM      5  C   UNL     1       4.646   6.053  18.081  0.00  0.00    +0.000 C 
ATOM      6  C   UNL     1       3.113   6.139  17.839  0.00  0.00    +0.000 C 
ATOM      7  C   UNL     1       2.660   4.679  18.058  0.00  0.00    +0.000 C 
ENDROOT
BRANCH   1   9
ATOM      8  C   UNL     1       7.439   7.026  17.560  0.00  0.00    +0.000 C 
ATOM      9  S   UNL     1       7.065   5.487  16.759  0.00  0.00    +0.000 S 
ATOM     10  O   UNL     1       7.400   5.652  15.356  0.00  0.00    +0.000 OA
ATOM     11  O   UNL     1       7.685   4.436  17.540  0.00  0.00    +0.000 OA
ENDBRANCH   1   9
BRANCH   6  12
ATOM     12  N   UNL     1       2.528   7.022  18.859  0.00  0.00    +0.000 NA
ATOM     13  C   UNL     1       2.203   8.088  18.485  0.00  0.00    +0.000 C 
ATOM     14  S   UNL     1       1.762   9.536  17.998  0.00  0.00    +0.000 S 
ENDBRANCH   6  12
TORSDOF 2
ENDMDL
MODEL 3
REMARK VINA RESULT:      -6.2      0.957      1.518
REMARK  Name = 
REMARK  3 active torsions:
REMARK  status: ('A' for Active; 'I' for Inactive)
REMARK    1  A    between atoms: C_1  and  S_2
REMARK    2  A    between atoms: S_2  and  C_5
REMARK    3  A    between atoms: C_10  and  N_11
REMARK                            x       y       z     vdW  Elec       q    Type
REMARK                         _______ _______ _______ _____ _____    ______ ____
ROOT
ATOM      1  C   UNL     1       5.692   5.568  18.298  0.00  0.00    +0.000 C 
ATOM      2  C   UNL     1       4.639   6.134  17.324  0.00  0.00    +0.000 C 
ATOM      3  C   UNL     1       3.658   4.958  17.143  0.00  0.00    +0.000 C 
ATOM      4  C   UNL     1       4.589   3.753  17.174  0.00  0.00    +0.000 C 
ATOM      5  C   UNL     1       5.189   4.130  18.534  0.00  0.00    +0.000 C 
ATOM      6  C   UNL     1       3.918   4.213  19.425  0.00  0.00    +0.000 C 
ATOM      7  C   UNL     1       2.858   4.758  18.443  0.00  0.00    +0.000 C 
ENDROOT
BRANCH   1   9
ATOM      8  C   UNL     1       8.113   7.010  18.519  0.00  0.00    +0.000 C 
ATOM      9  S   UNL     1       7.356   5.677  17.624  0.00  0.00    +0.000 S 
ATOM     10  O   UNL     1       7.231   6.114  16.245  0.00  0.00    +0.000 OA
ATOM     11  O   UNL     1       8.094   4.472  17.945  0.00  0.00    +0.000 OA
ENDBRANCH   1   9
BRANCH   6  12
ATOM     12  N   UNL     1       3.567   2.854  19.866  0.00  0.00    +0.000 NA
ATOM     13  C   UNL     1       2.667   2.778  20.618  0.00  0.00    +0.000 C 
ATOM     14  S   UNL     1       1.456   2.657  21.641  0.00  0.00    +0.000 S 
ENDBRANCH   6  12
TORSDOF 2
ENDMDL
MODEL 4
REMARK VINA RESULT:      -6.2      0.970      1.172
REMARK  Name = 
REMARK  3 active torsions:
REMARK  status: ('A' for Active; 'I' for Inactive)
REMARK    1  A    between atoms: C_1  and  S_2
REMARK    2  A    between atoms: S_2  and  C_5
REMARK    3  A    between atoms: C_10  and  N_11
REMARK                            x       y       z     vdW  Elec       q    Type
REMARK                         _______ _______ _______ _____ _____    ______ ____
ROOT
ATOM      1  C   UNL     1       5.262   5.803  17.761  0.00  0.00    +0.000 C 
ATOM      2  C   UNL     1       4.004   6.691  17.683  0.00  0.00    +0.000 C 
ATOM      3  C   UNL     1       2.855   5.699  17.950  0.00  0.00    +0.000 C 
ATOM      4  C   UNL     1       3.351   4.436  17.256  0.00  0.00    +0.000 C 
ATOM      5  C   UNL     1       4.669   4.408  18.040  0.00  0.00    +0.000 C 
ATOM      6  C   UNL     1       4.159   4.396  19.509  0.00  0.00    +0.000 C 
ATOM      7  C   UNL     1       2.886   5.266  19.427  0.00  0.00    +0.000 C 
ENDROOT
BRANCH   1   9
ATOM      8  C   UNL     1       6.647   4.224  15.869  0.00  0.00    +0.000 C 
ATOM      9  S   UNL     1       6.250   5.909  16.261  0.00  0.00    +0.000 S 
ATOM     10  O   UNL     1       7.497   6.563  16.615  0.00  0.00    +0.000 OA
ATOM     11  O   UNL     1       5.438   6.422  15.176  0.00  0.00    +0.000 OA
ENDBRANCH   1   9
BRANCH   6  12
ATOM     12  N   UNL     1       3.818   3.012  19.873  0.00  0.00    +0.000 NA
ATOM     13  C   UNL     1       2.904   2.886  20.601  0.00  0.00    +0.000 C 
ATOM     14  S   UNL     1       1.673   2.698  21.589  0.00  0.00    +0.000 S 
ENDBRANCH   6  12
TORSDOF 2
ENDMDL
MODEL 5
REMARK VINA RESULT:      -6.2      1.548      1.849
REMARK  Name = 
REMARK  3 active torsions:
REMARK  status: ('A' for Active; 'I' for Inactive)
REMARK    1  A    between atoms: C_1  and  S_2
REMARK    2  A    between atoms: S_2  and  C_5
REMARK    3  A    between atoms: C_10  and  N_11
REMARK                            x       y       z     vdW  Elec       q    Type
REMARK                         _______ _______ _______ _____ _____    ______ ____
ROOT
ATOM      1  C   UNL     1       5.618   5.558  18.878  0.00  0.00    +0.000 C 
ATOM      2  C   UNL     1       5.152   6.268  17.590  0.00  0.00    +0.000 C 
ATOM      3  C   UNL     1       4.223   5.229  16.931  0.00  0.00    +0.000 C 
ATOM      4  C   UNL     1       4.916   3.915  17.271  0.00  0.00    +0.000 C 
ATOM      5  C   UNL     1       4.911   4.191  18.779  0.00  0.00    +0.000 C 
ATOM      6  C   UNL     1       3.398   4.420  19.051  0.00  0.00    +0.000 C 
ATOM      7  C   UNL     1       2.927   5.110  17.753  0.00  0.00    +0.000 C 
ENDROOT
BRANCH   1   9
ATOM      8  C   UNL     1       7.975   7.022  18.336  0.00  0.00    +0.000 C 
ATOM      9  S   UNL     1       7.412   5.467  18.980  0.00  0.00    +0.000 S 
ATOM     10  O   UNL     1       7.843   4.444  18.045  0.00  0.00    +0.000 OA
ATOM     11  O   UNL     1       7.819   5.406  20.370  0.00  0.00    +0.000 OA
ENDBRANCH   1   9
BRANCH   6  12
ATOM     12  N   UNL     1       2.748   3.110  19.208  0.00  0.00    +0.000 NA
ATOM     13  C   UNL     1       2.248   2.910  20.252  0.00  0.00    +0.000 C 
ATOM     14  S   UNL     1       1.571   2.620  21.661  0.00  0.00    +0.000 S 
ENDBRANCH   6  12
TORSDOF 2
ENDMDL
MODEL 6
REMARK VINA RESULT:      -6.2      2.325      2.800
REMARK  Name = 
REMARK  3 active torsions:
REMARK  status: ('A' for Active; 'I' for Inactive)
REMARK    1  A    between atoms: C_1  and  S_2
REMARK    2  A    between atoms: S_2  and  C_5
REMARK    3  A    between atoms: C_10  and  N_11
REMARK                            x       y       z     vdW  Elec       q    Type
REMARK                         _______ _______ _______ _____ _____    ______ ____
ROOT
ATOM      1  C   UNL     1       5.542   5.584  18.179  0.00  0.00    +0.000 C 
ATOM      2  C   UNL     1       5.184   4.509  17.132  0.00  0.00    +0.000 C 
ATOM      3  C   UNL     1       4.021   3.745  17.795  0.00  0.00    +0.000 C 
ATOM      4  C   UNL     1       4.425   3.753  19.264  0.00  0.00    +0.000 C 
ATOM      5  C   UNL     1       4.550   5.281  19.320  0.00  0.00    +0.000 C 
ATOM      6  C   UNL     1       3.138   5.728  18.850  0.00  0.00    +0.000 C 
ATOM      7  C   UNL     1       2.769   4.640  17.818  0.00  0.00    +0.000 C 
ENDROOT
BRANCH   1   9
ATOM      8  C   UNL     1       7.940   7.080  18.179  0.00  0.00    +0.000 C 
ATOM      9  S   UNL     1       7.275   5.504  18.654  0.00  0.00    +0.000 S 
ATOM     10  O   UNL     1       7.906   4.509  17.806  0.00  0.00    +0.000 OA
ATOM     11  O   UNL     1       7.383   5.411  20.096  0.00  0.00    +0.000 OA
ENDBRANCH   1   9
BRANCH   6  12
ATOM     12  N   UNL     1       2.225   5.681  20.003  0.00  0.00    +0.000 NA
ATOM     13  C   UNL     1       1.851   6.721  20.402  0.00  0.00    +0.000 C 
ATOM     14  S   UNL     1       1.341   8.120  20.958  0.00  0.00    +0.000 S 
ENDBRANCH   6  12
TORSDOF 2
ENDMDL
MODEL 7
REMARK VINA RESULT:      -6.2      1.354      2.125
REMARK  Name = 
REMARK  3 active torsions:
REMARK  status: ('A' for Active; 'I' for Inactive)
REMARK    1  A    between atoms: C_1  and  S_2
REMARK    2  A    between atoms: S_2  and  C_5
REMARK    3  A    between atoms: C_10  and  N_11
REMARK                            x       y       z     vdW  Elec       q    Type
REMARK                         _______ _______ _______ _____ _____    ______ ____
ROOT
ATOM      1  C   UNL     1       5.530   5.642  17.299  0.00  0.00    +0.000 C 
ATOM      2  C   UNL     1       5.005   4.508  16.393  0.00  0.00    +0.000 C 
ATOM      3  C   UNL     1       4.112   3.684  17.341  0.00  0.00    +0.000 C 
ATOM      4  C   UNL     1       4.871   3.773  18.659  0.00  0.00    +0.000 C 
ATOM      5  C   UNL     1       4.884   5.307  18.658  0.00  0.00    +0.000 C 
ATOM      6  C   UNL     1       3.368   5.634  18.556  0.00  0.00    +0.000 C 
ATOM      7  C   UNL     1       2.839   4.486  17.668  0.00  0.00    +0.000 C 
ENDROOT
BRANCH   1   9
ATOM      8  C   UNL     1       7.745   5.954  19.027  0.00  0.00    +0.000 C 
ATOM      9  S   UNL     1       7.327   5.705  17.319  0.00  0.00    +0.000 S 
ATOM     10  O   UNL     1       7.721   6.909  16.610  0.00  0.00    +0.000 OA
ATOM     11  O   UNL     1       7.866   4.418  16.930  0.00  0.00    +0.000 OA
ENDBRANCH   1   9
BRANCH   6  12
ATOM     12  N   UNL     1       2.782   5.559  19.903  0.00  0.00    +0.000 NA
ATOM     13  C   UNL     1       1.982   4.714  20.066  0.00  0.00    +0.000 C 
ATOM     14  S   UNL     1       0.893   3.581  20.302  0.00  0.00    +0.000 S 
ENDBRANCH   6  12
TORSDOF 2
ENDMDL
MODEL 8
REMARK VINA RESULT:      -6.1      1.594      2.046
REMARK  Name = 
REMARK  3 active torsions:
REMARK  status: ('A' for Active; 'I' for Inactive)
REMARK    1  A    between atoms: C_1  and  S_2
REMARK    2  A    between atoms: S_2  and  C_5
REMARK    3  A    between atoms: C_10  and  N_11
REMARK                            x       y       z     vdW  Elec       q    Type
REMARK                         _______ _______ _______ _____ _____    ______ ____
ROOT
ATOM      1  C   UNL     1       5.626   4.303  16.696  0.00  0.00    +0.000 C 
ATOM      2  C   UNL     1       6.502   4.580  17.935  0.00  0.00    +0.000 C 
ATOM      3  C   UNL     1       5.488   5.099  18.974  0.00  0.00    +0.000 C 
ATOM      4  C   UNL     1       4.523   5.902  18.111  0.00  0.00    +0.000 C 
ATOM      5  C   UNL     1       4.223   4.721  17.180  0.00  0.00    +0.000 C 
ATOM      6  C   UNL     1       3.729   3.645  18.187  0.00  0.00    +0.000 C 
ATOM      7  C   UNL     1       4.590   3.937  19.435  0.00  0.00    +0.000 C 
ENDROOT
BRANCH   1   9
ATOM      8  C   UNL     1       6.074   4.024  13.919  0.00  0.00    +0.000 C 
ATOM      9  S   UNL     1       6.213   5.193  15.247  0.00  0.00    +0.000 S 
ATOM     10  O   UNL     1       7.631   5.440  15.442  0.00  0.00    +0.000 OA
ATOM     11  O   UNL     1       5.314   6.290  14.950  0.00  0.00    +0.000 OA
ENDBRANCH   1   9
BRANCH   6  12
ATOM     12  N   UNL     1       2.306   3.887  18.470  0.00  0.00    +0.000 NA
ATOM     13  C   UNL     1       1.916   3.489  19.504  0.00  0.00    +0.000 C 
ATOM     14  S   UNL     1       1.370   2.952  20.897  0.00  0.00    +0.000 S 
ENDBRANCH   6  12
TORSDOF 2
ENDMDL
MODEL 9
REMARK VINA RESULT:      -6.1      2.032      2.737
REMARK  Name = 
REMARK  3 active torsions:
REMARK  status: ('A' for Active; 'I' for Inactive)
REMARK    1  A    between atoms: C_1  and  S_2
REMARK    2  A    between atoms: S_2  and  C_5
REMARK    3  A    between atoms: C_10  and  N_11
REMARK                            x       y       z     vdW  Elec       q    Type
REMARK                         _______ _______ _______ _____ _____    ______ ____
ROOT
ATOM      1  C   UNL     1       5.470   5.430  17.161  0.00  0.00    +0.000 C 
ATOM      2  C   UNL     1       5.062   4.143  16.416  0.00  0.00    +0.000 C 
ATOM      3  C   UNL     1       4.159   3.417  17.433  0.00  0.00    +0.000 C 
ATOM      4  C   UNL     1       4.832   3.752  18.758  0.00  0.00    +0.000 C 
ATOM      5  C   UNL     1       4.763   5.265  18.521  0.00  0.00    +0.000 C 
ATOM      6  C   UNL     1       3.240   5.478  18.292  0.00  0.00    +0.000 C 
ATOM      7  C   UNL     1       2.828   4.179  17.567  0.00  0.00    +0.000 C 
ENDROOT
BRANCH   1   9
ATOM      8  C   UNL     1       7.571   5.977  18.971  0.00  0.00    +0.000 C 
ATOM      9  S   UNL     1       7.257   5.608  17.264  0.00  0.00    +0.000 S 
ATOM     10  O   UNL     1       7.613   6.793  16.505  0.00  0.00    +0.000 OA
ATOM     11  O   UNL     1       7.891   4.338  16.976  0.00  0.00    +0.000 OA
ENDBRANCH   1   9
BRANCH   6  12
ATOM     12  N   UNL     1       2.579   5.571  19.603  0.00  0.00    +0.000 NA
ATOM     13  C   UNL     1       2.198   6.641  19.908  0.00  0.00    +0.000 C 
ATOM     14  S   UNL     1       1.682   8.081  20.339  0.00  0.00    +0.000 S 
ENDBRANCH   6  12
TORSDOF 2
ENDMDL
