MODEL 1
REMARK VINA RESULT:      -7.8      0.000      0.000
REMARK  Name = 
REMARK  5 active torsions:
REMARK  status: ('A' for Active; 'I' for Inactive)
REMARK    1  A    between atoms: C_1  and  N_2
REMARK    2  A    between atoms: N_2  and  C_3
REMARK    3  A    between atoms: N_2  and  S_9
REMARK    4  A    between atoms: S_9  and  C_12
REMARK    5  A    between atoms: C_17  and  O_18
REMARK                            x       y       z     vdW  Elec       q    Type
REMARK                         _______ _______ _______ _____ _____    ______ ____
ROOT
ATOM      1  S   UNL     1       3.444   2.577  19.211  0.00  0.00    +0.000 S 
ATOM      2  O   UNL     1       3.740   2.649  20.628  0.00  0.00    +0.000 OA
ATOM      3  O   UNL     1       3.343   1.293  18.547  0.00  0.00    +0.000 OA
ENDROOT
BRANCH   1   4
ATOM      4  C   UNL     1       4.740   3.490  18.372  0.00  0.00    +0.000 A 
ATOM      5  C   UNL     1       5.458   4.461  19.092  0.00  0.00    +0.000 A 
ATOM      6  C   UNL     1       6.396   5.288  18.453  0.00  0.00    +0.000 A 
ATOM      7  C   UNL     1       6.591   5.130  17.074  0.00  0.00    +0.000 A 
ATOM      8  N   UNL     1       7.419   5.788  16.203  0.00  0.00    +0.000 NA
ATOM      9  C   UNL     1       7.133   5.211  15.063  0.00  0.00    +0.000 A 
ATOM     10  O   UNL     1       6.199   4.229  15.077  0.00  0.00    +0.000 OA
ATOM     11  C   UNL     1       5.842   4.171  16.398  0.00  0.00    +0.000 A 
ATOM     12  C   UNL     1       4.899   3.333  16.984  0.00  0.00    +0.000 A 
BRANCH   9  13
ATOM     13  O   UNL     1       7.684   5.506  13.910  0.00  0.00    +0.000 OA
ATOM     14  H   UNL     1       7.361   4.780  13.351  0.00  0.00    +0.000 HD
ENDBRANCH   9  13
ENDBRANCH   1   4
BRANCH   1  16
ATOM     15  C   UNL     1       0.749   2.768  18.884  0.00  0.00    +0.000 C 
ATOM     16  N   UNL     1       2.036   3.469  18.924  0.00  0.00    +0.000 N 
BRANCH  16  17
ATOM     17  C   UNL     1       2.046   4.885  19.106  0.00  0.00    +0.000 A 
ATOM     18  C   UNL     1       1.828   5.390  20.389  0.00  0.00    +0.000 A 
ATOM     19  C   UNL     1       1.860   6.766  20.618  0.00  0.00    +0.000 A 
ATOM     20  C   UNL     1       2.108   7.640  19.561  0.00  0.00    +0.000 A 
ATOM     21  C   UNL     1       2.331   7.137  18.279  0.00  0.00    +0.000 A 
ATOM     22  C   UNL     1       2.302   5.758  18.048  0.00  0.00    +0.000 A 
ENDBRANCH  16  17
ENDBRANCH   1  16
TORSDOF 4
ENDMDL
MODEL 2
REMARK VINA RESULT:      -7.7      0.168      1.067
REMARK  Name = 
REMARK  5 active torsions:
REMARK  status: ('A' for Active; 'I' for Inactive)
REMARK    1  A    between atoms: C_1  and  N_2
REMARK    2  A    between atoms: N_2  and  C_3
REMARK    3  A    between atoms: N_2  and  S_9
REMARK    4  A    between atoms: S_9  and  C_12
REMARK    5  A    between atoms: C_17  and  O_18
REMARK                            x       y       z     vdW  Elec       q    Type
REMARK                         _______ _______ _______ _____ _____    ______ ____
ROOT
ATOM      1  S   UNL     1       3.465   2.625  19.193  0.00  0.00    +0.000 S 
ATOM      2  O   UNL     1       3.820   2.723  20.594  0.00  0.00    +0.000 OA
ATOM      3  O   UNL     1       3.305   1.329  18.565  0.00  0.00    +0.000 OA
ENDROOT
BRANCH   1   4
ATOM      4  C   UNL     1       4.747   3.484  18.280  0.00  0.00    +0.000 A 
ATOM      5  C   UNL     1       5.550   4.417  18.958  0.00  0.00    +0.000 A 
ATOM      6  C   UNL     1       6.485   5.205  18.266  0.00  0.00    +0.000 A 
ATOM      7  C   UNL     1       6.588   5.048  16.878  0.00  0.00    +0.000 A 
ATOM      8  N   UNL     1       7.390   5.674  15.960  0.00  0.00    +0.000 NA
ATOM      9  C   UNL     1       7.010   5.117  14.837  0.00  0.00    +0.000 A 
ATOM     10  O   UNL     1       6.036   4.178  14.905  0.00  0.00    +0.000 OA
ATOM     11  C   UNL     1       5.757   4.128  16.244  0.00  0.00    +0.000 A 
ATOM     12  C   UNL     1       4.815   3.329  16.884  0.00  0.00    +0.000 A 
BRANCH   9  13
ATOM     13  O   UNL     1       7.503   5.395  13.655  0.00  0.00    +0.000 OA
ATOM     14  H   UNL     1       6.702   5.381  13.104  0.00  0.00    +0.000 HD
ENDBRANCH   9  13
ENDBRANCH   1   4
BRANCH   1  16
ATOM     15  C   UNL     1       0.772   2.864  18.878  0.00  0.00    +0.000 C 
ATOM     16  N   UNL     1       2.068   3.545  18.941  0.00  0.00    +0.000 N 
BRANCH  16  17
ATOM     17  C   UNL     1       2.097   4.953  19.174  0.00  0.00    +0.000 A 
ATOM     18  C   UNL     1       2.366   5.799  18.096  0.00  0.00    +0.000 A 
ATOM     19  C   UNL     1       2.375   7.183  18.272  0.00  0.00    +0.000 A 
ATOM     20  C   UNL     1       2.114   7.724  19.530  0.00  0.00    +0.000 A 
ATOM     21  C   UNL     1       1.840   6.882  20.608  0.00  0.00    +0.000 A 
ATOM     22  C   UNL     1       1.829   5.494  20.433  0.00  0.00    +0.000 A 
ENDBRANCH  16  17
ENDBRANCH   1  16
TORSDOF 4
ENDMDL
MODEL 3
REMARK VINA RESULT:      -7.7      2.399      6.394
REMARK  Name = 
REMARK  5 active torsions:
REMARK  status: ('A' for Active; 'I' for Inactive)
REMARK    1  A    between atoms: C_1  and  N_2
REMARK    2  A    between atoms: N_2  and  C_3
REMARK    3  A    between atoms: N_2  and  S_9
REMARK    4  A    between atoms: S_9  and  C_12
REMARK    5  A    between atoms: C_17  and  O_18
REMARK                            x       y       z     vdW  Elec       q    Type
REMARK                         _______ _______ _______ _____ _____    ______ ____
ROOT
ATOM      1  S   UNL     1       5.735   6.466  16.525  0.00  0.00    +0.000 S 
ATOM      2  O   UNL     1       6.424   7.369  17.425  0.00  0.00    +0.000 OA
ATOM      3  O   UNL     1       5.050   6.976  15.354  0.00  0.00    +0.000 OA
ENDROOT
BRANCH   1   4
ATOM      4  C   UNL     1       4.504   5.608  17.507  0.00  0.00    +0.000 A 
ATOM      5  C   UNL     1       4.511   5.783  18.902  0.00  0.00    +0.000 A 
ATOM      6  C   UNL     1       3.650   5.041  19.728  0.00  0.00    +0.000 A 
ATOM      7  C   UNL     1       2.792   4.110  19.127  0.00  0.00    +0.000 A 
ATOM      8  N   UNL     1       1.867   3.258  19.673  0.00  0.00    +0.000 NA
ATOM      9  C   UNL     1       1.409   2.636  18.616  0.00  0.00    +0.000 A 
ATOM     10  O   UNL     1       1.928   2.984  17.413  0.00  0.00    +0.000 OA
ATOM     11  C   UNL     1       2.835   3.954  17.745  0.00  0.00    +0.000 A 
ATOM     12  C   UNL     1       3.671   4.661  16.886  0.00  0.00    +0.000 A 
BRANCH   9  13
ATOM     13  O   UNL     1       0.484   1.708  18.630  0.00  0.00    +0.000 OA
ATOM     14  H   UNL     1       0.466   1.468  19.572  0.00  0.00    +0.000 HD
ENDBRANCH   9  13
ENDBRANCH   1   4
BRANCH   1  16
ATOM     15  C   UNL     1       7.419   4.402  17.084  0.00  0.00    +0.000 C 
ATOM     16  N   UNL     1       6.826   5.262  16.055  0.00  0.00    +0.000 N 
BRANCH  16  17
ATOM     17  C   UNL     1       6.868   4.838  14.693  0.00  0.00    +0.000 A 
ATOM     18  C   UNL     1       5.987   3.837  14.282  0.00  0.00    +0.000 A 
ATOM     19  C   UNL     1       5.973   3.414  12.952  0.00  0.00    +0.000 A 
ATOM     20  C   UNL     1       6.843   3.993  12.030  0.00  0.00    +0.000 A 
ATOM     21  C   UNL     1       7.722   4.998  12.437  0.00  0.00    +0.000 A 
ATOM     22  C   UNL     1       7.735   5.425  13.769  0.00  0.00    +0.000 A 
ENDBRANCH  16  17
ENDBRANCH   1  16
TORSDOF 4
ENDMDL
MODEL 4
REMARK VINA RESULT:      -7.7      2.423      6.468
REMARK  Name = 
REMARK  5 active torsions:
REMARK  status: ('A' for Active; 'I' for Inactive)
REMARK    1  A    between atoms: C_1  and  N_2
REMARK    2  A    between atoms: N_2  and  C_3
REMARK    3  A    between atoms: N_2  and  S_9
REMARK    4  A    between atoms: S_9  and  C_12
REMARK    5  A    between atoms: C_17  and  O_18
REMARK                            x       y       z     vdW  Elec       q    Type
REMARK                         _______ _______ _______ _____ _____    ______ ____
ROOT
ATOM      1  S   UNL     1       5.765   6.476  16.441  0.00  0.00    +0.000 S 
ATOM      2  O   UNL     1       6.485   7.364  17.331  0.00  0.00    +0.000 OA
ATOM      3  O   UNL     1       5.072   7.003  15.282  0.00  0.00    +0.000 OA
ENDROOT
BRANCH   1   4
ATOM      4  C   UNL     1       4.532   5.641  17.440  0.00  0.00    +0.000 A 
ATOM      5  C   UNL     1       4.530   5.855  18.830  0.00  0.00    +0.000 A 
ATOM      6  C   UNL     1       3.668   5.133  19.672  0.00  0.00    +0.000 A 
ATOM      7  C   UNL     1       2.817   4.182  19.093  0.00  0.00    +0.000 A 
ATOM      8  N   UNL     1       1.893   3.342  19.657  0.00  0.00    +0.000 NA
ATOM      9  C   UNL     1       1.443   2.689  18.616  0.00  0.00    +0.000 A 
ATOM     10  O   UNL     1       1.967   3.005  17.406  0.00  0.00    +0.000 OA
ATOM     11  C   UNL     1       2.868   3.988  17.715  0.00  0.00    +0.000 A 
ATOM     12  C   UNL     1       3.706   4.673  16.841  0.00  0.00    +0.000 A 
BRANCH   9  13
ATOM     13  O   UNL     1       0.521   1.757  18.652  0.00  0.00    +0.000 OA
ATOM     14  H   UNL     1       0.019   1.952  17.843  0.00  0.00    +0.000 HD
ENDBRANCH   9  13
ENDBRANCH   1   4
BRANCH   1  16
ATOM     15  C   UNL     1       7.418   4.381  16.971  0.00  0.00    +0.000 C 
ATOM     16  N   UNL     1       6.824   5.251  15.952  0.00  0.00    +0.000 N 
BRANCH  16  17
ATOM     17  C   UNL     1       6.834   4.827  14.589  0.00  0.00    +0.000 A 
ATOM     18  C   UNL     1       7.767   5.400  13.723  0.00  0.00    +0.000 A 
ATOM     19  C   UNL     1       7.833   4.993  12.390  0.00  0.00    +0.000 A 
ATOM     20  C   UNL     1       6.962   4.010  11.921  0.00  0.00    +0.000 A 
ATOM     21  C   UNL     1       6.032   3.433  12.786  0.00  0.00    +0.000 A 
ATOM     22  C   UNL     1       5.966   3.838  14.123  0.00  0.00    +0.000 A 
ENDBRANCH  16  17
ENDBRANCH   1  16
TORSDOF 4
ENDMDL
MODEL 5
REMARK VINA RESULT:      -7.5      1.839      3.190
REMARK  Name = 
REMARK  5 active torsions:
REMARK  status: ('A' for Active; 'I' for Inactive)
REMARK    1  A    between atoms: C_1  and  N_2
REMARK    2  A    between atoms: N_2  and  C_3
REMARK    3  A    between atoms: N_2  and  S_9
REMARK    4  A    between atoms: S_9  and  C_12
REMARK    5  A    between atoms: C_17  and  O_18
REMARK                            x       y       z     vdW  Elec       q    Type
REMARK                         _______ _______ _______ _____ _____    ______ ____
ROOT
ATOM      1  S   UNL     1       5.334   4.598  19.146  0.00  0.00    +0.000 S 
ATOM      2  O   UNL     1       6.281   5.538  19.711  0.00  0.00    +0.000 OA
ATOM      3  O   UNL     1       5.333   3.212  19.570  0.00  0.00    +0.000 OA
ENDROOT
BRANCH   1   4
ATOM      4  C   UNL     1       5.614   4.594  17.375  0.00  0.00    +0.000 A 
ATOM      5  C   UNL     1       4.850   3.729  16.572  0.00  0.00    +0.000 A 
ATOM      6  C   UNL     1       5.113   3.596  15.198  0.00  0.00    +0.000 A 
ATOM      7  C   UNL     1       6.167   4.338  14.649  0.00  0.00    +0.000 A 
ATOM      8  N   UNL     1       6.648   4.403  13.367  0.00  0.00    +0.000 NA
ATOM      9  C   UNL     1       7.644   5.244  13.489  0.00  0.00    +0.000 A 
ATOM     10  O   UNL     1       7.882   5.756  14.721  0.00  0.00    +0.000 OA
ATOM     11  C   UNL     1       6.912   5.165  15.486  0.00  0.00    +0.000 A 
ATOM     12  C   UNL     1       6.693   5.327  16.851  0.00  0.00    +0.000 A 
BRANCH   9  13
ATOM     13  O   UNL     1       8.425   5.634  12.511  0.00  0.00    +0.000 OA
ATOM     14  H   UNL     1       9.278   5.255  12.783  0.00  0.00    +0.000 HD
ENDBRANCH   9  13
ENDBRANCH   1   4
BRANCH   1  16
ATOM     15  C   UNL     1       3.502   6.582  18.807  0.00  0.00    +0.000 C 
ATOM     16  N   UNL     1       3.782   5.243  19.334  0.00  0.00    +0.000 N 
BRANCH  16  17
ATOM     17  C   UNL     1       2.688   4.376  19.635  0.00  0.00    +0.000 A 
ATOM     18  C   UNL     1       1.970   3.821  18.574  0.00  0.00    +0.000 A 
ATOM     19  C   UNL     1       0.913   2.945  18.822  0.00  0.00    +0.000 A 
ATOM     20  C   UNL     1       0.571   2.623  20.135  0.00  0.00    +0.000 A 
ATOM     21  C   UNL     1       1.290   3.173  21.197  0.00  0.00    +0.000 A 
ATOM     22  C   UNL     1       2.351   4.050  20.950  0.00  0.00    +0.000 A 
ENDBRANCH  16  17
ENDBRANCH   1  16
TORSDOF 4
ENDMDL
MODEL 6
REMARK VINA RESULT:      -7.5      1.842      3.031
REMARK  Name = 
REMARK  5 active torsions:
REMARK  status: ('A' for Active; 'I' for Inactive)
REMARK    1  A    between atoms: C_1  and  N_2
REMARK    2  A    between atoms: N_2  and  C_3
REMARK    3  A    between atoms: N_2  and  S_9
REMARK    4  A    between atoms: S_9  and  C_12
REMARK    5  A    between atoms: C_17  and  O_18
REMARK                            x       y       z     vdW  Elec       q    Type
REMARK                         _______ _______ _______ _____ _____    ______ ____
ROOT
ATOM      1  S   UNL     1       5.356   4.598  19.155  0.00  0.00    +0.000 S 
ATOM      2  O   UNL     1       6.289   5.556  19.713  0.00  0.00    +0.000 OA
ATOM      3  O   UNL     1       5.379   3.214  19.586  0.00  0.00    +0.000 OA
ENDROOT
BRANCH   1   4
ATOM      4  C   UNL     1       5.634   4.589  17.384  0.00  0.00    +0.000 A 
ATOM      5  C   UNL     1       4.880   3.710  16.586  0.00  0.00    +0.000 A 
ATOM      6  C   UNL     1       5.142   3.574  15.213  0.00  0.00    +0.000 A 
ATOM      7  C   UNL     1       6.185   4.328  14.658  0.00  0.00    +0.000 A 
ATOM      8  N   UNL     1       6.663   4.393  13.375  0.00  0.00    +0.000 NA
ATOM      9  C   UNL     1       7.647   5.249  13.491  0.00  0.00    +0.000 A 
ATOM     10  O   UNL     1       7.880   5.769  14.720  0.00  0.00    +0.000 OA
ATOM     11  C   UNL     1       6.920   5.168  15.490  0.00  0.00    +0.000 A 
ATOM     12  C   UNL     1       6.702   5.334  16.854  0.00  0.00    +0.000 A 
BRANCH   9  13
ATOM     13  O   UNL     1       8.421   5.644  12.510  0.00  0.00    +0.000 OA
ATOM     14  H   UNL     1       8.312   6.609  12.555  0.00  0.00    +0.000 HD
ENDBRANCH   9  13
ENDBRANCH   1   4
BRANCH   1  16
ATOM     15  C   UNL     1       3.509   6.575  18.868  0.00  0.00    +0.000 C 
ATOM     16  N   UNL     1       3.794   5.217  19.343  0.00  0.00    +0.000 N 
BRANCH  16  17
ATOM     17  C   UNL     1       2.705   4.328  19.587  0.00  0.00    +0.000 A 
ATOM     18  C   UNL     1       2.360   4.050  20.912  0.00  0.00    +0.000 A 
ATOM     19  C   UNL     1       1.283   3.210  21.197  0.00  0.00    +0.000 A 
ATOM     20  C   UNL     1       0.548   2.645  20.156  0.00  0.00    +0.000 A 
ATOM     21  C   UNL     1       0.888   2.925  18.832  0.00  0.00    +0.000 A 
ATOM     22  C   UNL     1       1.966   3.769  18.544  0.00  0.00    +0.000 A 
ENDBRANCH  16  17
ENDBRANCH   1  16
TORSDOF 4
ENDMDL
MODEL 7
REMARK VINA RESULT:      -7.4      1.965      3.125
REMARK  Name = 
REMARK  5 active torsions:
REMARK  status: ('A' for Active; 'I' for Inactive)
REMARK    1  A    between atoms: C_1  and  N_2
REMARK    2  A    between atoms: N_2  and  C_3
REMARK    3  A    between atoms: N_2  and  S_9
REMARK    4  A    between atoms: S_9  and  C_12
REMARK    5  A    between atoms: C_17  and  O_18
REMARK                            x       y       z     vdW  Elec       q    Type
REMARK                         _______ _______ _______ _____ _____    ______ ____
ROOT
ATOM      1  S   UNL     1       5.471   4.686  19.049  0.00  0.00    +0.000 S 
ATOM      2  O   UNL     1       6.298   5.626  19.780  0.00  0.00    +0.000 OA
ATOM      3  O   UNL     1       5.371   3.306  19.481  0.00  0.00    +0.000 OA
ENDROOT
BRANCH   1   4
ATOM      4  C   UNL     1       6.098   4.655  17.369  0.00  0.00    +0.000 A 
ATOM      5  C   UNL     1       7.093   5.578  17.002  0.00  0.00    +0.000 A 
ATOM      6  C   UNL     1       7.529   5.679  15.670  0.00  0.00    +0.000 A 
ATOM      7  C   UNL     1       6.938   4.845  14.712  0.00  0.00    +0.000 A 
ATOM      8  N   UNL     1       7.155   4.730  13.364  0.00  0.00    +0.000 NA
ATOM      9  C   UNL     1       6.292   3.806  13.024  0.00  0.00    +0.000 A 
ATOM     10  O   UNL     1       5.518   3.283  14.005  0.00  0.00    +0.000 OA
ATOM     11  C   UNL     1       5.941   3.961  15.117  0.00  0.00    +0.000 A 
ATOM     12  C   UNL     1       5.472   3.828  16.420  0.00  0.00    +0.000 A 
BRANCH   9  13
ATOM     13  O   UNL     1       6.124   3.344  11.809  0.00  0.00    +0.000 OA
ATOM     14  H   UNL     1       6.968   2.887  11.657  0.00  0.00    +0.000 HD
ENDBRANCH   9  13
ENDBRANCH   1   4
BRANCH   1  16
ATOM     15  C   UNL     1       3.732   6.563  18.123  0.00  0.00    +0.000 C 
ATOM     16  N   UNL     1       3.920   5.346  18.917  0.00  0.00    +0.000 N 
BRANCH  16  17
ATOM     17  C   UNL     1       2.781   4.544  19.231  0.00  0.00    +0.000 A 
ATOM     18  C   UNL     1       2.203   3.786  18.211  0.00  0.00    +0.000 A 
ATOM     19  C   UNL     1       1.107   2.964  18.480  0.00  0.00    +0.000 A 
ATOM     20  C   UNL     1       0.588   2.900  19.772  0.00  0.00    +0.000 A 
ATOM     21  C   UNL     1       1.168   3.653  20.794  0.00  0.00    +0.000 A 
ATOM     22  C   UNL     1       2.267   4.475  20.527  0.00  0.00    +0.000 A 
ENDBRANCH  16  17
ENDBRANCH   1  16
TORSDOF 4
ENDMDL
MODEL 8
REMARK VINA RESULT:      -7.4      1.970      2.970
REMARK  Name = 
REMARK  5 active torsions:
REMARK  status: ('A' for Active; 'I' for Inactive)
REMARK    1  A    between atoms: C_1  and  N_2
REMARK    2  A    between atoms: N_2  and  C_3
REMARK    3  A    between atoms: N_2  and  S_9
REMARK    4  A    between atoms: S_9  and  C_12
REMARK    5  A    between atoms: C_17  and  O_18
REMARK                            x       y       z     vdW  Elec       q    Type
REMARK                         _______ _______ _______ _____ _____    ______ ____
ROOT
ATOM      1  S   UNL     1       5.475   4.679  19.037  0.00  0.00    +0.000 S 
ATOM      2  O   UNL     1       6.285   5.637  19.762  0.00  0.00    +0.000 OA
ATOM      3  O   UNL     1       5.402   3.299  19.474  0.00  0.00    +0.000 OA
ENDROOT
BRANCH   1   4
ATOM      4  C   UNL     1       6.097   4.653  17.356  0.00  0.00    +0.000 A 
ATOM      5  C   UNL     1       7.075   5.591  16.982  0.00  0.00    +0.000 A 
ATOM      6  C   UNL     1       7.507   5.695  15.650  0.00  0.00    +0.000 A 
ATOM      7  C   UNL     1       6.928   4.847  14.696  0.00  0.00    +0.000 A 
ATOM      8  N   UNL     1       7.143   4.731  13.348  0.00  0.00    +0.000 NA
ATOM      9  C   UNL     1       6.296   3.791  13.013  0.00  0.00    +0.000 A 
ATOM     10  O   UNL     1       5.533   3.259  13.998  0.00  0.00    +0.000 OA
ATOM     11  C   UNL     1       5.947   3.948  15.106  0.00  0.00    +0.000 A 
ATOM     12  C   UNL     1       5.484   3.811  16.411  0.00  0.00    +0.000 A 
BRANCH   9  13
ATOM     13  O   UNL     1       6.132   3.322  11.800  0.00  0.00    +0.000 OA
ATOM     14  H   UNL     1       5.370   2.731  11.923  0.00  0.00    +0.000 HD
ENDBRANCH   9  13
ENDBRANCH   1   4
BRANCH   1  16
ATOM     15  C   UNL     1       3.704   6.542  18.142  0.00  0.00    +0.000 C 
ATOM     16  N   UNL     1       3.910   5.308  18.906  0.00  0.00    +0.000 N 
BRANCH  16  17
ATOM     17  C   UNL     1       2.787   4.474  19.187  0.00  0.00    +0.000 A 
ATOM     18  C   UNL     1       2.274   4.467  20.486  0.00  0.00    +0.000 A 
ATOM     19  C   UNL     1       1.158   3.689  20.798  0.00  0.00    +0.000 A 
ATOM     20  C   UNL     1       0.552   2.916  19.809  0.00  0.00    +0.000 A 
ATOM     21  C   UNL     1       1.060   2.925  18.510  0.00  0.00    +0.000 A 
ATOM     22  C   UNL     1       2.177   3.705  18.194  0.00  0.00    +0.000 A 
ENDBRANCH  16  17
ENDBRANCH   1  16
TORSDOF 4
ENDMDL
MODEL 9
REMARK VINA RESULT:      -7.3      3.089      5.441
REMARK  Name = 
REMARK  5 active torsions:
REMARK  status: ('A' for Active; 'I' for Inactive)
REMARK    1  A    between atoms: C_1  and  N_2
REMARK    2  A    between atoms: N_2  and  C_3
REMARK    3  A    between atoms: N_2  and  S_9
REMARK    4  A    between atoms: S_9  and  C_12
REMARK    5  A    between atoms: C_17  and  O_18
REMARK                            x       y       z     vdW  Elec       q    Type
REMARK                         _______ _______ _______ _____ _____    ______ ____
ROOT
ATOM      1  S   UNL     1       4.022   3.931  17.872  0.00  0.00    +0.000 S 
ATOM      2  O   UNL     1       3.054   3.374  16.949  0.00  0.00    +0.000 OA
ATOM      3  O   UNL     1       4.416   3.193  19.056  0.00  0.00    +0.000 OA
ENDROOT
BRANCH   1   4
ATOM      4  C   UNL     1       3.344   5.491  18.441  0.00  0.00    +0.000 A 
ATOM      5  C   UNL     1       2.834   5.569  19.749  0.00  0.00    +0.000 A 
ATOM      6  C   UNL     1       2.182   6.728  20.203  0.00  0.00    +0.000 A 
ATOM      7  C   UNL     1       2.040   7.801  19.314  0.00  0.00    +0.000 A 
ATOM      8  N   UNL     1       1.455   9.030  19.475  0.00  0.00    +0.000 NA
ATOM      9  C   UNL     1       1.621   9.571  18.294  0.00  0.00    +0.000 A 
ATOM     10  O   UNL     1       2.262   8.834  17.354  0.00  0.00    +0.000 OA
ATOM     11  C   UNL     1       2.541   7.672  18.021  0.00  0.00    +0.000 A 
ATOM     12  C   UNL     1       3.189   6.545  17.524  0.00  0.00    +0.000 A 
BRANCH   9  13
ATOM     13  O   UNL     1       1.221  10.772  17.953  0.00  0.00    +0.000 OA
ATOM     14  H   UNL     1       0.292  10.754  18.241  0.00  0.00    +0.000 HD
ENDBRANCH   9  13
ENDBRANCH   1   4
BRANCH   1  16
ATOM     15  C   UNL     1       5.419   4.122  15.545  0.00  0.00    +0.000 C 
ATOM     16  N   UNL     1       5.401   4.357  16.992  0.00  0.00    +0.000 N 
BRANCH  16  17
ATOM     17  C   UNL     1       6.348   5.264  17.556  0.00  0.00    +0.000 A 
ATOM     18  C   UNL     1       6.595   6.465  16.887  0.00  0.00    +0.000 A 
ATOM     19  C   UNL     1       7.490   7.395  17.419  0.00  0.00    +0.000 A 
ATOM     20  C   UNL     1       8.141   7.123  18.621  0.00  0.00    +0.000 A 
ATOM     21  C   UNL     1       7.891   5.926  19.294  0.00  0.00    +0.000 A 
ATOM     22  C   UNL     1       6.993   4.994  18.764  0.00  0.00    +0.000 A 
ENDBRANCH  16  17
ENDBRANCH   1  16
TORSDOF 4
ENDMDL
