MODEL 1
REMARK VINA RESULT:      -8.1      0.000      0.000
REMARK  Name = 
REMARK  4 active torsions:
REMARK  status: ('A' for Active; 'I' for Inactive)
REMARK    1  A    between atoms: C_2  and  C_3
REMARK    2  A    between atoms: C_3  and  C_4
REMARK    3  A    between atoms: N_10  and  C_11
REMARK    4  A    between atoms: C_11  and  O_12
REMARK                            x       y       z     vdW  Elec       q    Type
REMARK                         _______ _______ _______ _____ _____    ______ ____
ROOT
ATOM      1  C   UNL     1       5.723   4.918  17.465  0.00  0.00    +0.000 C 
ATOM      2  C   UNL     1       4.979   4.000  16.447  0.00  0.00    +0.000 C 
ATOM      3  O   UNL     1       4.174   3.120  16.658  0.00  0.00    +0.000 OA
ATOM      4  C   UNL     1       5.572   4.260  15.120  0.00  0.00    +0.000 A 
ATOM      5  C   UNL     1       5.233   3.697  13.905  0.00  0.00    +0.000 A 
ATOM      6  C   UNL     1       6.142   3.858  12.858  0.00  0.00    +0.000 A 
ATOM      7  C   UNL     1       7.381   4.490  13.080  0.00  0.00    +0.000 A 
ATOM      8  C   UNL     1       7.637   5.159  14.280  0.00  0.00    +0.000 A 
ATOM      9  C   UNL     1       6.651   5.113  15.252  0.00  0.00    +0.000 A 
ATOM     10  C   UNL     1       6.489   5.856  16.518  0.00  0.00    +0.000 C 
ATOM     11  O   UNL     1       6.808   7.023  16.656  0.00  0.00    +0.000 OA
ENDROOT
BRANCH   1  14
ATOM     12  O   UNL     1       3.594   6.745  17.373  0.00  0.00    +0.000 OA
ATOM     13  C   UNL     1       3.823   6.148  18.430  0.00  0.00    +0.000 C 
ATOM     14  N   UNL     1       4.875   5.285  18.569  0.00  0.00    +0.000 N 
ATOM     15  H   UNL     1       5.212   5.083  19.500  0.00  0.00    +0.000 HD
BRANCH  13  16
ATOM     16  C   UNL     1       2.933   6.269  19.662  0.00  0.00    +0.000 C 
BRANCH  16  17
ATOM     17  C   UNL     1       2.272   4.961  20.018  0.00  0.00    +0.000 A 
ATOM     18  C   UNL     1       2.400   4.426  21.307  0.00  0.00    +0.000 A 
ATOM     19  C   UNL     1       1.845   3.184  21.614  0.00  0.00    +0.000 A 
ATOM     20  C   UNL     1       1.145   2.473  20.642  0.00  0.00    +0.000 A 
ATOM     21  C   UNL     1       0.989   3.008  19.366  0.00  0.00    +0.000 A 
ATOM     22  C   UNL     1       1.546   4.249  19.054  0.00  0.00    +0.000 A 
ENDBRANCH  16  17
ENDBRANCH  13  16
ENDBRANCH   1  14
BRANCH   1  23
ATOM     23  O   UNL     1       6.791   4.220  18.097  0.00  0.00    +0.000 OA
ATOM     24  H   UNL     1       6.398   3.684  18.810  0.00  0.00    +0.000 HD
ENDBRANCH   1  23
TORSDOF 4
ENDMDL
MODEL 2
REMARK VINA RESULT:      -8.0      0.074      1.032
REMARK  Name = 
REMARK  4 active torsions:
REMARK  status: ('A' for Active; 'I' for Inactive)
REMARK    1  A    between atoms: C_2  and  C_3
REMARK    2  A    between atoms: C_3  and  C_4
REMARK    3  A    between atoms: N_10  and  C_11
REMARK    4  A    between atoms: C_11  and  O_12
REMARK                            x       y       z     vdW  Elec       q    Type
REMARK                         _______ _______ _______ _____ _____    ______ ____
ROOT
ATOM      1  C   UNL     1       5.728   4.911  17.412  0.00  0.00    +0.000 C 
ATOM      2  C   UNL     1       4.976   4.010  16.384  0.00  0.00    +0.000 C 
ATOM      3  O   UNL     1       4.162   3.137  16.585  0.00  0.00    +0.000 OA
ATOM      4  C   UNL     1       5.573   4.277  15.060  0.00  0.00    +0.000 A 
ATOM      5  C   UNL     1       5.230   3.730  13.839  0.00  0.00    +0.000 A 
ATOM      6  C   UNL     1       6.142   3.891  12.795  0.00  0.00    +0.000 A 
ATOM      7  C   UNL     1       7.387   4.510  13.025  0.00  0.00    +0.000 A 
ATOM      8  C   UNL     1       7.648   5.164  14.232  0.00  0.00    +0.000 A 
ATOM      9  C   UNL     1       6.661   5.118  15.202  0.00  0.00    +0.000 A 
ATOM     10  C   UNL     1       6.504   5.850  16.475  0.00  0.00    +0.000 C 
ATOM     11  O   UNL     1       6.834   7.013  16.625  0.00  0.00    +0.000 OA
ENDROOT
BRANCH   1  14
ATOM     12  O   UNL     1       3.638   6.783  17.343  0.00  0.00    +0.000 OA
ATOM     13  C   UNL     1       3.849   6.163  18.389  0.00  0.00    +0.000 C 
ATOM     14  N   UNL     1       4.882   5.275  18.518  0.00  0.00    +0.000 N 
ATOM     15  H   UNL     1       5.209   5.050  19.447  0.00  0.00    +0.000 HD
BRANCH  13  16
ATOM     16  C   UNL     1       2.955   6.279  19.620  0.00  0.00    +0.000 C 
BRANCH  16  17
ATOM     17  C   UNL     1       2.339   4.958  20.004  0.00  0.00    +0.000 A 
ATOM     18  C   UNL     1       1.568   4.237  19.081  0.00  0.00    +0.000 A 
ATOM     19  C   UNL     1       0.943   3.050  19.459  0.00  0.00    +0.000 A 
ATOM     20  C   UNL     1       1.094   2.563  20.756  0.00  0.00    +0.000 A 
ATOM     21  C   UNL     1       1.881   3.257  21.672  0.00  0.00    +0.000 A 
ATOM     22  C   UNL     1       2.504   4.448  21.298  0.00  0.00    +0.000 A 
ENDBRANCH  16  17
ENDBRANCH  13  16
ENDBRANCH   1  14
BRANCH   1  23
ATOM     23  O   UNL     1       6.788   4.197  18.039  0.00  0.00    +0.000 OA
ATOM     24  H   UNL     1       7.581   4.761  17.988  0.00  0.00    +0.000 HD
ENDBRANCH   1  23
TORSDOF 4
ENDMDL
MODEL 3
REMARK VINA RESULT:      -7.8      1.598      6.700
REMARK  Name = 
REMARK  4 active torsions:
REMARK  status: ('A' for Active; 'I' for Inactive)
REMARK    1  A    between atoms: C_2  and  C_3
REMARK    2  A    between atoms: C_3  and  C_4
REMARK    3  A    between atoms: N_10  and  C_11
REMARK    4  A    between atoms: C_11  and  O_12
REMARK                            x       y       z     vdW  Elec       q    Type
REMARK                         _______ _______ _______ _____ _____    ______ ____
ROOT
ATOM      1  C   UNL     1       4.857   3.986  18.748  0.00  0.00    +0.000 C 
ATOM      2  C   UNL     1       3.427   4.186  18.157  0.00  0.00    +0.000 C 
ATOM      3  O   UNL     1       3.078   4.862  17.215  0.00  0.00    +0.000 OA
ATOM      4  C   UNL     1       2.483   3.529  19.082  0.00  0.00    +0.000 A 
ATOM      5  C   UNL     1       1.109   3.426  18.975  0.00  0.00    +0.000 A 
ATOM      6  C   UNL     1       0.412   3.048  20.123  0.00  0.00    +0.000 A 
ATOM      7  C   UNL     1       1.092   2.872  21.345  0.00  0.00    +0.000 A 
ATOM      8  C   UNL     1       2.489   2.856  21.390  0.00  0.00    +0.000 A 
ATOM      9  C   UNL     1       3.162   3.085  20.201  0.00  0.00    +0.000 A 
ATOM     10  C   UNL     1       4.586   2.937  19.838  0.00  0.00    +0.000 C 
ATOM     11  O   UNL     1       5.297   2.047  20.266  0.00  0.00    +0.000 OA
ENDROOT
BRANCH   1  14
ATOM     12  O   UNL     1       5.759   6.169  17.232  0.00  0.00    +0.000 OA
ATOM     13  C   UNL     1       6.280   5.063  17.054  0.00  0.00    +0.000 C 
ATOM     14  N   UNL     1       5.858   3.942  17.715  0.00  0.00    +0.000 N 
ATOM     15  H   UNL     1       6.073   3.039  17.315  0.00  0.00    +0.000 HD
BRANCH  13  16
ATOM     16  C   UNL     1       7.472   4.844  16.129  0.00  0.00    +0.000 C 
BRANCH  16  17
ATOM     17  C   UNL     1       7.049   4.595  14.704  0.00  0.00    +0.000 A 
ATOM     18  C   UNL     1       5.929   3.802  14.422  0.00  0.00    +0.000 A 
ATOM     19  C   UNL     1       5.580   3.516  13.102  0.00  0.00    +0.000 A 
ATOM     20  C   UNL     1       6.336   4.033  12.053  0.00  0.00    +0.000 A 
ATOM     21  C   UNL     1       7.435   4.846  12.322  0.00  0.00    +0.000 A 
ATOM     22  C   UNL     1       7.790   5.129  13.641  0.00  0.00    +0.000 A 
ENDBRANCH  16  17
ENDBRANCH  13  16
ENDBRANCH   1  14
BRANCH   1  23
ATOM     23  O   UNL     1       5.249   5.110  19.528  0.00  0.00    +0.000 OA
ATOM     24  H   UNL     1       5.524   4.770  20.400  0.00  0.00    +0.000 HD
ENDBRANCH   1  23
TORSDOF 4
ENDMDL
MODEL 4
REMARK VINA RESULT:      -7.7      1.558      6.901
REMARK  Name = 
REMARK  4 active torsions:
REMARK  status: ('A' for Active; 'I' for Inactive)
REMARK    1  A    between atoms: C_2  and  C_3
REMARK    2  A    between atoms: C_3  and  C_4
REMARK    3  A    between atoms: N_10  and  C_11
REMARK    4  A    between atoms: C_11  and  O_12
REMARK                            x       y       z     vdW  Elec       q    Type
REMARK                         _______ _______ _______ _____ _____    ______ ____
ROOT
ATOM      1  C   UNL     1       4.259   2.990  17.620  0.00  0.00    +0.000 C 
ATOM      2  C   UNL     1       4.434   3.419  19.109  0.00  0.00    +0.000 C 
ATOM      3  O   UNL     1       5.446   3.488  19.771  0.00  0.00    +0.000 OA
ATOM      4  C   UNL     1       3.079   3.568  19.676  0.00  0.00    +0.000 A 
ATOM      5  C   UNL     1       2.722   3.949  20.955  0.00  0.00    +0.000 A 
ATOM      6  C   UNL     1       1.404   3.704  21.343  0.00  0.00    +0.000 A 
ATOM      7  C   UNL     1       0.523   3.018  20.484  0.00  0.00    +0.000 A 
ATOM      8  C   UNL     1       0.874   2.764  19.155  0.00  0.00    +0.000 A 
ATOM      9  C   UNL     1       2.140   3.155  18.750  0.00  0.00    +0.000 A 
ATOM     10  C   UNL     1       2.757   3.238  17.411  0.00  0.00    +0.000 C 
ATOM     11  O   UNL     1       2.148   3.576  16.412  0.00  0.00    +0.000 OA
ENDROOT
BRANCH   1  14
ATOM     12  O   UNL     1       4.646   5.621  16.723  0.00  0.00    +0.000 OA
ATOM     13  C   UNL     1       5.493   4.766  16.447  0.00  0.00    +0.000 C 
ATOM     14  N   UNL     1       5.349   3.452  16.802  0.00  0.00    +0.000 N 
ATOM     15  H   UNL     1       5.875   2.756  16.292  0.00  0.00    +0.000 HD
BRANCH  13  16
ATOM     16  C   UNL     1       6.803   5.091  15.737  0.00  0.00    +0.000 C 
BRANCH  16  17
ATOM     17  C   UNL     1       6.772   4.708  14.279  0.00  0.00    +0.000 A 
ATOM     18  C   UNL     1       5.860   3.751  13.814  0.00  0.00    +0.000 A 
ATOM     19  C   UNL     1       5.879   3.348  12.479  0.00  0.00    +0.000 A 
ATOM     20  C   UNL     1       6.797   3.908  11.594  0.00  0.00    +0.000 A 
ATOM     21  C   UNL     1       7.689   4.881  12.040  0.00  0.00    +0.000 A 
ATOM     22  C   UNL     1       7.676   5.283  13.376  0.00  0.00    +0.000 A 
ENDBRANCH  16  17
ENDBRANCH  13  16
ENDBRANCH   1  14
BRANCH   1  23
ATOM     23  O   UNL     1       4.333   1.574  17.485  0.00  0.00    +0.000 OA
ATOM     24  H   UNL     1       4.518   1.387  16.546  0.00  0.00    +0.000 HD
ENDBRANCH   1  23
TORSDOF 4
ENDMDL
MODEL 5
REMARK VINA RESULT:      -7.7      0.976      1.409
REMARK  Name = 
REMARK  4 active torsions:
REMARK  status: ('A' for Active; 'I' for Inactive)
REMARK    1  A    between atoms: C_2  and  C_3
REMARK    2  A    between atoms: C_3  and  C_4
REMARK    3  A    between atoms: N_10  and  C_11
REMARK    4  A    between atoms: C_11  and  O_12
REMARK                            x       y       z     vdW  Elec       q    Type
REMARK                         _______ _______ _______ _____ _____    ______ ____
ROOT
ATOM      1  C   UNL     1       6.637   4.618  16.895  0.00  0.00    +0.000 C 
ATOM      2  C   UNL     1       5.815   3.714  15.924  0.00  0.00    +0.000 C 
ATOM      3  O   UNL     1       5.129   2.749  16.175  0.00  0.00    +0.000 OA
ATOM      4  C   UNL     1       6.164   4.130  14.551  0.00  0.00    +0.000 A 
ATOM      5  C   UNL     1       5.681   3.633  13.356  0.00  0.00    +0.000 A 
ATOM      6  C   UNL     1       6.394   3.958  12.201  0.00  0.00    +0.000 A 
ATOM      7  C   UNL     1       7.597   4.686  12.287  0.00  0.00    +0.000 A 
ATOM      8  C   UNL     1       7.988   5.282  13.490  0.00  0.00    +0.000 A 
ATOM      9  C   UNL     1       7.178   5.069  14.593  0.00  0.00    +0.000 A 
ATOM     10  C   UNL     1       7.162   5.693  15.931  0.00  0.00    +0.000 C 
ATOM     11  O   UNL     1       7.403   6.871  16.123  0.00  0.00    +0.000 OA
ENDROOT
BRANCH   1  14
ATOM     12  O   UNL     1       4.418   6.287  17.310  0.00  0.00    +0.000 OA
ATOM     13  C   UNL     1       4.841   5.612  18.253  0.00  0.00    +0.000 C 
ATOM     14  N   UNL     1       5.950   4.817  18.144  0.00  0.00    +0.000 N 
ATOM     15  H   UNL     1       6.437   4.554  18.989  0.00  0.00    +0.000 HD
BRANCH  13  16
ATOM     16  C   UNL     1       4.148   5.551  19.610  0.00  0.00    +0.000 C 
BRANCH  16  17
ATOM     17  C   UNL     1       2.988   4.588  19.614  0.00  0.00    +0.000 A 
ATOM     18  C   UNL     1       2.549   3.997  18.422  0.00  0.00    +0.000 A 
ATOM     19  C   UNL     1       1.433   3.160  18.418  0.00  0.00    +0.000 A 
ATOM     20  C   UNL     1       0.756   2.893  19.606  0.00  0.00    +0.000 A 
ATOM     21  C   UNL     1       1.201   3.454  20.801  0.00  0.00    +0.000 A 
ATOM     22  C   UNL     1       2.314   4.295  20.808  0.00  0.00    +0.000 A 
ENDBRANCH  16  17
ENDBRANCH  13  16
ENDBRANCH   1  14
BRANCH   1  23
ATOM     23  O   UNL     1       7.845   3.977  17.290  0.00  0.00    +0.000 OA
ATOM     24  H   UNL     1       8.052   4.290  18.190  0.00  0.00    +0.000 HD
ENDBRANCH   1  23
TORSDOF 4
ENDMDL
MODEL 6
REMARK VINA RESULT:      -7.6      1.499      6.858
REMARK  Name = 
REMARK  4 active torsions:
REMARK  status: ('A' for Active; 'I' for Inactive)
REMARK    1  A    between atoms: C_2  and  C_3
REMARK    2  A    between atoms: C_3  and  C_4
REMARK    3  A    between atoms: N_10  and  C_11
REMARK    4  A    between atoms: C_11  and  O_12
REMARK                            x       y       z     vdW  Elec       q    Type
REMARK                         _______ _______ _______ _____ _____    ______ ____
ROOT
ATOM      1  C   UNL     1       4.783   3.779  18.277  0.00  0.00    +0.000 C 
ATOM      2  C   UNL     1       4.598   5.028  19.193  0.00  0.00    +0.000 C 
ATOM      3  O   UNL     1       5.437   5.761  19.666  0.00  0.00    +0.000 OA
ATOM      4  C   UNL     1       3.169   5.082  19.563  0.00  0.00    +0.000 A 
ATOM      5  C   UNL     1       2.521   6.016  20.347  0.00  0.00    +0.000 A 
ATOM      6  C   UNL     1       1.251   5.677  20.816  0.00  0.00    +0.000 A 
ATOM      7  C   UNL     1       0.714   4.400  20.562  0.00  0.00    +0.000 A 
ATOM      8  C   UNL     1       1.336   3.530  19.661  0.00  0.00    +0.000 A 
ATOM      9  C   UNL     1       2.524   3.954  19.090  0.00  0.00    +0.000 A 
ATOM     10  C   UNL     1       3.323   3.410  17.974  0.00  0.00    +0.000 C 
ATOM     11  O   UNL     1       2.830   2.903  16.982  0.00  0.00    +0.000 OA
ENDROOT
BRANCH   1  14
ATOM     12  O   UNL     1       4.869   5.695  16.229  0.00  0.00    +0.000 OA
ATOM     13  C   UNL     1       5.845   4.957  16.397  0.00  0.00    +0.000 C 
ATOM     14  N   UNL     1       5.857   3.964  17.337  0.00  0.00    +0.000 N 
ATOM     15  H   UNL     1       6.512   3.202  17.223  0.00  0.00    +0.000 HD
BRANCH  13  16
ATOM     16  C   UNL     1       7.147   5.110  15.617  0.00  0.00    +0.000 C 
BRANCH  16  17
ATOM     17  C   UNL     1       7.010   4.657  14.186  0.00  0.00    +0.000 A 
ATOM     18  C   UNL     1       7.789   5.241  13.177  0.00  0.00    +0.000 A 
ATOM     19  C   UNL     1       7.612   4.869  11.844  0.00  0.00    +0.000 A 
ATOM     20  C   UNL     1       6.670   3.899  11.509  0.00  0.00    +0.000 A 
ATOM     21  C   UNL     1       5.911   3.293  12.508  0.00  0.00    +0.000 A 
ATOM     22  C   UNL     1       6.082   3.666  13.841  0.00  0.00    +0.000 A 
ENDBRANCH  16  17
ENDBRANCH  13  16
ENDBRANCH   1  14
BRANCH   1  23
ATOM     23  O   UNL     1       5.209   2.650  19.034  0.00  0.00    +0.000 OA
ATOM     24  H   UNL     1       5.695   2.992  19.807  0.00  0.00    +0.000 HD
ENDBRANCH   1  23
TORSDOF 4
ENDMDL
MODEL 7
REMARK VINA RESULT:      -7.5      1.485      6.872
REMARK  Name = 
REMARK  4 active torsions:
REMARK  status: ('A' for Active; 'I' for Inactive)
REMARK    1  A    between atoms: C_2  and  C_3
REMARK    2  A    between atoms: C_3  and  C_4
REMARK    3  A    between atoms: N_10  and  C_11
REMARK    4  A    between atoms: C_11  and  O_12
REMARK                            x       y       z     vdW  Elec       q    Type
REMARK                         _______ _______ _______ _____ _____    ______ ____
ROOT
ATOM      1  C   UNL     1       4.598   3.708  18.104  0.00  0.00    +0.000 C 
ATOM      2  C   UNL     1       4.530   4.869  19.145  0.00  0.00    +0.000 C 
ATOM      3  O   UNL     1       5.435   5.471  19.677  0.00  0.00    +0.000 OA
ATOM      4  C   UNL     1       3.115   5.010  19.540  0.00  0.00    +0.000 A 
ATOM      5  C   UNL     1       2.557   5.913  20.425  0.00  0.00    +0.000 A 
ATOM      6  C   UNL     1       1.265   5.641  20.875  0.00  0.00    +0.000 A 
ATOM      7  C   UNL     1       0.614   4.449  20.500  0.00  0.00    +0.000 A 
ATOM      8  C   UNL     1       1.150   3.625  19.507  0.00  0.00    +0.000 A 
ATOM      9  C   UNL     1       2.368   3.999  18.964  0.00  0.00    +0.000 A 
ATOM     10  C   UNL     1       3.109   3.504  17.786  0.00  0.00    +0.000 C 
ATOM     11  O   UNL     1       2.567   3.148  16.756  0.00  0.00    +0.000 OA
ENDROOT
BRANCH   1  14
ATOM     12  O   UNL     1       4.842   5.810  16.259  0.00  0.00    +0.000 OA
ATOM     13  C   UNL     1       5.750   4.975  16.337  0.00  0.00    +0.000 C 
ATOM     14  N   UNL     1       5.679   3.894  17.172  0.00  0.00    +0.000 N 
ATOM     15  H   UNL     1       6.262   3.093  16.971  0.00  0.00    +0.000 HD
BRANCH  13  16
ATOM     16  C   UNL     1       7.055   5.092  15.558  0.00  0.00    +0.000 C 
BRANCH  16  17
ATOM     17  C   UNL     1       6.900   4.669  14.119  0.00  0.00    +0.000 A 
ATOM     18  C   UNL     1       5.948   3.705  13.759  0.00  0.00    +0.000 A 
ATOM     19  C   UNL     1       5.853   3.266  12.438  0.00  0.00    +0.000 A 
ATOM     20  C   UNL     1       6.695   3.797  11.464  0.00  0.00    +0.000 A 
ATOM     21  C   UNL     1       7.625   4.776  11.806  0.00  0.00    +0.000 A 
ATOM     22  C   UNL     1       7.726   5.214  13.127  0.00  0.00    +0.000 A 
ENDBRANCH  16  17
ENDBRANCH  13  16
ENDBRANCH   1  14
BRANCH   1  23
ATOM     23  O   UNL     1       4.925   2.475  18.735  0.00  0.00    +0.000 OA
ATOM     24  H   UNL     1       5.828   2.241  18.453  0.00  0.00    +0.000 HD
ENDBRANCH   1  23
TORSDOF 4
ENDMDL
MODEL 8
REMARK VINA RESULT:      -7.5      1.535      6.617
REMARK  Name = 
REMARK  4 active torsions:
REMARK  status: ('A' for Active; 'I' for Inactive)
REMARK    1  A    between atoms: C_2  and  C_3
REMARK    2  A    between atoms: C_3  and  C_4
REMARK    3  A    between atoms: N_10  and  C_11
REMARK    4  A    between atoms: C_11  and  O_12
REMARK                            x       y       z     vdW  Elec       q    Type
REMARK                         _______ _______ _______ _____ _____    ______ ____
ROOT
ATOM      1  C   UNL     1       4.875   4.131  18.735  0.00  0.00    +0.000 C 
ATOM      2  C   UNL     1       3.438   4.401  18.191  0.00  0.00    +0.000 C 
ATOM      3  O   UNL     1       3.084   5.150  17.308  0.00  0.00    +0.000 OA
ATOM      4  C   UNL     1       2.499   3.698  19.088  0.00  0.00    +0.000 A 
ATOM      5  C   UNL     1       1.122   3.630  19.004  0.00  0.00    +0.000 A 
ATOM      6  C   UNL     1       0.441   3.183  20.137  0.00  0.00    +0.000 A 
ATOM      7  C   UNL     1       1.142   2.906  21.328  0.00  0.00    +0.000 A 
ATOM      8  C   UNL     1       2.539   2.860  21.341  0.00  0.00    +0.000 A 
ATOM      9  C   UNL     1       3.192   3.161  20.157  0.00  0.00    +0.000 A 
ATOM     10  C   UNL     1       4.604   3.012  19.753  0.00  0.00    +0.000 C 
ATOM     11  O   UNL     1       5.306   2.079  20.100  0.00  0.00    +0.000 OA
ENDROOT
BRANCH   1  14
ATOM     12  O   UNL     1       5.744   6.390  17.315  0.00  0.00    +0.000 OA
ATOM     13  C   UNL     1       6.261   5.296  17.069  0.00  0.00    +0.000 C 
ATOM     14  N   UNL     1       5.853   4.141  17.680  0.00  0.00    +0.000 N 
ATOM     15  H   UNL     1       6.060   3.261  17.229  0.00  0.00    +0.000 HD
BRANCH  13  16
ATOM     16  C   UNL     1       7.433   5.127  16.108  0.00  0.00    +0.000 C 
BRANCH  16  17
ATOM     17  C   UNL     1       6.990   4.658  14.746  0.00  0.00    +0.000 A 
ATOM     18  C   UNL     1       7.727   4.994  13.602  0.00  0.00    +0.000 A 
ATOM     19  C   UNL     1       7.279   4.617  12.337  0.00  0.00    +0.000 A 
ATOM     20  C   UNL     1       6.099   3.888  12.203  0.00  0.00    +0.000 A 
ATOM     21  C   UNL     1       5.373   3.525  13.335  0.00  0.00    +0.000 A 
ATOM     22  C   UNL     1       5.817   3.905  14.602  0.00  0.00    +0.000 A 
ENDBRANCH  16  17
ENDBRANCH  13  16
ENDBRANCH   1  14
BRANCH   1  23
ATOM     23  O   UNL     1       5.307   5.188  19.585  0.00  0.00    +0.000 OA
ATOM     24  H   UNL     1       6.159   4.913  19.971  0.00  0.00    +0.000 HD
ENDBRANCH   1  23
TORSDOF 4
ENDMDL
MODEL 9
REMARK VINA RESULT:      -7.5      1.293      6.747
REMARK  Name = 
REMARK  4 active torsions:
REMARK  status: ('A' for Active; 'I' for Inactive)
REMARK    1  A    between atoms: C_2  and  C_3
REMARK    2  A    between atoms: C_3  and  C_4
REMARK    3  A    between atoms: N_10  and  C_11
REMARK    4  A    between atoms: C_11  and  O_12
REMARK                            x       y       z     vdW  Elec       q    Type
REMARK                         _______ _______ _______ _____ _____    ______ ____
ROOT
ATOM      1  C   UNL     1       4.805   4.763  18.368  0.00  0.00    +0.000 C 
ATOM      2  C   UNL     1       3.630   5.584  18.986  0.00  0.00    +0.000 C 
ATOM      3  O   UNL     1       3.535   6.780  19.147  0.00  0.00    +0.000 OA
ATOM      4  C   UNL     1       2.669   4.609  19.539  0.00  0.00    +0.000 A 
ATOM      5  C   UNL     1       1.465   4.856  20.170  0.00  0.00    +0.000 A 
ATOM      6  C   UNL     1       0.899   3.800  20.886  0.00  0.00    +0.000 A 
ATOM      7  C   UNL     1       1.586   2.577  21.018  0.00  0.00    +0.000 A 
ATOM      8  C   UNL     1       2.733   2.317  20.263  0.00  0.00    +0.000 A 
ATOM      9  C   UNL     1       3.192   3.334  19.441  0.00  0.00    +0.000 A 
ATOM     10  C   UNL     1       4.216   3.344  18.376  0.00  0.00    +0.000 C 
ATOM     11  O   UNL     1       4.398   2.414  17.613  0.00  0.00    +0.000 OA
ENDROOT
BRANCH   1  14
ATOM     12  O   UNL     1       7.336   4.228  17.280  0.00  0.00    +0.000 OA
ATOM     13  C   UNL     1       6.635   5.101  16.759  0.00  0.00    +0.000 C 
ATOM     14  N   UNL     1       5.414   5.456  17.264  0.00  0.00    +0.000 N 
ATOM     15  H   UNL     1       5.038   6.362  17.019  0.00  0.00    +0.000 HD
BRANCH  13  16
ATOM     16  C   UNL     1       7.028   5.828  15.478  0.00  0.00    +0.000 C 
BRANCH  16  17
ATOM     17  C   UNL     1       6.809   4.981  14.250  0.00  0.00    +0.000 A 
ATOM     18  C   UNL     1       7.674   5.080  13.152  0.00  0.00    +0.000 A 
ATOM     19  C   UNL     1       7.430   4.346  11.992  0.00  0.00    +0.000 A 
ATOM     20  C   UNL     1       6.330   3.494  11.924  0.00  0.00    +0.000 A 
ATOM     21  C   UNL     1       5.480   3.367  13.020  0.00  0.00    +0.000 A 
ATOM     22  C   UNL     1       5.719   4.103  14.180  0.00  0.00    +0.000 A 
ENDBRANCH  16  17
ENDBRANCH  13  16
ENDBRANCH   1  14
BRANCH   1  23
ATOM     23  O   UNL     1       5.877   4.630  19.295  0.00  0.00    +0.000 OA
ATOM     24  H   UNL     1       5.909   3.692  19.560  0.00  0.00    +0.000 HD
ENDBRANCH   1  23
TORSDOF 4
ENDMDL
