MODEL 1
REMARK VINA RESULT:      -8.1      0.000      0.000
REMARK  Name = 
REMARK  5 active torsions:
REMARK  status: ('A' for Active; 'I' for Inactive)
REMARK    1  A    between atoms: C_1  and  O_2
REMARK    2  A    between atoms: O_2  and  C_3
REMARK    3  A    between atoms: C_6  and  C_7
REMARK    4  A    between atoms: C_7  and  C_9
REMARK    5  A    between atoms: C_17  and  C_18
REMARK                            x       y       z     vdW  Elec       q    Type
REMARK                         _______ _______ _______ _____ _____    ______ ____
ROOT
ATOM      1  C   UNL     1      -0.238  11.343  18.775  0.00  0.00    +0.000 A 
ATOM      2  C   UNL     1      -1.408  11.088  18.083  0.00  0.00    +0.000 A 
ATOM      3  N   UNL     1      -2.614  11.680  18.528  0.00  0.00    +0.000 N 
ATOM      4  C   UNL     1      -2.676  12.382  19.721  0.00  0.00    +0.000 A 
ATOM      5  N   UNL     1      -3.579  13.249  20.049  0.00  0.00    +0.000 NA
ATOM      6  C   UNL     1      -1.524  12.251  20.647  0.00  0.00    +0.000 A 
ATOM      7  C   UNL     1      -1.676  12.760  21.939  0.00  0.00    +0.000 A 
ATOM      8 CL   UNL     1      -3.009  12.208  22.906  0.00  0.00    +0.000 Cl
ATOM      9  C   UNL     1      -0.747  13.677  22.400  0.00  0.00    +0.000 A 
ATOM     10  C   UNL     1       0.320  14.034  21.553  0.00  0.00    +0.000 A 
ATOM     11 CL   UNL     1       1.361  15.346  22.033  0.00  0.00    +0.000 Cl
ATOM     12  C   UNL     1       0.531  13.355  20.319  0.00  0.00    +0.000 A 
ATOM     13 CL   UNL     1       1.708  13.984  19.201  0.00  0.00    +0.000 Cl
ATOM     14  C   UNL     1      -0.341  12.333  19.916  0.00  0.00    +0.000 A 
ATOM     15  C   UNL     1      -3.892  11.524  17.832  0.00  0.00    +0.000 C 
ATOM     16  C   UNL     1      -3.941  10.604  16.640  0.00  0.00    +0.000 C 
ATOM     17  C   UNL     1      -2.675   9.883  16.250  0.00  0.00    +0.000 C 
ATOM     18  N   UNL     1      -1.486  10.281  16.967  0.00  0.00    +0.000 N 
ATOM     19  H   UNL     1      -4.279  13.382  19.320  0.00  0.00    +0.000 HD
ATOM     20  H   UNL     1      -0.625   9.888  16.604  0.00  0.00    +0.000 HD
ENDROOT
BRANCH   1  21
ATOM     21  C   UNL     1       1.101  10.631  18.616  0.00  0.00    +0.000 C 
ATOM     22  O   UNL     1       2.069  11.227  18.132  0.00  0.00    +0.000 OA
BRANCH  21  26
ATOM     23  C   UNL     1       2.120   6.660  19.969  0.00  0.00    +0.000 A 
ATOM     24  C   UNL     1       1.484   7.549  20.838  0.00  0.00    +0.000 A 
ATOM     25  C   UNL     1       1.143   8.848  20.428  0.00  0.00    +0.000 A 
ATOM     26  C   UNL     1       1.419   9.266  19.126  0.00  0.00    +0.000 A 
ATOM     27  C   UNL     1       2.158   8.396  18.294  0.00  0.00    +0.000 A 
ATOM     28  C   UNL     1       2.503   7.103  18.710  0.00  0.00    +0.000 A 
BRANCH  23  30
ATOM     29  C   UNL     1       1.263   4.532  20.521  0.00  0.00    +0.000 C 
ATOM     30  O   UNL     1       2.382   5.415  20.472  0.00  0.00    +0.000 OA
ENDBRANCH  23  30
ENDBRANCH  21  26
ENDBRANCH   1  21
BRANCH   9  31
ATOM     31  C   UNL     1      -0.967  14.314  23.661  0.00  0.00    +0.000 C 
ATOM     32  N   UNL     1      -1.173  14.828  24.686  0.00  0.00    +0.000 NA
ENDBRANCH   9  31
TORSDOF 4
ENDMDL
MODEL 2
REMARK VINA RESULT:      -7.1      1.174      1.546
REMARK  Name = 
REMARK  5 active torsions:
REMARK  status: ('A' for Active; 'I' for Inactive)
REMARK    1  A    between atoms: C_1  and  O_2
REMARK    2  A    between atoms: O_2  and  C_3
REMARK    3  A    between atoms: C_6  and  C_7
REMARK    4  A    between atoms: C_7  and  C_9
REMARK    5  A    between atoms: C_17  and  C_18
REMARK                            x       y       z     vdW  Elec       q    Type
REMARK                         _______ _______ _______ _____ _____    ______ ____
ROOT
ATOM      1  C   UNL     1       0.272  11.263  18.571  0.00  0.00    +0.000 A 
ATOM      2  C   UNL     1      -1.048  11.016  18.242  0.00  0.00    +0.000 A 
ATOM      3  N   UNL     1      -2.059  11.847  18.781  0.00  0.00    +0.000 N 
ATOM      4  C   UNL     1      -1.770  12.800  19.746  0.00  0.00    +0.000 A 
ATOM      5  N   UNL     1      -2.496  13.831  20.039  0.00  0.00    +0.000 NA
ATOM      6  C   UNL     1      -0.439  12.729  20.395  0.00  0.00    +0.000 A 
ATOM      7  C   UNL     1      -0.227  13.530  21.520  0.00  0.00    +0.000 A 
ATOM      8 CL   UNL     1      -1.318  13.389  22.865  0.00  0.00    +0.000 Cl
ATOM      9  C   UNL     1       0.853  14.395  21.520  0.00  0.00    +0.000 A 
ATOM     10  C   UNL     1       1.701  14.408  20.396  0.00  0.00    +0.000 A 
ATOM     11 CL   UNL     1       2.925  15.644  20.291  0.00  0.00    +0.000 Cl
ATOM     12  C   UNL     1       1.549  13.448  19.354  0.00  0.00    +0.000 A 
ATOM     13 CL   UNL     1       2.457  13.650  17.883  0.00  0.00    +0.000 Cl
ATOM     14  C   UNL     1       0.530  12.487  19.423  0.00  0.00    +0.000 A 
ATOM     15  C   UNL     1      -3.477  11.711  18.448  0.00  0.00    +0.000 C 
ATOM     16  C   UNL     1      -3.888  10.562  17.564  0.00  0.00    +0.000 C 
ATOM     17  C   UNL     1      -2.816   9.611  17.095  0.00  0.00    +0.000 C 
ATOM     18  N   UNL     1      -1.461   9.999  17.408  0.00  0.00    +0.000 N 
ATOM     19  H   UNL     1      -3.342  13.890  19.474  0.00  0.00    +0.000 HD
ATOM     20  H   UNL     1      -0.748   9.423  16.972  0.00  0.00    +0.000 HD
ENDROOT
BRANCH   1  21
ATOM     21  C   UNL     1       1.472  10.362  18.301  0.00  0.00    +0.000 C 
ATOM     22  O   UNL     1       2.412  10.767  17.607  0.00  0.00    +0.000 OA
BRANCH  21  26
ATOM     23  C   UNL     1       2.048   6.534  20.213  0.00  0.00    +0.000 A 
ATOM     24  C   UNL     1       2.453   6.718  18.889  0.00  0.00    +0.000 A 
ATOM     25  C   UNL     1       2.277   7.950  18.239  0.00  0.00    +0.000 A 
ATOM     26  C   UNL     1       1.706   9.025  18.922  0.00  0.00    +0.000 A 
ATOM     27  C   UNL     1       1.204   8.794  20.221  0.00  0.00    +0.000 A 
ATOM     28  C   UNL     1       1.376   7.560  20.863  0.00  0.00    +0.000 A 
BRANCH  23  30
ATOM     29  C   UNL     1       1.262   4.334  20.545  0.00  0.00    +0.000 C 
ATOM     30  O   UNL     1       2.293   5.299  20.747  0.00  0.00    +0.000 OA
ENDBRANCH  23  30
ENDBRANCH  21  26
ENDBRANCH   1  21
BRANCH   9  31
ATOM     31  C   UNL     1       1.001  15.321  22.599  0.00  0.00    +0.000 C 
ATOM     32  N   UNL     1       1.146  16.078  23.472  0.00  0.00    +0.000 NA
ENDBRANCH   9  31
TORSDOF 4
ENDMDL
MODEL 3
REMARK VINA RESULT:      -7.0      4.398      7.677
REMARK  Name = 
REMARK  5 active torsions:
REMARK  status: ('A' for Active; 'I' for Inactive)
REMARK    1  A    between atoms: C_1  and  O_2
REMARK    2  A    between atoms: O_2  and  C_3
REMARK    3  A    between atoms: C_6  and  C_7
REMARK    4  A    between atoms: C_7  and  C_9
REMARK    5  A    between atoms: C_17  and  C_18
REMARK                            x       y       z     vdW  Elec       q    Type
REMARK                         _______ _______ _______ _____ _____    ______ ____
ROOT
ATOM      1  C   UNL     1      -3.753  13.567  21.332  0.00  0.00    +0.000 A 
ATOM      2  C   UNL     1      -4.950  13.481  22.021  0.00  0.00    +0.000 A 
ATOM      3  N   UNL     1      -5.977  12.648  21.516  0.00  0.00    +0.000 N 
ATOM      4  C   UNL     1      -5.867  12.041  20.275  0.00  0.00    +0.000 A 
ATOM      5  N   UNL     1      -6.533  11.006  19.872  0.00  0.00    +0.000 NA
ATOM      6  C   UNL     1      -4.783  12.512  19.380  0.00  0.00    +0.000 A 
ATOM      7  C   UNL     1      -4.807  12.076  18.053  0.00  0.00    +0.000 A 
ATOM      8 CL   UNL     1      -6.236  12.358  17.105  0.00  0.00    +0.000 Cl
ATOM      9  C   UNL     1      -3.684  11.447  17.544  0.00  0.00    +0.000 A 
ATOM     10  C   UNL     1      -2.562  11.299  18.382  0.00  0.00    +0.000 A 
ATOM     11 CL   UNL     1      -1.233  10.317  17.828  0.00  0.00    +0.000 Cl
ATOM     12  C   UNL     1      -2.520  11.919  19.664  0.00  0.00    +0.000 A 
ATOM     13 CL   UNL     1      -1.225  11.514  20.753  0.00  0.00    +0.000 Cl
ATOM     14  C   UNL     1      -3.614  12.667  20.123  0.00  0.00    +0.000 A 
ATOM     15  C   UNL     1      -7.253  12.439  22.199  0.00  0.00    +0.000 C 
ATOM     16  C   UNL     1      -7.523  13.232  23.451  0.00  0.00    +0.000 C 
ATOM     17  C   UNL     1      -6.469  14.207  23.912  0.00  0.00    +0.000 C 
ATOM     18  N   UNL     1      -5.220  14.162  23.189  0.00  0.00    +0.000 N 
ATOM     19  H   UNL     1      -7.178  10.655  20.578  0.00  0.00    +0.000 HD
ATOM     20  H   UNL     1      -4.480  14.725  23.593  0.00  0.00    +0.000 HD
ENDROOT
BRANCH   1  21
ATOM     21  C   UNL     1      -2.628  14.569  21.563  0.00  0.00    +0.000 C 
ATOM     22  O   UNL     1      -2.044  14.609  22.651  0.00  0.00    +0.000 OA
BRANCH  21  26
ATOM     23  C   UNL     1      -1.012  17.269  18.606  0.00  0.00    +0.000 A 
ATOM     24  C   UNL     1      -0.355  16.069  18.884  0.00  0.00    +0.000 A 
ATOM     25  C   UNL     1      -0.855  15.172  19.843  0.00  0.00    +0.000 A 
ATOM     26  C   UNL     1      -2.038  15.462  20.523  0.00  0.00    +0.000 A 
ATOM     27  C   UNL     1      -2.632  16.725  20.311  0.00  0.00    +0.000 A 
ATOM     28  C   UNL     1      -2.125  17.620  19.358  0.00  0.00    +0.000 A 
BRANCH  23  30
ATOM     29  C   UNL     1       0.978  18.001  17.572  0.00  0.00    +0.000 C 
ATOM     30  O   UNL     1      -0.446  18.051  17.638  0.00  0.00    +0.000 OA
ENDBRANCH  23  30
ENDBRANCH  21  26
ENDBRANCH   1  21
BRANCH   9  31
ATOM     31  C   UNL     1      -3.744  10.869  16.238  0.00  0.00    +0.000 C 
ATOM     32  N   UNL     1      -3.801  10.421  15.164  0.00  0.00    +0.000 NA
ENDBRANCH   9  31
TORSDOF 4
ENDMDL
MODEL 4
REMARK VINA RESULT:      -6.9      1.208      1.402
REMARK  Name = 
REMARK  5 active torsions:
REMARK  status: ('A' for Active; 'I' for Inactive)
REMARK    1  A    between atoms: C_1  and  O_2
REMARK    2  A    between atoms: O_2  and  C_3
REMARK    3  A    between atoms: C_6  and  C_7
REMARK    4  A    between atoms: C_7  and  C_9
REMARK    5  A    between atoms: C_17  and  C_18
REMARK                            x       y       z     vdW  Elec       q    Type
REMARK                         _______ _______ _______ _____ _____    ______ ____
ROOT
ATOM      1  C   UNL     1      -1.128  12.246  19.310  0.00  0.00    +0.000 A 
ATOM      2  C   UNL     1      -2.345  11.892  18.756  0.00  0.00    +0.000 A 
ATOM      3  N   UNL     1      -3.539  12.297  19.400  0.00  0.00    +0.000 N 
ATOM      4  C   UNL     1      -3.515  12.905  20.645  0.00  0.00    +0.000 A 
ATOM      5  N   UNL     1      -4.459  13.628  21.157  0.00  0.00    +0.000 NA
ATOM      6  C   UNL     1      -2.240  12.860  21.400  0.00  0.00    +0.000 A 
ATOM      7  C   UNL     1      -2.270  13.259  22.739  0.00  0.00    +0.000 A 
ATOM      8 CL   UNL     1      -3.384  12.480  23.821  0.00  0.00    +0.000 Cl
ATOM      9  C   UNL     1      -1.399  14.253  23.150  0.00  0.00    +0.000 A 
ATOM     10  C   UNL     1      -0.507  14.796  22.205  0.00  0.00    +0.000 A 
ATOM     11 CL   UNL     1       0.432  16.194  22.654  0.00  0.00    +0.000 Cl
ATOM     12  C   UNL     1      -0.391  14.231  20.902  0.00  0.00    +0.000 A 
ATOM     13 CL   UNL     1       0.540  15.076  19.698  0.00  0.00    +0.000 Cl
ATOM     14  C   UNL     1      -1.186  13.137  20.532  0.00  0.00    +0.000 A 
ATOM     15  C   UNL     1      -4.873  12.029  18.864  0.00  0.00    +0.000 C 
ATOM     16  C   UNL     1      -4.979  11.190  17.617  0.00  0.00    +0.000 C 
ATOM     17  C   UNL     1      -3.705  10.662  17.009  0.00  0.00    +0.000 C 
ATOM     18  N   UNL     1      -2.483  11.158  17.597  0.00  0.00    +0.000 N 
ATOM     19  H   UNL     1      -5.263  13.721  20.538  0.00  0.00    +0.000 HD
ATOM     20  H   UNL     1      -1.640  10.901  17.095  0.00  0.00    +0.000 HD
ENDROOT
BRANCH   1  21
ATOM     21  C   UNL     1       0.249  11.720  18.922  0.00  0.00    +0.000 C 
ATOM     22  O   UNL     1       1.073  12.468  18.385  0.00  0.00    +0.000 OA
BRANCH  21  26
ATOM     23  C   UNL     1       1.877   7.808  19.751  0.00  0.00    +0.000 A 
ATOM     24  C   UNL     1       1.249   8.529  20.768  0.00  0.00    +0.000 A 
ATOM     25  C   UNL     1       0.712   9.805  20.530  0.00  0.00    +0.000 A 
ATOM     26  C   UNL     1       0.782  10.366  19.255  0.00  0.00    +0.000 A 
ATOM     27  C   UNL     1       1.514   9.674  18.265  0.00  0.00    +0.000 A 
ATOM     28  C   UNL     1       2.054   8.404  18.510  0.00  0.00    +0.000 A 
BRANCH  23  30
ATOM     29  C   UNL     1       3.109   5.906  19.092  0.00  0.00    +0.000 C 
ATOM     30  O   UNL     1       2.340   6.568  20.095  0.00  0.00    +0.000 OA
ENDBRANCH  23  30
ENDBRANCH  21  26
ENDBRANCH   1  21
BRANCH   9  31
ATOM     31  C   UNL     1      -1.515  14.772  24.477  0.00  0.00    +0.000 C 
ATOM     32  N   UNL     1      -1.588  15.182  25.565  0.00  0.00    +0.000 NA
ENDBRANCH   9  31
TORSDOF 4
ENDMDL
MODEL 5
REMARK VINA RESULT:      -6.9      2.010      2.770
REMARK  Name = 
REMARK  5 active torsions:
REMARK  status: ('A' for Active; 'I' for Inactive)
REMARK    1  A    between atoms: C_1  and  O_2
REMARK    2  A    between atoms: O_2  and  C_3
REMARK    3  A    between atoms: C_6  and  C_7
REMARK    4  A    between atoms: C_7  and  C_9
REMARK    5  A    between atoms: C_17  and  C_18
REMARK                            x       y       z     vdW  Elec       q    Type
REMARK                         _______ _______ _______ _____ _____    ______ ____
ROOT
ATOM      1  C   UNL     1      -2.743  12.552  19.710  0.00  0.00    +0.000 A 
ATOM      2  C   UNL     1      -4.041  12.171  19.421  0.00  0.00    +0.000 A 
ATOM      3  N   UNL     1      -5.076  12.516  20.322  0.00  0.00    +0.000 N 
ATOM      4  C   UNL     1      -4.799  13.089  21.554  0.00  0.00    +0.000 A 
ATOM      5  N   UNL     1      -5.629  13.764  22.283  0.00  0.00    +0.000 NA
ATOM      6  C   UNL     1      -3.389  13.066  22.012  0.00  0.00    +0.000 A 
ATOM      7  C   UNL     1      -3.138  13.426  23.338  0.00  0.00    +0.000 A 
ATOM      8 CL   UNL     1      -3.967  12.579  24.608  0.00  0.00    +0.000 Cl
ATOM      9  C   UNL     1      -2.226  14.438  23.585  0.00  0.00    +0.000 A 
ATOM     10  C   UNL     1      -1.578  15.039  22.489  0.00  0.00    +0.000 A 
ATOM     11 CL   UNL     1      -0.603  16.455  22.772  0.00  0.00    +0.000 Cl
ATOM     12  C   UNL     1      -1.732  14.516  21.173  0.00  0.00    +0.000 A 
ATOM     13 CL   UNL     1      -1.111  15.427  19.826  0.00  0.00    +0.000 Cl
ATOM     14  C   UNL     1      -2.558  13.405  20.946  0.00  0.00    +0.000 A 
ATOM     15  C   UNL     1      -6.488  12.216  20.080  0.00  0.00    +0.000 C 
ATOM     16  C   UNL     1      -6.840  11.410  18.857  0.00  0.00    +0.000 C 
ATOM     17  C   UNL     1      -5.714  10.944  17.969  0.00  0.00    +0.000 C 
ATOM     18  N   UNL     1      -4.408  11.466  18.295  0.00  0.00    +0.000 N 
ATOM     19  H   UNL     1      -6.551  13.846  21.857  0.00  0.00    +0.000 HD
ATOM     20  H   UNL     1      -3.688  11.253  17.613  0.00  0.00    +0.000 HD
ENDROOT
BRANCH   1  21
ATOM     21  C   UNL     1      -1.470  12.085  19.013  0.00  0.00    +0.000 C 
ATOM     22  O   UNL     1      -1.014  12.722  18.058  0.00  0.00    +0.000 OA
BRANCH  21  26
ATOM     23  C   UNL     1       1.135   8.850  20.191  0.00  0.00    +0.000 A 
ATOM     24  C   UNL     1       0.277   9.428  21.129  0.00  0.00    +0.000 A 
ATOM     25  C   UNL     1      -0.579  10.484  20.777  0.00  0.00    +0.000 A 
ATOM     26  C   UNL     1      -0.600  10.960  19.465  0.00  0.00    +0.000 A 
ATOM     27  C   UNL     1       0.347  10.440  18.556  0.00  0.00    +0.000 A 
ATOM     28  C   UNL     1       1.205   9.391  18.915  0.00  0.00    +0.000 A 
BRANCH  23  30
ATOM     29  C   UNL     1       2.362   6.911  19.638  0.00  0.00    +0.000 C 
ATOM     30  O   UNL     1       1.905   7.814  20.644  0.00  0.00    +0.000 OA
ENDBRANCH  23  30
ENDBRANCH  21  26
ENDBRANCH   1  21
BRANCH   9  31
ATOM     31  C   UNL     1      -2.064  14.915  24.924  0.00  0.00    +0.000 C 
ATOM     32  N   UNL     1      -1.916  15.284  26.019  0.00  0.00    +0.000 NA
ENDBRANCH   9  31
TORSDOF 4
ENDMDL
MODEL 6
REMARK VINA RESULT:      -6.8      3.454      4.592
REMARK  Name = 
REMARK  5 active torsions:
REMARK  status: ('A' for Active; 'I' for Inactive)
REMARK    1  A    between atoms: C_1  and  O_2
REMARK    2  A    between atoms: O_2  and  C_3
REMARK    3  A    between atoms: C_6  and  C_7
REMARK    4  A    between atoms: C_7  and  C_9
REMARK    5  A    between atoms: C_17  and  C_18
REMARK                            x       y       z     vdW  Elec       q    Type
REMARK                         _______ _______ _______ _____ _____    ______ ____
ROOT
ATOM      1  C   UNL     1      -2.111  12.012  19.354  0.00  0.00    +0.000 A 
ATOM      2  C   UNL     1      -2.628  11.535  18.163  0.00  0.00    +0.000 A 
ATOM      3  N   UNL     1      -3.984  11.794  17.848  0.00  0.00    +0.000 N 
ATOM      4  C   UNL     1      -4.839  12.378  18.769  0.00  0.00    +0.000 A 
ATOM      5  N   UNL     1      -5.951  12.983  18.498  0.00  0.00    +0.000 NA
ATOM      6  C   UNL     1      -4.371  12.461  20.174  0.00  0.00    +0.000 A 
ATOM      7  C   UNL     1      -5.307  12.831  21.143  0.00  0.00    +0.000 A 
ATOM      8 CL   UNL     1      -6.776  11.915  21.282  0.00  0.00    +0.000 Cl
ATOM      9  C   UNL     1      -5.017  13.908  21.963  0.00  0.00    +0.000 A 
ATOM     10  C   UNL     1      -3.782  14.563  21.796  0.00  0.00    +0.000 A 
ATOM     11 CL   UNL     1      -3.504  16.049  22.665  0.00  0.00    +0.000 Cl
ATOM     12  C   UNL     1      -2.788  14.039  20.920  0.00  0.00    +0.000 A 
ATOM     13 CL   UNL     1      -1.383  15.003  20.566  0.00  0.00    +0.000 Cl
ATOM     14  C   UNL     1      -3.039  12.869  20.187  0.00  0.00    +0.000 A 
ATOM     15  C   UNL     1      -4.609  11.388  16.589  0.00  0.00    +0.000 C 
ATOM     16  C   UNL     1      -3.794  10.565  15.627  0.00  0.00    +0.000 C 
ATOM     17  C   UNL     1      -2.389  10.193  16.029  0.00  0.00    +0.000 C 
ATOM     18  N   UNL     1      -1.904  10.811  17.240  0.00  0.00    +0.000 N 
ATOM     19  H   UNL     1      -6.158  12.997  17.501  0.00  0.00    +0.000 HD
ATOM     20  H   UNL     1      -0.918  10.658  17.424  0.00  0.00    +0.000 HD
ENDROOT
BRANCH   1  21
ATOM     21  C   UNL     1      -0.773  11.649  19.988  0.00  0.00    +0.000 C 
ATOM     22  O   UNL     1      -0.657  10.608  20.644  0.00  0.00    +0.000 OA
BRANCH  21  26
ATOM     23  C   UNL     1       2.886  13.818  19.250  0.00  0.00    +0.000 A 
ATOM     24  C   UNL     1       2.535  13.470  20.556  0.00  0.00    +0.000 A 
ATOM     25  C   UNL     1       1.350  12.767  20.828  0.00  0.00    +0.000 A 
ATOM     26  C   UNL     1       0.509  12.385  19.783  0.00  0.00    +0.000 A 
ATOM     27  C   UNL     1       0.820  12.836  18.482  0.00  0.00    +0.000 A 
ATOM     28  C   UNL     1       2.001  13.544  18.217  0.00  0.00    +0.000 A 
BRANCH  23  30
ATOM     29  C   UNL     1       4.205  15.241  17.906  0.00  0.00    +0.000 C 
ATOM     30  O   UNL     1       4.075  14.480  19.106  0.00  0.00    +0.000 OA
ENDBRANCH  23  30
ENDBRANCH  21  26
ENDBRANCH   1  21
BRANCH   9  31
ATOM     31  C   UNL     1      -6.021  14.388  22.860  0.00  0.00    +0.000 C 
ATOM     32  N   UNL     1      -6.821  14.786  23.608  0.00  0.00    +0.000 NA
ENDBRANCH   9  31
TORSDOF 4
ENDMDL
MODEL 7
REMARK VINA RESULT:      -6.8      8.038      9.592
REMARK  Name = 
REMARK  5 active torsions:
REMARK  status: ('A' for Active; 'I' for Inactive)
REMARK    1  A    between atoms: C_1  and  O_2
REMARK    2  A    between atoms: O_2  and  C_3
REMARK    3  A    between atoms: C_6  and  C_7
REMARK    4  A    between atoms: C_7  and  C_9
REMARK    5  A    between atoms: C_17  and  C_18
REMARK                            x       y       z     vdW  Elec       q    Type
REMARK                         _______ _______ _______ _____ _____    ______ ____
ROOT
ATOM      1  C   UNL     1       9.239  14.652  19.722  0.00  0.00    +0.000 A 
ATOM      2  C   UNL     1       9.576  15.773  18.985  0.00  0.00    +0.000 A 
ATOM      3  N   UNL     1       8.666  16.856  18.923  0.00  0.00    +0.000 N 
ATOM      4  C   UNL     1       7.390  16.756  19.455  0.00  0.00    +0.000 A 
ATOM      5  N   UNL     1       6.623  17.746  19.783  0.00  0.00    +0.000 NA
ATOM      6  C   UNL     1       6.914  15.403  19.831  0.00  0.00    +0.000 A 
ATOM      7  C   UNL     1       5.560  15.262  20.146  0.00  0.00    +0.000 A 
ATOM      8 CL   UNL     1       4.372  15.778  18.988  0.00  0.00    +0.000 Cl
ATOM      9  C   UNL     1       5.221  14.703  21.366  0.00  0.00    +0.000 A 
ATOM     10  C   UNL     1       6.258  14.281  22.221  0.00  0.00    +0.000 A 
ATOM     11 CL   UNL     1       5.852  13.786  23.842  0.00  0.00    +0.000 Cl
ATOM     12  C   UNL     1       7.613  14.280  21.780  0.00  0.00    +0.000 A 
ATOM     13 CL   UNL     1       8.875  13.981  22.941  0.00  0.00    +0.000 Cl
ATOM     14  C   UNL     1       7.937  14.727  20.491  0.00  0.00    +0.000 A 
ATOM     15  C   UNL     1       8.952  18.109  18.224  0.00  0.00    +0.000 C 
ATOM     16  C   UNL     1      10.239  18.208  17.448  0.00  0.00    +0.000 C 
ATOM     17  C   UNL     1      11.144  17.002  17.421  0.00  0.00    +0.000 C 
ATOM     18  N   UNL     1      10.759  15.916  18.291  0.00  0.00    +0.000 N 
ATOM     19  H   UNL     1       7.055  18.652  19.611  0.00  0.00    +0.000 HD
ATOM     20  H   UNL     1      11.445  15.172  18.364  0.00  0.00    +0.000 HD
ENDROOT
BRANCH   1  21
ATOM     21  C   UNL     1       9.950  13.304  19.725  0.00  0.00    +0.000 C 
ATOM     22  O   UNL     1      11.021  13.166  20.327  0.00  0.00    +0.000 OA
BRANCH  21  26
ATOM     23  C   UNL     1       8.329   9.712  17.961  0.00  0.00    +0.000 A 
ATOM     24  C   UNL     1       9.127   9.627  19.103  0.00  0.00    +0.000 A 
ATOM     25  C   UNL     1       9.671  10.777  19.698  0.00  0.00    +0.000 A 
ATOM     26  C   UNL     1       9.401  12.036  19.162  0.00  0.00    +0.000 A 
ATOM     27  C   UNL     1       8.684  12.099  17.947  0.00  0.00    +0.000 A 
ATOM     28  C   UNL     1       8.149  10.947  17.353  0.00  0.00    +0.000 A 
BRANCH  23  30
ATOM     29  C   UNL     1       8.061   7.396  18.323  0.00  0.00    +0.000 C 
ATOM     30  O   UNL     1       7.835   8.528  17.485  0.00  0.00    +0.000 OA
ENDBRANCH  23  30
ENDBRANCH  21  26
ENDBRANCH   1  21
BRANCH   9  31
ATOM     31  C   UNL     1       3.848  14.683  21.763  0.00  0.00    +0.000 C 
ATOM     32  N   UNL     1       2.736  14.654  22.109  0.00  0.00    +0.000 NA
ENDBRANCH   9  31
TORSDOF 4
ENDMDL
MODEL 8
REMARK VINA RESULT:      -6.8      3.423      5.524
REMARK  Name = 
REMARK  5 active torsions:
REMARK  status: ('A' for Active; 'I' for Inactive)
REMARK    1  A    between atoms: C_1  and  O_2
REMARK    2  A    between atoms: O_2  and  C_3
REMARK    3  A    between atoms: C_6  and  C_7
REMARK    4  A    between atoms: C_7  and  C_9
REMARK    5  A    between atoms: C_17  and  C_18
REMARK                            x       y       z     vdW  Elec       q    Type
REMARK                         _______ _______ _______ _____ _____    ______ ____
ROOT
ATOM      1  C   UNL     1      -0.336  12.537  20.774  0.00  0.00    +0.000 A 
ATOM      2  C   UNL     1       0.753  13.367  20.575  0.00  0.00    +0.000 A 
ATOM      3  N   UNL     1       0.755  14.653  21.167  0.00  0.00    +0.000 N 
ATOM      4  C   UNL     1      -0.368  15.153  21.809  0.00  0.00    +0.000 A 
ATOM      5  N   UNL     1      -0.384  16.115  22.675  0.00  0.00    +0.000 NA
ATOM      6  C   UNL     1      -1.645  14.426  21.611  0.00  0.00    +0.000 A 
ATOM      7  C   UNL     1      -2.814  15.046  22.057  0.00  0.00    +0.000 A 
ATOM      8 CL   UNL     1      -3.189  16.642  21.481  0.00  0.00    +0.000 Cl
ATOM      9  C   UNL     1      -3.635  14.354  22.932  0.00  0.00    +0.000 A 
ATOM     10  C   UNL     1      -3.263  13.050  23.310  0.00  0.00    +0.000 A 
ATOM     11 CL   UNL     1      -4.164  12.262  24.577  0.00  0.00    +0.000 Cl
ATOM     12  C   UNL     1      -2.160  12.396  22.690  0.00  0.00    +0.000 A 
ATOM     13 CL   UNL     1      -1.592  10.890  23.352  0.00  0.00    +0.000 Cl
ATOM     14  C   UNL     1      -1.409  13.056  21.706  0.00  0.00    +0.000 A 
ATOM     15  C   UNL     1       1.881  15.582  21.071  0.00  0.00    +0.000 C 
ATOM     16  C   UNL     1       3.053  15.185  20.212  0.00  0.00    +0.000 C 
ATOM     17  C   UNL     1       2.986  13.864  19.489  0.00  0.00    +0.000 C 
ATOM     18  N   UNL     1       1.860  13.026  19.828  0.00  0.00    +0.000 N 
ATOM     19  H   UNL     1       0.544  16.494  22.858  0.00  0.00    +0.000 HD
ATOM     20  H   UNL     1       1.899  12.091  19.437  0.00  0.00    +0.000 HD
ENDROOT
BRANCH   1  21
ATOM     21  C   UNL     1      -0.645  11.234  20.045  0.00  0.00    +0.000 C 
ATOM     22  O   UNL     1      -0.215  10.160  20.481  0.00  0.00    +0.000 OA
BRANCH  21  26
ATOM     23  C   UNL     1      -3.224  10.697  16.625  0.00  0.00    +0.000 A 
ATOM     24  C   UNL     1      -3.616  11.542  17.665  0.00  0.00    +0.000 A 
ATOM     25  C   UNL     1      -2.799  11.735  18.792  0.00  0.00    +0.000 A 
ATOM     26  C   UNL     1      -1.564  11.093  18.878  0.00  0.00    +0.000 A 
ATOM     27  C   UNL     1      -1.230  10.160  17.873  0.00  0.00    +0.000 A 
ATOM     28  C   UNL     1      -2.051   9.966  16.753  0.00  0.00    +0.000 A 
BRANCH  23  30
ATOM     29  C   UNL     1      -3.519  10.121  14.355  0.00  0.00    +0.000 C 
ATOM     30  O   UNL     1      -4.089  10.607  15.569  0.00  0.00    +0.000 OA
ENDBRANCH  23  30
ENDBRANCH  21  26
ENDBRANCH   1  21
BRANCH   9  31
ATOM     31  C   UNL     1      -4.757  15.027  23.508  0.00  0.00    +0.000 C 
ATOM     32  N   UNL     1      -5.687  15.564  23.959  0.00  0.00    +0.000 NA
ENDBRANCH   9  31
TORSDOF 4
ENDMDL
MODEL 9
REMARK VINA RESULT:      -6.8      2.791      3.976
REMARK  Name = 
REMARK  5 active torsions:
REMARK  status: ('A' for Active; 'I' for Inactive)
REMARK    1  A    between atoms: C_1  and  O_2
REMARK    2  A    between atoms: O_2  and  C_3
REMARK    3  A    between atoms: C_6  and  C_7
REMARK    4  A    between atoms: C_7  and  C_9
REMARK    5  A    between atoms: C_17  and  C_18
REMARK                            x       y       z     vdW  Elec       q    Type
REMARK                         _______ _______ _______ _____ _____    ______ ____
ROOT
ATOM      1  C   UNL     1      -0.241  12.298  20.009  0.00  0.00    +0.000 A 
ATOM      2  C   UNL     1       0.783  13.151  19.636  0.00  0.00    +0.000 A 
ATOM      3  N   UNL     1       0.777  14.483  20.113  0.00  0.00    +0.000 N 
ATOM      4  C   UNL     1      -0.304  14.993  20.815  0.00  0.00    +0.000 A 
ATOM      5  N   UNL     1      -0.287  16.027  21.594  0.00  0.00    +0.000 NA
ATOM      6  C   UNL     1      -1.557  14.201  20.803  0.00  0.00    +0.000 A 
ATOM      7  C   UNL     1      -2.709  14.810  21.306  0.00  0.00    +0.000 A 
ATOM      8 CL   UNL     1      -3.212  16.332  20.635  0.00  0.00    +0.000 Cl
ATOM      9  C   UNL     1      -3.411  14.168  22.311  0.00  0.00    +0.000 A 
ATOM     10  C   UNL     1      -2.942  12.919  22.762  0.00  0.00    +0.000 A 
ATOM     11 CL   UNL     1      -3.683  12.212  24.173  0.00  0.00    +0.000 Cl
ATOM     12  C   UNL     1      -1.871  12.257  22.097  0.00  0.00    +0.000 A 
ATOM     13 CL   UNL     1      -1.172  10.840  22.828  0.00  0.00    +0.000 Cl
ATOM     14  C   UNL     1      -1.247  12.856  20.993  0.00  0.00    +0.000 A 
ATOM     15  C   UNL     1       1.843  15.444  19.830  0.00  0.00    +0.000 C 
ATOM     16  C   UNL     1       2.949  15.020  18.899  0.00  0.00    +0.000 C 
ATOM     17  C   UNL     1       2.879  13.638  18.301  0.00  0.00    +0.000 C 
ATOM     18  N   UNL     1       1.832  12.789  18.817  0.00  0.00    +0.000 N 
ATOM     19  H   UNL     1       0.634  16.459  21.653  0.00  0.00    +0.000 HD
ATOM     20  H   UNL     1       1.880  11.825  18.506  0.00  0.00    +0.000 HD
ENDROOT
BRANCH   1  21
ATOM     21  C   UNL     1      -0.552  10.924  19.428  0.00  0.00    +0.000 C 
ATOM     22  O   UNL     1      -1.636  10.714  18.872  0.00  0.00    +0.000 OA
BRANCH  21  26
ATOM     23  C   UNL     1       2.270   7.682  19.020  0.00  0.00    +0.000 A 
ATOM     24  C   UNL     1       1.765   8.010  20.280  0.00  0.00    +0.000 A 
ATOM     25  C   UNL     1       0.848   9.061  20.445  0.00  0.00    +0.000 A 
ATOM     26  C   UNL     1       0.409   9.786  19.337  0.00  0.00    +0.000 A 
ATOM     27  C   UNL     1       1.009   9.516  18.087  0.00  0.00    +0.000 A 
ATOM     28  C   UNL     1       1.929   8.470  17.929  0.00  0.00    +0.000 A 
BRANCH  23  30
ATOM     29  C   UNL     1       2.762   5.564  18.103  0.00  0.00    +0.000 C 
ATOM     30  O   UNL     1       3.138   6.625  18.979  0.00  0.00    +0.000 OA
ENDBRANCH  23  30
ENDBRANCH  21  26
ENDBRANCH   1  21
BRANCH   9  31
ATOM     31  C   UNL     1      -4.506  14.844  22.934  0.00  0.00    +0.000 C 
ATOM     32  N   UNL     1      -5.383  15.400  23.462  0.00  0.00    +0.000 NA
ENDBRANCH   9  31
TORSDOF 4
ENDMDL
