MODEL 1
REMARK VINA RESULT:      -9.2      0.000      0.000
REMARK  Name = 
REMARK  5 active torsions:
REMARK  status: ('A' for Active; 'I' for Inactive)
REMARK    1  A    between atoms: C_1  and  C_2
REMARK    2  A    between atoms: C_6  and  C_7
REMARK    3  A    between atoms: N_9  and  C_10
REMARK    4  A    between atoms: C_13  and  S_14
REMARK    5  A    between atoms: S_14  and  N_17
REMARK                            x       y       z     vdW  Elec       q    Type
REMARK                         _______ _______ _______ _____ _____    ______ ____
ROOT
ATOM      1  C   UNL     1       8.967  10.344  18.782  0.00  0.00    +0.000 C 
ATOM      2  O   UNL     1       9.072   9.860  19.906  0.00  0.00    +0.000 OA
ATOM      3  N   UNL     1       8.341   9.752  17.698  0.00  0.00    +0.000 N 
ATOM      4  H   UNL     1       8.445  10.214  16.799  0.00  0.00    +0.000 HD
ENDROOT
BRANCH   1  10
ATOM      5  C   UNL     1       8.649  17.672  19.151  0.00  0.00    +0.000 C 
ATOM      6  C   UNL     1       9.403  16.450  18.709  0.00  0.00    +0.000 A 
ATOM      7  C   UNL     1       8.957  15.179  19.113  0.00  0.00    +0.000 A 
ATOM      8  C   UNL     1       9.592  14.026  18.652  0.00  0.00    +0.000 A 
ATOM      9  O   UNL     1       9.060  12.818  19.038  0.00  0.00    +0.000 OA
ATOM     10  C   UNL     1       9.603  11.670  18.483  0.00  0.00    +0.000 A 
ATOM     11  C   UNL     1      10.670  11.649  17.668  0.00  0.00    +0.000 A 
ATOM     12  C   UNL     1      11.328  12.911  17.309  0.00  0.00    +0.000 A 
ATOM     13  O   UNL     1      12.329  12.931  16.611  0.00  0.00    +0.000 OA
ATOM     14  C   UNL     1      10.696  14.137  17.811  0.00  0.00    +0.000 A 
ATOM     15  C   UNL     1      11.177  15.388  17.419  0.00  0.00    +0.000 A 
ATOM     16  C   UNL     1      10.522  16.541  17.859  0.00  0.00    +0.000 A 
ATOM     17 CL   UNL     1      11.116  18.066  17.308  0.00  0.00    +0.000 Cl
ENDBRANCH   1  10
BRANCH   3  18
ATOM     18  C   UNL     1       7.728   8.476  17.702  0.00  0.00    +0.000 A 
ATOM     19  C   UNL     1       6.577   8.189  16.963  0.00  0.00    +0.000 A 
ATOM     20  C   UNL     1       5.921   6.965  17.091  0.00  0.00    +0.000 A 
ATOM     21  C   UNL     1       6.427   5.992  17.949  0.00  0.00    +0.000 A 
ATOM     22  C   UNL     1       7.611   6.235  18.654  0.00  0.00    +0.000 A 
ATOM     23  C   UNL     1       8.269   7.469  18.514  0.00  0.00    +0.000 A 
BRANCH  21  24
ATOM     24  S   UNL     1       5.420   4.569  18.310  0.00  0.00    +0.000 S 
ATOM     25  O   UNL     1       5.455   3.731  17.126  0.00  0.00    +0.000 OA
ATOM     26  O   UNL     1       5.836   4.031  19.587  0.00  0.00    +0.000 OA
BRANCH  24  27
ATOM     27  N   UNL     1       3.858   5.144  18.396  0.00  0.00    +0.000 N 
ATOM     28  C   UNL     1       2.974   4.351  19.123  0.00  0.00    +0.000 A 
ATOM     29  N   UNL     1       2.965   4.478  20.453  0.00  0.00    +0.000 NA
ATOM     30  C   UNL     1       1.965   3.826  21.077  0.00  0.00    +0.000 A 
ATOM     31  C   UNL     1       1.028   3.056  20.424  0.00  0.00    +0.000 A 
ATOM     32  C   UNL     1       1.166   2.987  19.057  0.00  0.00    +0.000 A 
ATOM     33  N   UNL     1       2.117   3.651  18.373  0.00  0.00    +0.000 NA
ATOM     34  H   UNL     1       3.508   5.284  17.454  0.00  0.00    +0.000 HD
ENDBRANCH  24  27
ENDBRANCH  21  24
ENDBRANCH   3  18
TORSDOF 4
ENDMDL
MODEL 2
REMARK VINA RESULT:      -9.1      9.419     12.387
REMARK  Name = 
REMARK  5 active torsions:
REMARK  status: ('A' for Active; 'I' for Inactive)
REMARK    1  A    between atoms: C_1  and  C_2
REMARK    2  A    between atoms: C_6  and  C_7
REMARK    3  A    between atoms: N_9  and  C_10
REMARK    4  A    between atoms: C_13  and  S_14
REMARK    5  A    between atoms: S_14  and  N_17
REMARK                            x       y       z     vdW  Elec       q    Type
REMARK                         _______ _______ _______ _____ _____    ______ ____
ROOT
ATOM      1  C   UNL     1       0.928   9.394  21.665  0.00  0.00    +0.000 C 
ATOM      2  O   UNL     1       1.309   9.296  22.828  0.00  0.00    +0.000 OA
ATOM      3  N   UNL     1       0.008  10.312  21.186  0.00  0.00    +0.000 N 
ATOM      4  H   UNL     1      -0.306  10.190  20.228  0.00  0.00    +0.000 HD
ENDROOT
BRANCH   1  10
ATOM      5  C   UNL     1       3.388   2.658  20.080  0.00  0.00    +0.000 C 
ATOM      6  C   UNL     1       3.042   4.035  19.591  0.00  0.00    +0.000 A 
ATOM      7  C   UNL     1       2.403   4.937  20.460  0.00  0.00    +0.000 A 
ATOM      8  C   UNL     1       2.142   6.246  20.056  0.00  0.00    +0.000 A 
ATOM      9  O   UNL     1       1.572   7.088  20.983  0.00  0.00    +0.000 OA
ATOM     10  C   UNL     1       1.428   8.422  20.635  0.00  0.00    +0.000 A 
ATOM     11  C   UNL     1       1.719   8.930  19.427  0.00  0.00    +0.000 A 
ATOM     12  C   UNL     1       2.238   8.044  18.379  0.00  0.00    +0.000 A 
ATOM     13  O   UNL     1       2.468   8.457  17.253  0.00  0.00    +0.000 OA
ATOM     14  C   UNL     1       2.489   6.652  18.771  0.00  0.00    +0.000 A 
ATOM     15  C   UNL     1       3.099   5.768  17.879  0.00  0.00    +0.000 A 
ATOM     16  C   UNL     1       3.384   4.466  18.294  0.00  0.00    +0.000 A 
ATOM     17 CL   UNL     1       4.186   3.421  17.178  0.00  0.00    +0.000 Cl
ENDBRANCH   1  10
BRANCH   3  18
ATOM     18  C   UNL     1      -0.660  11.286  21.968  0.00  0.00    +0.000 A 
ATOM     19  C   UNL     1      -1.583  10.952  22.962  0.00  0.00    +0.000 A 
ATOM     20  C   UNL     1      -2.322  11.933  23.622  0.00  0.00    +0.000 A 
ATOM     21  C   UNL     1      -2.127  13.276  23.312  0.00  0.00    +0.000 A 
ATOM     22  C   UNL     1      -1.165  13.637  22.362  0.00  0.00    +0.000 A 
ATOM     23  C   UNL     1      -0.420  12.642  21.706  0.00  0.00    +0.000 A 
BRANCH  21  24
ATOM     24  S   UNL     1      -3.278  14.473  23.952  0.00  0.00    +0.000 S 
ATOM     25  O   UNL     1      -2.683  15.007  25.163  0.00  0.00    +0.000 OA
ATOM     26  O   UNL     1      -3.650  15.366  22.876  0.00  0.00    +0.000 OA
BRANCH  24  27
ATOM     27  N   UNL     1      -4.596  13.589  24.463  0.00  0.00    +0.000 N 
ATOM     28  C   UNL     1      -5.664  13.550  23.571  0.00  0.00    +0.000 A 
ATOM     29  N   UNL     1      -5.614  12.667  22.570  0.00  0.00    +0.000 NA
ATOM     30  C   UNL     1      -6.753  12.550  21.860  0.00  0.00    +0.000 A 
ATOM     31  C   UNL     1      -7.888  13.293  22.105  0.00  0.00    +0.000 A 
ATOM     32  C   UNL     1      -7.799  14.185  23.148  0.00  0.00    +0.000 A 
ATOM     33  N   UNL     1      -6.704  14.315  23.921  0.00  0.00    +0.000 NA
ATOM     34  H   UNL     1      -4.904  13.949  25.361  0.00  0.00    +0.000 HD
ENDBRANCH  24  27
ENDBRANCH  21  24
ENDBRANCH   3  18
TORSDOF 4
ENDMDL
MODEL 3
REMARK VINA RESULT:      -9.1      6.794      8.877
REMARK  Name = 
REMARK  5 active torsions:
REMARK  status: ('A' for Active; 'I' for Inactive)
REMARK    1  A    between atoms: C_1  and  C_2
REMARK    2  A    between atoms: C_6  and  C_7
REMARK    3  A    between atoms: N_9  and  C_10
REMARK    4  A    between atoms: C_13  and  S_14
REMARK    5  A    between atoms: S_14  and  N_17
REMARK                            x       y       z     vdW  Elec       q    Type
REMARK                         _______ _______ _______ _____ _____    ______ ____
ROOT
ATOM      1  C   UNL     1       0.956   9.602  19.704  0.00  0.00    +0.000 C 
ATOM      2  O   UNL     1       0.653   9.560  18.515  0.00  0.00    +0.000 OA
ATOM      3  N   UNL     1       1.626   8.615  20.407  0.00  0.00    +0.000 N 
ATOM      4  H   UNL     1       1.693   8.732  21.413  0.00  0.00    +0.000 HD
ENDROOT
BRANCH   1  10
ATOM      5  C   UNL     1      -3.899  12.599  24.329  0.00  0.00    +0.000 C 
ATOM      6  C   UNL     1      -2.626  12.749  23.545  0.00  0.00    +0.000 A 
ATOM      7  C   UNL     1      -2.083  11.630  22.889  0.00  0.00    +0.000 A 
ATOM      8  C   UNL     1      -0.946  11.759  22.091  0.00  0.00    +0.000 A 
ATOM      9  O   UNL     1      -0.510  10.634  21.430  0.00  0.00    +0.000 OA
ATOM     10  C   UNL     1       0.538  10.779  20.535  0.00  0.00    +0.000 A 
ATOM     11  C   UNL     1       1.217  11.921  20.338  0.00  0.00    +0.000 A 
ATOM     12  C   UNL     1       0.846  13.122  21.096  0.00  0.00    +0.000 A 
ATOM     13  O   UNL     1       1.470  14.165  20.981  0.00  0.00    +0.000 OA
ATOM     14  C   UNL     1      -0.328  12.999  21.969  0.00  0.00    +0.000 A 
ATOM     15  C   UNL     1      -0.830  14.121  22.633  0.00  0.00    +0.000 A 
ATOM     16  C   UNL     1      -1.985  13.995  23.409  0.00  0.00    +0.000 A 
ATOM     17 CL   UNL     1      -2.603  15.416  24.170  0.00  0.00    +0.000 Cl
ENDBRANCH   1  10
BRANCH   3  18
ATOM     18  C   UNL     1       2.063   7.380  19.869  0.00  0.00    +0.000 A 
ATOM     19  C   UNL     1       2.533   7.251  18.559  0.00  0.00    +0.000 A 
ATOM     20  C   UNL     1       2.830   6.001  18.016  0.00  0.00    +0.000 A 
ATOM     21  C   UNL     1       2.685   4.855  18.792  0.00  0.00    +0.000 A 
ATOM     22  C   UNL     1       2.274   4.965  20.125  0.00  0.00    +0.000 A 
ATOM     23  C   UNL     1       1.982   6.229  20.666  0.00  0.00    +0.000 A 
BRANCH  21  24
ATOM     24  S   UNL     1       2.789   3.267  17.993  0.00  0.00    +0.000 S 
ATOM     25  O   UNL     1       2.305   2.293  18.953  0.00  0.00    +0.000 OA
ATOM     26  O   UNL     1       2.164   3.372  16.693  0.00  0.00    +0.000 OA
BRANCH  24  27
ATOM     27  N   UNL     1       4.420   2.958  17.837  0.00  0.00    +0.000 N 
ATOM     28  C   UNL     1       5.251   4.063  18.003  0.00  0.00    +0.000 A 
ATOM     29  N   UNL     1       5.565   4.430  19.248  0.00  0.00    +0.000 NA
ATOM     30  C   UNL     1       6.515   5.381  19.336  0.00  0.00    +0.000 A 
ATOM     31  C   UNL     1       7.112   5.969  18.243  0.00  0.00    +0.000 A 
ATOM     32  C   UNL     1       6.680   5.519  17.016  0.00  0.00    +0.000 A 
ATOM     33  N   UNL     1       5.767   4.541  16.866  0.00  0.00    +0.000 NA
ATOM     34  H   UNL     1       4.586   2.529  16.932  0.00  0.00    +0.000 HD
ENDBRANCH  24  27
ENDBRANCH  21  24
ENDBRANCH   3  18
TORSDOF 4
ENDMDL
MODEL 4
REMARK VINA RESULT:      -9.0      5.539      7.483
REMARK  Name = 
REMARK  5 active torsions:
REMARK  status: ('A' for Active; 'I' for Inactive)
REMARK    1  A    between atoms: C_1  and  C_2
REMARK    2  A    between atoms: C_6  and  C_7
REMARK    3  A    between atoms: N_9  and  C_10
REMARK    4  A    between atoms: C_13  and  S_14
REMARK    5  A    between atoms: S_14  and  N_17
REMARK                            x       y       z     vdW  Elec       q    Type
REMARK                         _______ _______ _______ _____ _____    ______ ____
ROOT
ATOM      1  C   UNL     1       1.033   9.199  19.930  0.00  0.00    +0.000 C 
ATOM      2  O   UNL     1       0.530   8.633  20.896  0.00  0.00    +0.000 OA
ATOM      3  N   UNL     1       1.842   8.609  18.973  0.00  0.00    +0.000 N 
ATOM      4  H   UNL     1       2.290   9.229  18.304  0.00  0.00    +0.000 HD
ENDROOT
BRANCH   1  10
ATOM      5  C   UNL     1       3.629  15.613  17.466  0.00  0.00    +0.000 C 
ATOM      6  C   UNL     1       2.521  14.867  18.154  0.00  0.00    +0.000 A 
ATOM      7  C   UNL     1       2.558  13.462  18.198  0.00  0.00    +0.000 A 
ATOM      8  C   UNL     1       1.584  12.749  18.898  0.00  0.00    +0.000 A 
ATOM      9  O   UNL     1       1.722  11.381  18.950  0.00  0.00    +0.000 OA
ATOM     10  C   UNL     1       0.835  10.676  19.748  0.00  0.00    +0.000 A 
ATOM     11  C   UNL     1      -0.203  11.224  20.400  0.00  0.00    +0.000 A 
ATOM     12  C   UNL     1      -0.442  12.668  20.292  0.00  0.00    +0.000 A 
ATOM     13  O   UNL     1      -1.404  13.195  20.828  0.00  0.00    +0.000 OA
ATOM     14  C   UNL     1       0.551  13.434  19.531  0.00  0.00    +0.000 A 
ATOM     15  C   UNL     1       0.476  14.828  19.478  0.00  0.00    +0.000 A 
ATOM     16  C   UNL     1       1.467  15.541  18.801  0.00  0.00    +0.000 A 
ATOM     17 CL   UNL     1       1.366  17.264  18.804  0.00  0.00    +0.000 Cl
ENDBRANCH   1  10
BRANCH   3  18
ATOM     18  C   UNL     1       2.236   7.249  18.959  0.00  0.00    +0.000 A 
ATOM     19  C   UNL     1       2.977   6.668  19.992  0.00  0.00    +0.000 A 
ATOM     20  C   UNL     1       3.463   5.365  19.889  0.00  0.00    +0.000 A 
ATOM     21  C   UNL     1       3.190   4.610  18.752  0.00  0.00    +0.000 A 
ATOM     22  C   UNL     1       2.400   5.150  17.731  0.00  0.00    +0.000 A 
ATOM     23  C   UNL     1       1.909   6.462  17.845  0.00  0.00    +0.000 A 
BRANCH  21  24
ATOM     24  S   UNL     1       4.059   3.073  18.522  0.00  0.00    +0.000 S 
ATOM     25  O   UNL     1       4.706   2.775  19.786  0.00  0.00    +0.000 OA
ATOM     26  O   UNL     1       3.144   2.117  17.937  0.00  0.00    +0.000 OA
BRANCH  24  27
ATOM     27  N   UNL     1       5.299   3.421  17.463  0.00  0.00    +0.000 N 
ATOM     28  C   UNL     1       6.000   4.592  17.737  0.00  0.00    +0.000 A 
ATOM     29  N   UNL     1       6.965   4.545  18.660  0.00  0.00    +0.000 NA
ATOM     30  C   UNL     1       7.725   5.654  18.742  0.00  0.00    +0.000 A 
ATOM     31  C   UNL     1       7.527   6.777  17.968  0.00  0.00    +0.000 A 
ATOM     32  C   UNL     1       6.484   6.705  17.075  0.00  0.00    +0.000 A 
ATOM     33  N   UNL     1       5.718   5.609  16.916  0.00  0.00    +0.000 NA
ATOM     34  H   UNL     1       4.926   3.450  16.520  0.00  0.00    +0.000 HD
ENDBRANCH  24  27
ENDBRANCH  21  24
ENDBRANCH   3  18
TORSDOF 4
ENDMDL
MODEL 5
REMARK VINA RESULT:      -8.9      9.198     12.132
REMARK  Name = 
REMARK  5 active torsions:
REMARK  status: ('A' for Active; 'I' for Inactive)
REMARK    1  A    between atoms: C_1  and  C_2
REMARK    2  A    between atoms: C_6  and  C_7
REMARK    3  A    between atoms: N_9  and  C_10
REMARK    4  A    between atoms: C_13  and  S_14
REMARK    5  A    between atoms: S_14  and  N_17
REMARK                            x       y       z     vdW  Elec       q    Type
REMARK                         _______ _______ _______ _____ _____    ______ ____
ROOT
ATOM      1  C   UNL     1       1.306   9.671  19.047  0.00  0.00    +0.000 C 
ATOM      2  O   UNL     1       1.723  10.608  18.373  0.00  0.00    +0.000 OA
ATOM      3  N   UNL     1       0.303   9.738  20.000  0.00  0.00    +0.000 N 
ATOM      4  H   UNL     1       0.153   8.910  20.569  0.00  0.00    +0.000 HD
ENDROOT
BRANCH   1  10
ATOM      5  C   UNL     1       2.256   2.896  21.720  0.00  0.00    +0.000 C 
ATOM      6  C   UNL     1       2.575   3.899  20.648  0.00  0.00    +0.000 A 
ATOM      7  C   UNL     1       1.879   5.120  20.615  0.00  0.00    +0.000 A 
ATOM      8  C   UNL     1       2.211   6.100  19.679  0.00  0.00    +0.000 A 
ATOM      9  O   UNL     1       1.530   7.293  19.749  0.00  0.00    +0.000 OA
ATOM     10  C   UNL     1       1.940   8.317  18.909  0.00  0.00    +0.000 A 
ATOM     11  C   UNL     1       2.892   8.196  17.970  0.00  0.00    +0.000 A 
ATOM     12  C   UNL     1       3.576   6.909  17.797  0.00  0.00    +0.000 A 
ATOM     13  O   UNL     1       4.411   6.745  16.922  0.00  0.00    +0.000 OA
ATOM     14  C   UNL     1       3.217   5.852  18.750  0.00  0.00    +0.000 A 
ATOM     15  C   UNL     1       3.904   4.636  18.743  0.00  0.00    +0.000 A 
ATOM     16  C   UNL     1       3.590   3.668  19.699  0.00  0.00    +0.000 A 
ATOM     17 CL   UNL     1       4.498   2.199  19.688  0.00  0.00    +0.000 Cl
ENDBRANCH   1  10
BRANCH   3  18
ATOM     18  C   UNL     1      -0.401  10.911  20.366  0.00  0.00    +0.000 A 
ATOM     19  C   UNL     1      -0.227  11.541  21.601  0.00  0.00    +0.000 A 
ATOM     20  C   UNL     1      -1.029  12.615  21.986  0.00  0.00    +0.000 A 
ATOM     21  C   UNL     1      -2.009  13.094  21.121  0.00  0.00    +0.000 A 
ATOM     22  C   UNL     1      -2.161  12.517  19.855  0.00  0.00    +0.000 A 
ATOM     23  C   UNL     1      -1.344  11.439  19.473  0.00  0.00    +0.000 A 
BRANCH  21  24
ATOM     24  S   UNL     1      -3.199  14.261  21.746  0.00  0.00    +0.000 S 
ATOM     25  O   UNL     1      -3.073  14.241  23.191  0.00  0.00    +0.000 OA
ATOM     26  O   UNL     1      -3.037  15.505  21.025  0.00  0.00    +0.000 OA
BRANCH  24  27
ATOM     27  N   UNL     1      -4.689  13.586  21.425  0.00  0.00    +0.000 N 
ATOM     28  C   UNL     1      -5.621  13.690  22.454  0.00  0.00    +0.000 A 
ATOM     29  N   UNL     1      -6.300  14.834  22.572  0.00  0.00    +0.000 NA
ATOM     30  C   UNL     1      -7.311  14.804  23.462  0.00  0.00    +0.000 A 
ATOM     31  C   UNL     1      -7.624  13.701  24.227  0.00  0.00    +0.000 A 
ATOM     32  C   UNL     1      -6.830  12.595  24.027  0.00  0.00    +0.000 A 
ATOM     33  N   UNL     1      -5.835  12.552  23.122  0.00  0.00    +0.000 NA
ATOM     34  H   UNL     1      -4.559  12.613  21.168  0.00  0.00    +0.000 HD
ENDBRANCH  24  27
ENDBRANCH  21  24
ENDBRANCH   3  18
TORSDOF 4
ENDMDL
MODEL 6
REMARK VINA RESULT:      -8.9      5.695      7.656
REMARK  Name = 
REMARK  5 active torsions:
REMARK  status: ('A' for Active; 'I' for Inactive)
REMARK    1  A    between atoms: C_1  and  C_2
REMARK    2  A    between atoms: C_6  and  C_7
REMARK    3  A    between atoms: N_9  and  C_10
REMARK    4  A    between atoms: C_13  and  S_14
REMARK    5  A    between atoms: S_14  and  N_17
REMARK                            x       y       z     vdW  Elec       q    Type
REMARK                         _______ _______ _______ _____ _____    ______ ____
ROOT
ATOM      1  C   UNL     1       1.874   9.277  18.150  0.00  0.00    +0.000 C 
ATOM      2  O   UNL     1       2.491   9.106  17.103  0.00  0.00    +0.000 OA
ATOM      3  N   UNL     1       1.664   8.325  19.134  0.00  0.00    +0.000 N 
ATOM      4  H   UNL     1       1.025   8.573  19.884  0.00  0.00    +0.000 HD
ENDROOT
BRANCH   1  10
ATOM      5  C   UNL     1       2.530  16.551  18.926  0.00  0.00    +0.000 C 
ATOM      6  C   UNL     1       1.635  15.344  18.935  0.00  0.00    +0.000 A 
ATOM      7  C   UNL     1       2.145  14.102  18.518  0.00  0.00    +0.000 A 
ATOM      8  C   UNL     1       1.359  12.952  18.592  0.00  0.00    +0.000 A 
ATOM      9  O   UNL     1       1.947  11.764  18.226  0.00  0.00    +0.000 OA
ATOM     10  C   UNL     1       1.219  10.600  18.417  0.00  0.00    +0.000 A 
ATOM     11  C   UNL     1      -0.053  10.561  18.847  0.00  0.00    +0.000 A 
ATOM     12  C   UNL     1      -0.749  11.815  19.156  0.00  0.00    +0.000 A 
ATOM     13  O   UNL     1      -1.920  11.824  19.501  0.00  0.00    +0.000 OA
ATOM     14  C   UNL     1       0.049  13.042  19.052  0.00  0.00    +0.000 A 
ATOM     15  C   UNL     1      -0.492  14.269  19.445  0.00  0.00    +0.000 A 
ATOM     16  C   UNL     1       0.306  15.414  19.397  0.00  0.00    +0.000 A 
ATOM     17 CL   UNL     1      -0.383  16.900  19.942  0.00  0.00    +0.000 Cl
ENDBRANCH   1  10
BRANCH   3  18
ATOM     18  C   UNL     1       2.117   6.984  19.087  0.00  0.00    +0.000 A 
ATOM     19  C   UNL     1       2.925   6.425  20.080  0.00  0.00    +0.000 A 
ATOM     20  C   UNL     1       3.463   5.146  19.940  0.00  0.00    +0.000 A 
ATOM     21  C   UNL     1       3.177   4.393  18.805  0.00  0.00    +0.000 A 
ATOM     22  C   UNL     1       2.322   4.909  17.825  0.00  0.00    +0.000 A 
ATOM     23  C   UNL     1       1.779   6.196  17.977  0.00  0.00    +0.000 A 
BRANCH  21  24
ATOM     24  S   UNL     1       4.102   2.899  18.520  0.00  0.00    +0.000 S 
ATOM     25  O   UNL     1       4.823   2.622  19.748  0.00  0.00    +0.000 OA
ATOM     26  O   UNL     1       3.204   1.906  17.971  0.00  0.00    +0.000 OA
BRANCH  24  27
ATOM     27  N   UNL     1       5.273   3.311  17.406  0.00  0.00    +0.000 N 
ATOM     28  C   UNL     1       5.929   4.513  17.654  0.00  0.00    +0.000 A 
ATOM     29  N   UNL     1       6.938   4.508  18.530  0.00  0.00    +0.000 NA
ATOM     30  C   UNL     1       7.648   5.652  18.584  0.00  0.00    +0.000 A 
ATOM     31  C   UNL     1       7.360   6.767  17.827  0.00  0.00    +0.000 A 
ATOM     32  C   UNL     1       6.279   6.649  16.984  0.00  0.00    +0.000 A 
ATOM     33  N   UNL     1       5.560   5.519  16.854  0.00  0.00    +0.000 NA
ATOM     34  H   UNL     1       4.854   3.325  16.482  0.00  0.00    +0.000 HD
ENDBRANCH  24  27
ENDBRANCH  21  24
ENDBRANCH   3  18
TORSDOF 4
ENDMDL
MODEL 7
REMARK VINA RESULT:      -8.9      7.191      9.214
REMARK  Name = 
REMARK  5 active torsions:
REMARK  status: ('A' for Active; 'I' for Inactive)
REMARK    1  A    between atoms: C_1  and  C_2
REMARK    2  A    between atoms: C_6  and  C_7
REMARK    3  A    between atoms: N_9  and  C_10
REMARK    4  A    between atoms: C_13  and  S_14
REMARK    5  A    between atoms: S_14  and  N_17
REMARK                            x       y       z     vdW  Elec       q    Type
REMARK                         _______ _______ _______ _____ _____    ______ ____
ROOT
ATOM      1  C   UNL     1       1.147   9.878  18.368  0.00  0.00    +0.000 C 
ATOM      2  O   UNL     1       2.102  10.594  18.078  0.00  0.00    +0.000 OA
ATOM      3  N   UNL     1       1.193   8.512  18.587  0.00  0.00    +0.000 N 
ATOM      4  H   UNL     1       0.304   8.032  18.691  0.00  0.00    +0.000 HD
ENDROOT
BRANCH   1  10
ATOM      5  C   UNL     1      -3.699  13.966  22.075  0.00  0.00    +0.000 C 
ATOM      6  C   UNL     1      -3.401  13.129  20.864  0.00  0.00    +0.000 A 
ATOM      7  C   UNL     1      -2.085  12.692  20.633  0.00  0.00    +0.000 A 
ATOM      8  C   UNL     1      -1.797  11.849  19.560  0.00  0.00    +0.000 A 
ATOM      9  O   UNL     1      -0.499  11.411  19.435  0.00  0.00    +0.000 OA
ATOM     10  C   UNL     1      -0.229  10.473  18.451  0.00  0.00    +0.000 A 
ATOM     11  C   UNL     1      -1.124  10.033  17.553  0.00  0.00    +0.000 A 
ATOM     12  C   UNL     1      -2.498  10.549  17.591  0.00  0.00    +0.000 A 
ATOM     13  O   UNL     1      -3.328  10.211  16.761  0.00  0.00    +0.000 OA
ATOM     14  C   UNL     1      -2.815  11.465  18.693  0.00  0.00    +0.000 A 
ATOM     15  C   UNL     1      -4.126  11.909  18.883  0.00  0.00    +0.000 A 
ATOM     16  C   UNL     1      -4.418  12.730  19.974  0.00  0.00    +0.000 A 
ATOM     17 CL   UNL     1      -6.059  13.213  20.204  0.00  0.00    +0.000 Cl
ENDBRANCH   1  10
BRANCH   3  18
ATOM     18  C   UNL     1       2.355   7.707  18.498  0.00  0.00    +0.000 A 
ATOM     19  C   UNL     1       3.171   7.681  17.364  0.00  0.00    +0.000 A 
ATOM     20  C   UNL     1       4.231   6.782  17.255  0.00  0.00    +0.000 A 
ATOM     21  C   UNL     1       4.507   5.904  18.299  0.00  0.00    +0.000 A 
ATOM     22  C   UNL     1       3.741   5.952  19.469  0.00  0.00    +0.000 A 
ATOM     23  C   UNL     1       2.678   6.866  19.574  0.00  0.00    +0.000 A 
BRANCH  21  24
ATOM     24  S   UNL     1       5.667   4.584  18.017  0.00  0.00    +0.000 S 
ATOM     25  O   UNL     1       6.543   5.028  16.950  0.00  0.00    +0.000 OA
ATOM     26  O   UNL     1       6.226   4.190  19.293  0.00  0.00    +0.000 OA
BRANCH  24  27
ATOM     27  N   UNL     1       4.770   3.341  17.361  0.00  0.00    +0.000 N 
ATOM     28  C   UNL     1       3.496   3.181  17.900  0.00  0.00    +0.000 A 
ATOM     29  N   UNL     1       2.518   3.966  17.441  0.00  0.00    +0.000 NA
ATOM     30  C   UNL     1       1.282   3.637  17.863  0.00  0.00    +0.000 A 
ATOM     31  C   UNL     1       1.020   2.595  18.726  0.00  0.00    +0.000 A 
ATOM     32  C   UNL     1       2.119   1.881  19.145  0.00  0.00    +0.000 A 
ATOM     33  N   UNL     1       3.372   2.135  18.723  0.00  0.00    +0.000 NA
ATOM     34  H   UNL     1       5.296   2.477  17.447  0.00  0.00    +0.000 HD
ENDBRANCH  24  27
ENDBRANCH  21  24
ENDBRANCH   3  18
TORSDOF 4
ENDMDL
MODEL 8
REMARK VINA RESULT:      -8.9      7.993      9.410
REMARK  Name = 
REMARK  5 active torsions:
REMARK  status: ('A' for Active; 'I' for Inactive)
REMARK    1  A    between atoms: C_1  and  C_2
REMARK    2  A    between atoms: C_6  and  C_7
REMARK    3  A    between atoms: N_9  and  C_10
REMARK    4  A    between atoms: C_13  and  S_14
REMARK    5  A    between atoms: S_14  and  N_17
REMARK                            x       y       z     vdW  Elec       q    Type
REMARK                         _______ _______ _______ _____ _____    ______ ____
ROOT
ATOM      1  C   UNL     1       0.536  10.675  21.116  0.00  0.00    +0.000 C 
ATOM      2  O   UNL     1       1.496  10.564  21.873  0.00  0.00    +0.000 OA
ATOM      3  N   UNL     1       0.316   9.932  19.968  0.00  0.00    +0.000 N 
ATOM      4  H   UNL     1      -0.454  10.222  19.373  0.00  0.00    +0.000 HD
ENDROOT
BRANCH   1  10
ATOM      5  C   UNL     1      -2.147  15.843  25.591  0.00  0.00    +0.000 C 
ATOM      6  C   UNL     1      -2.262  15.099  24.291  0.00  0.00    +0.000 A 
ATOM      7  C   UNL     1      -1.231  14.226  23.902  0.00  0.00    +0.000 A 
ATOM      8  C   UNL     1      -1.349  13.464  22.740  0.00  0.00    +0.000 A 
ATOM      9  O   UNL     1      -0.330  12.585  22.457  0.00  0.00    +0.000 OA
ATOM     10  C   UNL     1      -0.497  11.732  21.377  0.00  0.00    +0.000 A 
ATOM     11  C   UNL     1      -1.540  11.769  20.533  0.00  0.00    +0.000 A 
ATOM     12  C   UNL     1      -2.603  12.759  20.743  0.00  0.00    +0.000 A 
ATOM     13  O   UNL     1      -3.543  12.857  19.970  0.00  0.00    +0.000 OA
ATOM     14  C   UNL     1      -2.482  13.595  21.943  0.00  0.00    +0.000 A 
ATOM     15  C   UNL     1      -3.507  14.478  22.292  0.00  0.00    +0.000 A 
ATOM     16  C   UNL     1      -3.400  15.218  23.471  0.00  0.00    +0.000 A 
ATOM     17 CL   UNL     1      -4.713  16.258  23.893  0.00  0.00    +0.000 Cl
ENDBRANCH   1  10
BRANCH   3  18
ATOM     18  C   UNL     1       1.176   8.925  19.467  0.00  0.00    +0.000 A 
ATOM     19  C   UNL     1       1.570   7.821  20.228  0.00  0.00    +0.000 A 
ATOM     20  C   UNL     1       2.521   6.917  19.755  0.00  0.00    +0.000 A 
ATOM     21  C   UNL     1       3.078   7.094  18.492  0.00  0.00    +0.000 A 
ATOM     22  C   UNL     1       2.655   8.159  17.688  0.00  0.00    +0.000 A 
ATOM     23  C   UNL     1       1.691   9.061  18.170  0.00  0.00    +0.000 A 
BRANCH  21  24
ATOM     24  S   UNL     1       4.487   6.105  18.037  0.00  0.00    +0.000 S 
ATOM     25  O   UNL     1       5.298   6.926  17.158  0.00  0.00    +0.000 OA
ATOM     26  O   UNL     1       5.063   5.554  19.245  0.00  0.00    +0.000 OA
BRANCH  24  27
ATOM     27  N   UNL     1       3.880   4.891  17.070  0.00  0.00    +0.000 N 
ATOM     28  C   UNL     1       3.167   3.901  17.739  0.00  0.00    +0.000 A 
ATOM     29  N   UNL     1       1.886   4.140  18.032  0.00  0.00    +0.000 NA
ATOM     30  C   UNL     1       1.205   3.079  18.508  0.00  0.00    +0.000 A 
ATOM     31  C   UNL     1       1.769   1.838  18.715  0.00  0.00    +0.000 A 
ATOM     32  C   UNL     1       3.104   1.732  18.396  0.00  0.00    +0.000 A 
ATOM     33  N   UNL     1       3.824   2.744  17.877  0.00  0.00    +0.000 NA
ATOM     34  H   UNL     1       4.645   4.477  16.546  0.00  0.00    +0.000 HD
ENDBRANCH  24  27
ENDBRANCH  21  24
ENDBRANCH   3  18
TORSDOF 4
ENDMDL
MODEL 9
REMARK VINA RESULT:      -8.9      7.261      9.087
REMARK  Name = 
REMARK  5 active torsions:
REMARK  status: ('A' for Active; 'I' for Inactive)
REMARK    1  A    between atoms: C_1  and  C_2
REMARK    2  A    between atoms: C_6  and  C_7
REMARK    3  A    between atoms: N_9  and  C_10
REMARK    4  A    between atoms: C_13  and  S_14
REMARK    5  A    between atoms: S_14  and  N_17
REMARK                            x       y       z     vdW  Elec       q    Type
REMARK                         _______ _______ _______ _____ _____    ______ ____
ROOT
ATOM      1  C   UNL     1       0.966   9.179  20.670  0.00  0.00    +0.000 C 
ATOM      2  O   UNL     1       1.505   8.891  21.736  0.00  0.00    +0.000 OA
ATOM      3  N   UNL     1       1.233   8.597  19.442  0.00  0.00    +0.000 N 
ATOM      4  H   UNL     1       0.804   9.026  18.627  0.00  0.00    +0.000 HD
ENDROOT
BRANCH   1  10
ATOM      5  C   UNL     1      -3.965  13.318  24.203  0.00  0.00    +0.000 C 
ATOM      6  C   UNL     1      -3.266  12.992  22.915  0.00  0.00    +0.000 A 
ATOM      7  C   UNL     1      -2.189  12.088  22.923  0.00  0.00    +0.000 A 
ATOM      8  C   UNL     1      -1.573  11.708  21.731  0.00  0.00    +0.000 A 
ATOM      9  O   UNL     1      -0.569  10.771  21.812  0.00  0.00    +0.000 OA
ATOM     10  C   UNL     1      -0.040  10.292  20.624  0.00  0.00    +0.000 A 
ATOM     11  C   UNL     1      -0.373  10.744  19.405  0.00  0.00    +0.000 A 
ATOM     12  C   UNL     1      -1.372  11.812  19.280  0.00  0.00    +0.000 A 
ATOM     13  O   UNL     1      -1.666  12.285  18.193  0.00  0.00    +0.000 OA
ATOM     14  C   UNL     1      -2.009  12.253  20.527  0.00  0.00    +0.000 A 
ATOM     15  C   UNL     1      -3.058  13.175  20.494  0.00  0.00    +0.000 A 
ATOM     16  C   UNL     1      -3.691  13.532  21.686  0.00  0.00    +0.000 A 
ATOM     17 CL   UNL     1      -5.017  14.634  21.595  0.00  0.00    +0.000 Cl
ENDBRANCH   1  10
BRANCH   3  18
ATOM     18  C   UNL     1       2.189   7.579  19.208  0.00  0.00    +0.000 A 
ATOM     19  C   UNL     1       2.474   6.582  20.145  0.00  0.00    +0.000 A 
ATOM     20  C   UNL     1       3.512   5.673  19.942  0.00  0.00    +0.000 A 
ATOM     21  C   UNL     1       4.269   5.734  18.776  0.00  0.00    +0.000 A 
ATOM     22  C   UNL     1       3.963   6.685  17.796  0.00  0.00    +0.000 A 
ATOM     23  C   UNL     1       2.912   7.594  18.007  0.00  0.00    +0.000 A 
BRANCH  21  24
ATOM     24  S   UNL     1       5.757   4.761  18.676  0.00  0.00    +0.000 S 
ATOM     25  O   UNL     1       6.177   4.795  17.288  0.00  0.00    +0.000 OA
ATOM     26  O   UNL     1       6.661   5.207  19.714  0.00  0.00    +0.000 OA
BRANCH  24  27
ATOM     27  N   UNL     1       5.276   3.189  18.952  0.00  0.00    +0.000 N 
ATOM     28  C   UNL     1       3.903   2.968  18.881  0.00  0.00    +0.000 A 
ATOM     29  N   UNL     1       3.358   2.794  17.674  0.00  0.00    +0.000 NA
ATOM     30  C   UNL     1       2.070   2.400  17.686  0.00  0.00    +0.000 A 
ATOM     31  C   UNL     1       1.337   2.214  18.838  0.00  0.00    +0.000 A 
ATOM     32  C   UNL     1       2.010   2.452  20.014  0.00  0.00    +0.000 A 
ATOM     33  N   UNL     1       3.308   2.804  20.067  0.00  0.00    +0.000 NA
ATOM     34  H   UNL     1       5.631   2.892  19.856  0.00  0.00    +0.000 HD
ENDBRANCH  24  27
ENDBRANCH  21  24
ENDBRANCH   3  18
TORSDOF 4
ENDMDL
