MODEL 1
REMARK VINA RESULT:      -7.1      0.000      0.000
REMARK  Name = 
REMARK  9 active torsions:
REMARK  status: ('A' for Active; 'I' for Inactive)
REMARK    1  A    between atoms: C_2  and  C_3
REMARK    2  A    between atoms: C_3  and  C_4
REMARK    3  A    between atoms: C_3  and  C_6
REMARK    4  A    between atoms: C_3  and  N_8
REMARK    5  A    between atoms: C_4  and  C_5
REMARK    6  A    between atoms: C_6  and  C_7
REMARK    7  A    between atoms: N_8  and  C_9
REMARK    8  A    between atoms: N_18  and  C_19
REMARK    9  A    between atoms: C_22  and  C_23
REMARK                            x       y       z     vdW  Elec       q    Type
REMARK                         _______ _______ _______ _____ _____    ______ ____
ROOT
ATOM      1  C   UNL     1       4.066   4.712  17.961  0.00  0.00    +0.000 A 
ATOM      2  C   UNL     1       4.415   3.503  18.604  0.00  0.00    +0.000 A 
ATOM      3  C   UNL     1       3.852   3.114  19.801  0.00  0.00    +0.000 A 
ATOM      4  N   UNL     1       3.009   3.857  20.509  0.00  0.00    +0.000 NA
ATOM      5  C   UNL     1       2.761   5.063  19.971  0.00  0.00    +0.000 A 
ATOM      6  S   UNL     1       1.771   6.119  20.862  0.00  0.00    +0.000 S 
ATOM      7  C   UNL     1       1.929   7.313  19.689  0.00  0.00    +0.000 A 
ATOM      8  C   UNL     1       1.340   8.608  19.846  0.00  0.00    +0.000 A 
ATOM      9  O   UNL     1       0.714   8.949  20.854  0.00  0.00    +0.000 OA
ATOM     10  N   UNL     1       1.616   9.449  18.767  0.00  0.00    +0.000 N 
ATOM     11  C   UNL     1       2.393   8.990  17.706  0.00  0.00    +0.000 A 
ATOM     12  N   UNL     1       2.929   7.814  17.550  0.00  0.00    +0.000 NA
ATOM     13  C   UNL     1       2.692   6.923  18.617  0.00  0.00    +0.000 A 
ATOM     14  C   UNL     1       3.223   5.580  18.746  0.00  0.00    +0.000 A 
ENDROOT
BRANCH  10  15
ATOM     15  C   UNL     1       1.123  10.792  18.795  0.00  0.00    +0.000 A 
ATOM     16  C   UNL     1      -0.236  11.057  18.598  0.00  0.00    +0.000 A 
ATOM     17  C   UNL     1      -0.701  12.378  18.555  0.00  0.00    +0.000 A 
ATOM     18  C   UNL     1       0.175  13.451  18.745  0.00  0.00    +0.000 A 
ATOM     19  C   UNL     1      -0.309  14.870  18.690  0.00  0.00    +0.000 C 
ATOM     20  C   UNL     1       1.534  13.187  18.947  0.00  0.00    +0.000 A 
ATOM     21  C   UNL     1       2.003  11.872  18.960  0.00  0.00    +0.000 A 
ENDBRANCH  10  15
BRANCH   1  22
ATOM     22  N   UNL     1       4.556   4.998  16.659  0.00  0.00    +0.000 N 
ATOM     23  H   UNL     1       4.088   4.418  15.962  0.00  0.00    +0.000 HD
BRANCH  22  24
ATOM     24  C   UNL     1       6.005   5.306  16.360  0.00  0.00    +0.000 C 
BRANCH  24  26
ATOM     25  C   UNL     1       6.613   7.834  17.460  0.00  0.00    +0.000 C 
ATOM     26  C   UNL     1       6.332   6.666  16.952  0.00  0.00    +0.000 C 
ENDBRANCH  24  26
BRANCH  24  27
ATOM     27  C   UNL     1       6.244   5.338  14.821  0.00  0.00    +0.000 C 
ATOM     28  C   UNL     1       5.773   4.107  14.057  0.00  0.00    +0.000 C 
ENDBRANCH  24  27
BRANCH  24  29
ATOM     29  C   UNL     1       6.957   4.258  17.000  0.00  0.00    +0.000 C 
ATOM     30  C   UNL     1       7.805   4.737  18.175  0.00  0.00    +0.000 C 
ENDBRANCH  24  29
ENDBRANCH  22  24
ENDBRANCH   1  22
TORSDOF 6
ENDMDL
MODEL 2
REMARK VINA RESULT:      -7.0      0.748      1.186
REMARK  Name = 
REMARK  9 active torsions:
REMARK  status: ('A' for Active; 'I' for Inactive)
REMARK    1  A    between atoms: C_2  and  C_3
REMARK    2  A    between atoms: C_3  and  C_4
REMARK    3  A    between atoms: C_3  and  C_6
REMARK    4  A    between atoms: C_3  and  N_8
REMARK    5  A    between atoms: C_4  and  C_5
REMARK    6  A    between atoms: C_6  and  C_7
REMARK    7  A    between atoms: N_8  and  C_9
REMARK    8  A    between atoms: N_18  and  C_19
REMARK    9  A    between atoms: C_22  and  C_23
REMARK                            x       y       z     vdW  Elec       q    Type
REMARK                         _______ _______ _______ _____ _____    ______ ____
ROOT
ATOM      1  C   UNL     1       3.619   5.356  18.155  0.00  0.00    +0.000 A 
ATOM      2  C   UNL     1       3.901   4.153  18.840  0.00  0.00    +0.000 A 
ATOM      3  C   UNL     1       3.321   3.841  20.051  0.00  0.00    +0.000 A 
ATOM      4  N   UNL     1       2.524   4.655  20.733  0.00  0.00    +0.000 NA
ATOM      5  C   UNL     1       2.343   5.854  20.152  0.00  0.00    +0.000 A 
ATOM      6  S   UNL     1       1.418   6.996  21.005  0.00  0.00    +0.000 S 
ATOM      7  C   UNL     1       1.640   8.135  19.789  0.00  0.00    +0.000 A 
ATOM      8  C   UNL     1       1.127   9.466  19.900  0.00  0.00    +0.000 A 
ATOM      9  O   UNL     1       0.524   9.880  20.896  0.00  0.00    +0.000 OA
ATOM     10  N   UNL     1       1.446  10.251  18.790  0.00  0.00    +0.000 N 
ATOM     11  C   UNL     1       2.192   9.710  17.746  0.00  0.00    +0.000 A 
ATOM     12  N   UNL     1       2.659   8.501  17.632  0.00  0.00    +0.000 NA
ATOM     13  C   UNL     1       2.376   7.664  18.731  0.00  0.00    +0.000 A 
ATOM     14  C   UNL     1       2.830   6.298  18.908  0.00  0.00    +0.000 A 
ENDROOT
BRANCH  10  15
ATOM     15  C   UNL     1       1.031  11.620  18.770  0.00  0.00    +0.000 A 
ATOM     16  C   UNL     1       1.926  12.641  19.109  0.00  0.00    +0.000 A 
ATOM     17  C   UNL     1       1.495  13.973  19.157  0.00  0.00    +0.000 A 
ATOM     18  C   UNL     1       0.177  14.311  18.832  0.00  0.00    +0.000 A 
ATOM     19  C   UNL     1      -0.299  15.733  18.892  0.00  0.00    +0.000 C 
ATOM     20  C   UNL     1      -0.717  13.292  18.489  0.00  0.00    +0.000 A 
ATOM     21  C   UNL     1      -0.297  11.960  18.470  0.00  0.00    +0.000 A 
ENDBRANCH  10  15
BRANCH   1  22
ATOM     22  N   UNL     1       4.121   5.566  16.842  0.00  0.00    +0.000 N 
ATOM     23  H   UNL     1       3.492   5.163  16.147  0.00  0.00    +0.000 HD
BRANCH  22  24
ATOM     24  C   UNL     1       5.587   5.498  16.486  0.00  0.00    +0.000 C 
BRANCH  24  26
ATOM     25  C   UNL     1       6.835   7.842  17.445  0.00  0.00    +0.000 C 
ATOM     26  C   UNL     1       6.258   6.759  17.003  0.00  0.00    +0.000 C 
ENDBRANCH  24  26
BRANCH  24  27
ATOM     27  C   UNL     1       5.766   5.410  14.942  0.00  0.00    +0.000 C 
ATOM     28  C   UNL     1       6.111   4.029  14.397  0.00  0.00    +0.000 C 
ENDBRANCH  24  27
BRANCH  24  29
ATOM     29  C   UNL     1       6.281   4.276  17.148  0.00  0.00    +0.000 C 
ATOM     30  C   UNL     1       7.664   4.518  17.744  0.00  0.00    +0.000 C 
ENDBRANCH  24  29
ENDBRANCH  22  24
ENDBRANCH   1  22
TORSDOF 6
ENDMDL
MODEL 3
REMARK VINA RESULT:      -7.0      3.014      8.734
REMARK  Name = 
REMARK  9 active torsions:
REMARK  status: ('A' for Active; 'I' for Inactive)
REMARK    1  A    between atoms: C_2  and  C_3
REMARK    2  A    between atoms: C_3  and  C_4
REMARK    3  A    between atoms: C_3  and  C_6
REMARK    4  A    between atoms: C_3  and  N_8
REMARK    5  A    between atoms: C_4  and  C_5
REMARK    6  A    between atoms: C_6  and  C_7
REMARK    7  A    between atoms: N_8  and  C_9
REMARK    8  A    between atoms: N_18  and  C_19
REMARK    9  A    between atoms: C_22  and  C_23
REMARK                            x       y       z     vdW  Elec       q    Type
REMARK                         _______ _______ _______ _____ _____    ______ ____
ROOT
ATOM      1  C   UNL     1      -2.248  12.013  19.169  0.00  0.00    +0.000 A 
ATOM      2  C   UNL     1      -3.041  12.659  20.143  0.00  0.00    +0.000 A 
ATOM      3  C   UNL     1      -2.743  12.611  21.488  0.00  0.00    +0.000 A 
ATOM      4  N   UNL     1      -1.754  11.896  22.012  0.00  0.00    +0.000 NA
ATOM      5  C   UNL     1      -1.063  11.178  21.110  0.00  0.00    +0.000 A 
ATOM      6  S   UNL     1       0.157  10.156  21.704  0.00  0.00    +0.000 S 
ATOM      7  C   UNL     1       0.513   9.620  20.151  0.00  0.00    +0.000 A 
ATOM      8  C   UNL     1       1.498   8.611  19.909  0.00  0.00    +0.000 A 
ATOM      9  O   UNL     1       2.123   8.043  20.810  0.00  0.00    +0.000 OA
ATOM     10  N   UNL     1       1.616   8.300  18.553  0.00  0.00    +0.000 N 
ATOM     11  C   UNL     1       0.813   8.949  17.618  0.00  0.00    +0.000 A 
ATOM     12  N   UNL     1      -0.082   9.871  17.825  0.00  0.00    +0.000 NA
ATOM     13  C   UNL     1      -0.251  10.219  19.181  0.00  0.00    +0.000 A 
ATOM     14  C   UNL     1      -1.222  11.157  19.711  0.00  0.00    +0.000 A 
ENDROOT
BRANCH  10  15
ATOM     15  C   UNL     1       2.537   7.281  18.155  0.00  0.00    +0.000 A 
ATOM     16  C   UNL     1       3.768   7.617  17.581  0.00  0.00    +0.000 A 
ATOM     17  C   UNL     1       4.635   6.614  17.128  0.00  0.00    +0.000 A 
ATOM     18  C   UNL     1       4.306   5.263  17.274  0.00  0.00    +0.000 A 
ATOM     19  C   UNL     1       5.222   4.181  16.782  0.00  0.00    +0.000 C 
ATOM     20  C   UNL     1       3.078   4.925  17.853  0.00  0.00    +0.000 A 
ATOM     21  C   UNL     1       2.199   5.924  18.277  0.00  0.00    +0.000 A 
ENDBRANCH  10  15
BRANCH   1  22
ATOM     22  N   UNL     1      -2.506  12.215  17.786  0.00  0.00    +0.000 N 
ATOM     23  H   UNL     1      -2.541  13.211  17.568  0.00  0.00    +0.000 HD
BRANCH  22  24
ATOM     24  C   UNL     1      -3.447  11.354  16.978  0.00  0.00    +0.000 C 
BRANCH  24  26
ATOM     25  C   UNL     1      -3.818   8.918  18.357  0.00  0.00    +0.000 C 
ATOM     26  C   UNL     1      -3.646  10.043  17.720  0.00  0.00    +0.000 C 
ENDBRANCH  24  26
BRANCH  24  27
ATOM     27  C   UNL     1      -2.842  11.067  15.571  0.00  0.00    +0.000 C 
ATOM     28  C   UNL     1      -3.617  10.073  14.713  0.00  0.00    +0.000 C 
ENDBRANCH  24  27
BRANCH  24  29
ATOM     29  C   UNL     1      -4.836  12.027  16.806  0.00  0.00    +0.000 C 
ATOM     30  C   UNL     1      -5.876  11.728  17.881  0.00  0.00    +0.000 C 
ENDBRANCH  24  29
ENDBRANCH  22  24
ENDBRANCH   1  22
TORSDOF 6
ENDMDL
MODEL 4
REMARK VINA RESULT:      -7.0      0.889      1.963
REMARK  Name = 
REMARK  9 active torsions:
REMARK  status: ('A' for Active; 'I' for Inactive)
REMARK    1  A    between atoms: C_2  and  C_3
REMARK    2  A    between atoms: C_3  and  C_4
REMARK    3  A    between atoms: C_3  and  C_6
REMARK    4  A    between atoms: C_3  and  N_8
REMARK    5  A    between atoms: C_4  and  C_5
REMARK    6  A    between atoms: C_6  and  C_7
REMARK    7  A    between atoms: N_8  and  C_9
REMARK    8  A    between atoms: N_18  and  C_19
REMARK    9  A    between atoms: C_22  and  C_23
REMARK                            x       y       z     vdW  Elec       q    Type
REMARK                         _______ _______ _______ _____ _____    ______ ____
ROOT
ATOM      1  C   UNL     1       3.417   5.204  18.514  0.00  0.00    +0.000 A 
ATOM      2  C   UNL     1       3.618   4.017  19.253  0.00  0.00    +0.000 A 
ATOM      3  C   UNL     1       2.960   3.765  20.438  0.00  0.00    +0.000 A 
ATOM      4  N   UNL     1       2.155   4.628  21.047  0.00  0.00    +0.000 NA
ATOM      5  C   UNL     1       2.049   5.811  20.418  0.00  0.00    +0.000 A 
ATOM      6  S   UNL     1       1.117   7.011  21.179  0.00  0.00    +0.000 S 
ATOM      7  C   UNL     1       1.446   8.101  19.942  0.00  0.00    +0.000 A 
ATOM      8  C   UNL     1       0.973   9.451  19.981  0.00  0.00    +0.000 A 
ATOM      9  O   UNL     1       0.330   9.917  20.926  0.00  0.00    +0.000 OA
ATOM     10  N   UNL     1       1.381  10.187  18.867  0.00  0.00    +0.000 N 
ATOM     11  C   UNL     1       2.167   9.587  17.885  0.00  0.00    +0.000 A 
ATOM     12  N   UNL     1       2.597   8.360  17.837  0.00  0.00    +0.000 NA
ATOM     13  C   UNL     1       2.224   7.570  18.944  0.00  0.00    +0.000 A 
ATOM     14  C   UNL     1       2.620   6.197  19.191  0.00  0.00    +0.000 A 
ENDROOT
BRANCH  10  15
ATOM     15  C   UNL     1       1.016  11.567  18.779  0.00  0.00    +0.000 A 
ATOM     16  C   UNL     1       1.978  12.570  18.940  0.00  0.00    +0.000 A 
ATOM     17  C   UNL     1       1.602  13.920  18.925  0.00  0.00    +0.000 A 
ATOM     18  C   UNL     1       0.270  14.290  18.711  0.00  0.00    +0.000 A 
ATOM     19  C   UNL     1      -0.146  15.731  18.705  0.00  0.00    +0.000 C 
ATOM     20  C   UNL     1      -0.692  13.287  18.545  0.00  0.00    +0.000 A 
ATOM     21  C   UNL     1      -0.323  11.941  18.590  0.00  0.00    +0.000 A 
ENDBRANCH  10  15
BRANCH   1  22
ATOM     22  N   UNL     1       3.999   5.353  17.226  0.00  0.00    +0.000 N 
ATOM     23  H   UNL     1       3.582   4.699  16.565  0.00  0.00    +0.000 HD
BRANCH  22  24
ATOM     24  C   UNL     1       5.465   5.639  16.999  0.00  0.00    +0.000 C 
BRANCH  24  26
ATOM     25  C   UNL     1       6.130   4.799  14.387  0.00  0.00    +0.000 C 
ATOM     26  C   UNL     1       5.823   5.187  15.594  0.00  0.00    +0.000 C 
ENDBRANCH  24  26
BRANCH  24  27
ATOM     27  C   UNL     1       6.333   4.860  18.032  0.00  0.00    +0.000 C 
ATOM     28  C   UNL     1       7.692   4.389  17.525  0.00  0.00    +0.000 C 
ENDBRANCH  24  27
BRANCH  24  29
ATOM     29  C   UNL     1       5.778   7.156  17.114  0.00  0.00    +0.000 C 
ATOM     30  C   UNL     1       7.236   7.534  17.358  0.00  0.00    +0.000 C 
ENDBRANCH  24  29
ENDBRANCH  22  24
ENDBRANCH   1  22
TORSDOF 6
ENDMDL
MODEL 5
REMARK VINA RESULT:      -7.0      2.340      8.384
REMARK  Name = 
REMARK  9 active torsions:
REMARK  status: ('A' for Active; 'I' for Inactive)
REMARK    1  A    between atoms: C_2  and  C_3
REMARK    2  A    between atoms: C_3  and  C_4
REMARK    3  A    between atoms: C_3  and  C_6
REMARK    4  A    between atoms: C_3  and  N_8
REMARK    5  A    between atoms: C_4  and  C_5
REMARK    6  A    between atoms: C_6  and  C_7
REMARK    7  A    between atoms: N_8  and  C_9
REMARK    8  A    between atoms: N_18  and  C_19
REMARK    9  A    between atoms: C_22  and  C_23
REMARK                            x       y       z     vdW  Elec       q    Type
REMARK                         _______ _______ _______ _____ _____    ______ ____
ROOT
ATOM      1  C   UNL     1      -0.585  12.336  20.607  0.00  0.00    +0.000 A 
ATOM      2  C   UNL     1      -1.408  12.807  21.654  0.00  0.00    +0.000 A 
ATOM      3  C   UNL     1      -1.514  12.149  22.861  0.00  0.00    +0.000 A 
ATOM      4  N   UNL     1      -0.942  10.982  23.132  0.00  0.00    +0.000 NA
ATOM      5  C   UNL     1      -0.253  10.460  22.102  0.00  0.00    +0.000 A 
ATOM      6  S   UNL     1       0.430   8.921  22.328  0.00  0.00    +0.000 S 
ATOM      7  C   UNL     1       1.037   8.922  20.761  0.00  0.00    +0.000 A 
ATOM      8  C   UNL     1       1.737   7.796  20.222  0.00  0.00    +0.000 A 
ATOM      9  O   UNL     1       1.911   6.744  20.846  0.00  0.00    +0.000 OA
ATOM     10  N   UNL     1       2.132   8.001  18.899  0.00  0.00    +0.000 N 
ATOM     11  C   UNL     1       1.825   9.200  18.259  0.00  0.00    +0.000 A 
ATOM     12  N   UNL     1       1.196  10.232  18.740  0.00  0.00    +0.000 NA
ATOM     13  C   UNL     1       0.762  10.077  20.073  0.00  0.00    +0.000 A 
ATOM     14  C   UNL     1      -0.021  11.029  20.836  0.00  0.00    +0.000 A 
ENDROOT
BRANCH  10  15
ATOM     15  C   UNL     1       2.812   6.948  18.210  0.00  0.00    +0.000 A 
ATOM     16  C   UNL     1       2.294   5.649  18.204  0.00  0.00    +0.000 A 
ATOM     17  C   UNL     1       3.001   4.607  17.589  0.00  0.00    +0.000 A 
ATOM     18  C   UNL     1       4.214   4.852  16.938  0.00  0.00    +0.000 A 
ATOM     19  C   UNL     1       4.986   3.743  16.286  0.00  0.00    +0.000 C 
ATOM     20  C   UNL     1       4.731   6.152  16.939  0.00  0.00    +0.000 A 
ATOM     21  C   UNL     1       4.042   7.185  17.578  0.00  0.00    +0.000 A 
ENDBRANCH  10  15
BRANCH   1  22
ATOM     22  N   UNL     1      -0.389  13.125  19.441  0.00  0.00    +0.000 N 
ATOM     23  H   UNL     1      -0.577  12.579  18.601  0.00  0.00    +0.000 HD
BRANCH  22  24
ATOM     24  C   UNL     1       0.712  14.149  19.301  0.00  0.00    +0.000 C 
BRANCH  24  26
ATOM     25  C   UNL     1      -0.442  16.566  18.407  0.00  0.00    +0.000 C 
ATOM     26  C   UNL     1       0.091  15.449  18.819  0.00  0.00    +0.000 C 
ENDBRANCH  24  26
BRANCH  24  27
ATOM     27  C   UNL     1       1.771  13.666  18.266  0.00  0.00    +0.000 C 
ATOM     28  C   UNL     1       2.992  14.564  18.107  0.00  0.00    +0.000 C 
ENDBRANCH  24  27
BRANCH  24  29
ATOM     29  C   UNL     1       1.416  14.424  20.658  0.00  0.00    +0.000 C 
ATOM     30  C   UNL     1       1.261  15.828  21.234  0.00  0.00    +0.000 C 
ENDBRANCH  24  29
ENDBRANCH  22  24
ENDBRANCH   1  22
TORSDOF 6
ENDMDL
MODEL 6
REMARK VINA RESULT:      -7.0      0.320      1.609
REMARK  Name = 
REMARK  9 active torsions:
REMARK  status: ('A' for Active; 'I' for Inactive)
REMARK    1  A    between atoms: C_2  and  C_3
REMARK    2  A    between atoms: C_3  and  C_4
REMARK    3  A    between atoms: C_3  and  C_6
REMARK    4  A    between atoms: C_3  and  N_8
REMARK    5  A    between atoms: C_4  and  C_5
REMARK    6  A    between atoms: C_6  and  C_7
REMARK    7  A    between atoms: N_8  and  C_9
REMARK    8  A    between atoms: N_18  and  C_19
REMARK    9  A    between atoms: C_22  and  C_23
REMARK                            x       y       z     vdW  Elec       q    Type
REMARK                         _______ _______ _______ _____ _____    ______ ____
ROOT
ATOM      1  C   UNL     1       4.082   4.502  17.947  0.00  0.00    +0.000 A 
ATOM      2  C   UNL     1       4.472   3.306  18.589  0.00  0.00    +0.000 A 
ATOM      3  C   UNL     1       3.961   2.925  19.812  0.00  0.00    +0.000 A 
ATOM      4  N   UNL     1       3.138   3.667  20.545  0.00  0.00    +0.000 NA
ATOM      5  C   UNL     1       2.854   4.863  20.002  0.00  0.00    +0.000 A 
ATOM      6  S   UNL     1       1.887   5.918  20.919  0.00  0.00    +0.000 S 
ATOM      7  C   UNL     1       1.984   7.099  19.726  0.00  0.00    +0.000 A 
ATOM      8  C   UNL     1       1.386   8.389  19.891  0.00  0.00    +0.000 A 
ATOM      9  O   UNL     1       0.796   8.736  20.919  0.00  0.00    +0.000 OA
ATOM     10  N   UNL     1       1.608   9.220  18.792  0.00  0.00    +0.000 N 
ATOM     11  C   UNL     1       2.348   8.756  17.707  0.00  0.00    +0.000 A 
ATOM     12  N   UNL     1       2.892   7.585  17.543  0.00  0.00    +0.000 NA
ATOM     13  C   UNL     1       2.708   6.705  18.629  0.00  0.00    +0.000 A 
ATOM     14  C   UNL     1       3.261   5.370  18.754  0.00  0.00    +0.000 A 
ENDROOT
BRANCH  10  15
ATOM     15  C   UNL     1       1.100  10.557  18.823  0.00  0.00    +0.000 A 
ATOM     16  C   UNL     1      -0.259  10.808  18.608  0.00  0.00    +0.000 A 
ATOM     17  C   UNL     1      -0.738  12.125  18.569  0.00  0.00    +0.000 A 
ATOM     18  C   UNL     1       0.123  13.206  18.780  0.00  0.00    +0.000 A 
ATOM     19  C   UNL     1      -0.375  14.620  18.729  0.00  0.00    +0.000 C 
ATOM     20  C   UNL     1       1.482  12.956  19.000  0.00  0.00    +0.000 A 
ATOM     21  C   UNL     1       1.966  11.645  19.009  0.00  0.00    +0.000 A 
ENDBRANCH  10  15
BRANCH   1  22
ATOM     22  N   UNL     1       4.518   4.778  16.622  0.00  0.00    +0.000 N 
ATOM     23  H   UNL     1       4.283   4.006  15.998  0.00  0.00    +0.000 HD
BRANCH  22  24
ATOM     24  C   UNL     1       5.812   5.486  16.298  0.00  0.00    +0.000 C 
BRANCH  24  26
ATOM     25  C   UNL     1       7.870   4.308  17.830  0.00  0.00    +0.000 C 
ATOM     26  C   UNL     1       6.918   4.852  17.123  0.00  0.00    +0.000 C 
ENDBRANCH  24  26
BRANCH  24  27
ATOM     27  C   UNL     1       5.703   6.999  16.652  0.00  0.00    +0.000 C 
ATOM     28  C   UNL     1       6.931   7.608  17.318  0.00  0.00    +0.000 C 
ENDBRANCH  24  27
BRANCH  24  29
ATOM     29  C   UNL     1       6.184   5.341  14.797  0.00  0.00    +0.000 C 
ATOM     30  C   UNL     1       6.197   3.923  14.233  0.00  0.00    +0.000 C 
ENDBRANCH  24  29
ENDBRANCH  22  24
ENDBRANCH   1  22
TORSDOF 6
ENDMDL
MODEL 7
REMARK VINA RESULT:      -7.0      7.217      9.503
REMARK  Name = 
REMARK  9 active torsions:
REMARK  status: ('A' for Active; 'I' for Inactive)
REMARK    1  A    between atoms: C_2  and  C_3
REMARK    2  A    between atoms: C_3  and  C_4
REMARK    3  A    between atoms: C_3  and  C_6
REMARK    4  A    between atoms: C_3  and  N_8
REMARK    5  A    between atoms: C_4  and  C_5
REMARK    6  A    between atoms: C_6  and  C_7
REMARK    7  A    between atoms: N_8  and  C_9
REMARK    8  A    between atoms: N_18  and  C_19
REMARK    9  A    between atoms: C_22  and  C_23
REMARK                            x       y       z     vdW  Elec       q    Type
REMARK                         _______ _______ _______ _____ _____    ______ ____
ROOT
ATOM      1  C   UNL     1      10.153  14.715  17.863  0.00  0.00    +0.000 A 
ATOM      2  C   UNL     1      11.467  15.231  17.814  0.00  0.00    +0.000 A 
ATOM      3  C   UNL     1      11.800  16.453  18.358  0.00  0.00    +0.000 A 
ATOM      4  N   UNL     1      10.928  17.299  18.893  0.00  0.00    +0.000 NA
ATOM      5  C   UNL     1       9.653  16.875  18.837  0.00  0.00    +0.000 A 
ATOM      6  S   UNL     1       8.458  17.938  19.410  0.00  0.00    +0.000 S 
ATOM      7  C   UNL     1       7.246  16.839  19.025  0.00  0.00    +0.000 A 
ATOM      8  C   UNL     1       5.861  17.147  19.210  0.00  0.00    +0.000 A 
ATOM      9  O   UNL     1       5.459  18.239  19.625  0.00  0.00    +0.000 OA
ATOM     10  N   UNL     1       5.027  16.104  18.804  0.00  0.00    +0.000 N 
ATOM     11  C   UNL     1       5.577  14.936  18.281  0.00  0.00    +0.000 A 
ATOM     12  N   UNL     1       6.834  14.642  18.114  0.00  0.00    +0.000 NA
ATOM     13  C   UNL     1       7.725  15.665  18.498  0.00  0.00    +0.000 A 
ATOM     14  C   UNL     1       9.168  15.644  18.357  0.00  0.00    +0.000 A 
ENDROOT
BRANCH  10  15
ATOM     15  C   UNL     1       3.610  16.277  18.894  0.00  0.00    +0.000 A 
ATOM     16  C   UNL     1       2.909  15.836  20.022  0.00  0.00    +0.000 A 
ATOM     17  C   UNL     1       1.513  15.943  20.074  0.00  0.00    +0.000 A 
ATOM     18  C   UNL     1       0.799  16.525  19.021  0.00  0.00    +0.000 A 
ATOM     19  C   UNL     1      -0.696  16.634  19.061  0.00  0.00    +0.000 C 
ATOM     20  C   UNL     1       1.500  16.971  17.895  0.00  0.00    +0.000 A 
ATOM     21  C   UNL     1       2.889  16.837  17.829  0.00  0.00    +0.000 A 
ENDBRANCH  10  15
BRANCH   1  22
ATOM     22  N   UNL     1       9.889  13.388  17.427  0.00  0.00    +0.000 N 
ATOM     23  H   UNL     1       9.083  13.369  16.801  0.00  0.00    +0.000 HD
BRANCH  22  24
ATOM     24  C   UNL     1      10.037  12.172  18.310  0.00  0.00    +0.000 C 
BRANCH  24  26
ATOM     25  C   UNL     1       9.454  12.935  20.965  0.00  0.00    +0.000 C 
ATOM     26  C   UNL     1       9.722  12.583  19.738  0.00  0.00    +0.000 C 
ENDBRANCH  24  26
BRANCH  24  27
ATOM     27  C   UNL     1      11.493  11.625  18.236  0.00  0.00    +0.000 C 
ATOM     28  C   UNL     1      12.333  11.821  19.492  0.00  0.00    +0.000 C 
ENDBRANCH  24  27
BRANCH  24  29
ATOM     29  C   UNL     1       9.049  11.045  17.903  0.00  0.00    +0.000 C 
ATOM     30  C   UNL     1       8.956   9.848  18.845  0.00  0.00    +0.000 C 
ENDBRANCH  24  29
ENDBRANCH  22  24
ENDBRANCH   1  22
TORSDOF 6
ENDMDL
MODEL 8
REMARK VINA RESULT:      -7.0      3.059      8.784
REMARK  Name = 
REMARK  9 active torsions:
REMARK  status: ('A' for Active; 'I' for Inactive)
REMARK    1  A    between atoms: C_2  and  C_3
REMARK    2  A    between atoms: C_3  and  C_4
REMARK    3  A    between atoms: C_3  and  C_6
REMARK    4  A    between atoms: C_3  and  N_8
REMARK    5  A    between atoms: C_4  and  C_5
REMARK    6  A    between atoms: C_6  and  C_7
REMARK    7  A    between atoms: N_8  and  C_9
REMARK    8  A    between atoms: N_18  and  C_19
REMARK    9  A    between atoms: C_22  and  C_23
REMARK                            x       y       z     vdW  Elec       q    Type
REMARK                         _______ _______ _______ _____ _____    ______ ____
ROOT
ATOM      1  C   UNL     1      -2.288  12.021  19.252  0.00  0.00    +0.000 A 
ATOM      2  C   UNL     1      -3.056  12.665  20.247  0.00  0.00    +0.000 A 
ATOM      3  C   UNL     1      -2.720  12.620  21.583  0.00  0.00    +0.000 A 
ATOM      4  N   UNL     1      -1.714  11.908  22.080  0.00  0.00    +0.000 NA
ATOM      5  C   UNL     1      -1.047  11.192  21.159  0.00  0.00    +0.000 A 
ATOM      6  S   UNL     1       0.193  10.174  21.720  0.00  0.00    +0.000 S 
ATOM      7  C   UNL     1       0.507   9.638  20.158  0.00  0.00    +0.000 A 
ATOM      8  C   UNL     1       1.489   8.631  19.889  0.00  0.00    +0.000 A 
ATOM      9  O   UNL     1       2.141   8.067  20.774  0.00  0.00    +0.000 OA
ATOM     10  N   UNL     1       1.569   8.320  18.531  0.00  0.00    +0.000 N 
ATOM     11  C   UNL     1       0.738   8.965  17.618  0.00  0.00    +0.000 A 
ATOM     12  N   UNL     1      -0.153   9.885  17.850  0.00  0.00    +0.000 NA
ATOM     13  C   UNL     1      -0.286  10.234  19.210  0.00  0.00    +0.000 A 
ATOM     14  C   UNL     1      -1.244  11.169  19.766  0.00  0.00    +0.000 A 
ENDROOT
BRANCH  10  15
ATOM     15  C   UNL     1       2.482   7.303  18.108  0.00  0.00    +0.000 A 
ATOM     16  C   UNL     1       2.169   5.950  18.276  0.00  0.00    +0.000 A 
ATOM     17  C   UNL     1       3.098   4.960  17.926  0.00  0.00    +0.000 A 
ATOM     18  C   UNL     1       4.334   5.303  17.370  0.00  0.00    +0.000 A 
ATOM     19  C   UNL     1       5.341   4.252  17.004  0.00  0.00    +0.000 C 
ATOM     20  C   UNL     1       4.646   6.656  17.198  0.00  0.00    +0.000 A 
ATOM     21  C   UNL     1       3.734   7.644  17.574  0.00  0.00    +0.000 A 
ENDBRANCH  10  15
BRANCH   1  22
ATOM     22  N   UNL     1      -2.585  12.221  17.876  0.00  0.00    +0.000 N 
ATOM     23  H   UNL     1      -2.608  13.216  17.654  0.00  0.00    +0.000 HD
BRANCH  22  24
ATOM     24  C   UNL     1      -3.568  11.374  17.102  0.00  0.00    +0.000 C 
BRANCH  24  26
ATOM     25  C   UNL     1      -6.065  12.692  17.112  0.00  0.00    +0.000 C 
ATOM     26  C   UNL     1      -4.911  12.083  17.107  0.00  0.00    +0.000 C 
ENDBRANCH  24  26
BRANCH  24  27
ATOM     27  C   UNL     1      -3.717   9.974  17.769  0.00  0.00    +0.000 C 
ATOM     28  C   UNL     1      -5.057   9.709  18.445  0.00  0.00    +0.000 C 
ENDBRANCH  24  27
BRANCH  24  29
ATOM     29  C   UNL     1      -3.124  11.189  15.625  0.00  0.00    +0.000 C 
ATOM     30  C   UNL     1      -2.915   9.753  15.152  0.00  0.00    +0.000 C 
ENDBRANCH  24  29
ENDBRANCH  22  24
ENDBRANCH   1  22
TORSDOF 6
ENDMDL
MODEL 9
REMARK VINA RESULT:      -6.9      0.722      1.900
REMARK  Name = 
REMARK  9 active torsions:
REMARK  status: ('A' for Active; 'I' for Inactive)
REMARK    1  A    between atoms: C_2  and  C_3
REMARK    2  A    between atoms: C_3  and  C_4
REMARK    3  A    between atoms: C_3  and  C_6
REMARK    4  A    between atoms: C_3  and  N_8
REMARK    5  A    between atoms: C_4  and  C_5
REMARK    6  A    between atoms: C_6  and  C_7
REMARK    7  A    between atoms: N_8  and  C_9
REMARK    8  A    between atoms: N_18  and  C_19
REMARK    9  A    between atoms: C_22  and  C_23
REMARK                            x       y       z     vdW  Elec       q    Type
REMARK                         _______ _______ _______ _____ _____    ______ ____
ROOT
ATOM      1  C   UNL     1       3.937   4.103  18.097  0.00  0.00    +0.000 A 
ATOM      2  C   UNL     1       4.302   2.915  18.768  0.00  0.00    +0.000 A 
ATOM      3  C   UNL     1       3.813   2.593  20.016  0.00  0.00    +0.000 A 
ATOM      4  N   UNL     1       3.039   3.386  20.746  0.00  0.00    +0.000 NA
ATOM      5  C   UNL     1       2.781   4.575  20.172  0.00  0.00    +0.000 A 
ATOM      6  S   UNL     1       1.879   5.693  21.079  0.00  0.00    +0.000 S 
ATOM      7  C   UNL     1       1.983   6.830  19.845  0.00  0.00    +0.000 A 
ATOM      8  C   UNL     1       1.436   8.145  19.983  0.00  0.00    +0.000 A 
ATOM      9  O   UNL     1       0.888   8.546  21.015  0.00  0.00    +0.000 OA
ATOM     10  N   UNL     1       1.655   8.932  18.851  0.00  0.00    +0.000 N 
ATOM     11  C   UNL     1       2.348   8.407  17.762  0.00  0.00    +0.000 A 
ATOM     12  N   UNL     1       2.845   7.212  17.623  0.00  0.00    +0.000 NA
ATOM     13  C   UNL     1       2.662   6.374  18.743  0.00  0.00    +0.000 A 
ATOM     14  C   UNL     1       3.170   5.025  18.897  0.00  0.00    +0.000 A 
ENDROOT
BRANCH  10  15
ATOM     15  C   UNL     1       1.197  10.287  18.852  0.00  0.00    +0.000 A 
ATOM     16  C   UNL     1      -0.160  10.580  19.031  0.00  0.00    +0.000 A 
ATOM     17  C   UNL     1      -0.613  11.904  18.959  0.00  0.00    +0.000 A 
ATOM     18  C   UNL     1       0.282  12.956  18.746  0.00  0.00    +0.000 A 
ATOM     19  C   UNL     1      -0.194  14.376  18.655  0.00  0.00    +0.000 C 
ATOM     20  C   UNL     1       1.639  12.665  18.571  0.00  0.00    +0.000 A 
ATOM     21  C   UNL     1       2.088  11.343  18.612  0.00  0.00    +0.000 A 
ENDBRANCH  10  15
BRANCH   1  22
ATOM     22  N   UNL     1       4.344   4.319  16.752  0.00  0.00    +0.000 N 
ATOM     23  H   UNL     1       3.968   3.595  16.141  0.00  0.00    +0.000 HD
BRANCH  22  24
ATOM     24  C   UNL     1       5.711   4.831  16.365  0.00  0.00    +0.000 C 
BRANCH  24  26
ATOM     25  C   UNL     1       6.319   3.851  13.788  0.00  0.00    +0.000 C 
ATOM     26  C   UNL     1       6.039   4.304  14.978  0.00  0.00    +0.000 C 
ENDBRANCH  24  26
BRANCH  24  27
ATOM     27  C   UNL     1       6.783   4.330  17.378  0.00  0.00    +0.000 C 
ATOM     28  C   UNL     1       7.509   5.419  18.159  0.00  0.00    +0.000 C 
ENDBRANCH  24  27
BRANCH  24  29
ATOM     29  C   UNL     1       5.748   6.383  16.313  0.00  0.00    +0.000 C 
ATOM     30  C   UNL     1       4.977   7.045  15.175  0.00  0.00    +0.000 C 
ENDBRANCH  24  29
ENDBRANCH  22  24
ENDBRANCH   1  22
TORSDOF 6
ENDMDL
