MODEL 1
REMARK VINA RESULT:      -7.3      0.000      0.000
REMARK  Name = 
REMARK  6 active torsions:
REMARK  status: ('A' for Active; 'I' for Inactive)
REMARK    1  A    between atoms: C_1  and  C_2
REMARK    2  A    between atoms: C_2  and  C_3
REMARK    3  A    between atoms: C_8  and  N_9
REMARK    4  A    between atoms: N_12  and  C_13
REMARK    5  A    between atoms: C_13  and  C_14
REMARK    6  A    between atoms: C_13  and  C_15
REMARK                            x       y       z     vdW  Elec       q    Type
REMARK                         _______ _______ _______ _____ _____    ______ ____
ROOT
ATOM      1  N   UNL     1       3.382   4.601  17.599  0.00  0.00    +0.000 N 
ATOM      2  C   UNL     1       4.760   4.564  17.536  0.00  0.00    +0.000 C 
ATOM      3  O   UNL     1       5.525   4.228  18.431  0.00  0.00    +0.000 OA
ATOM      4  N   UNL     1       5.220   4.988  16.309  0.00  0.00    +0.000 N 
ATOM      5  H   UNL     1       2.939   5.148  16.881  0.00  0.00    +0.000 HD
ATOM      6  H   UNL     1       4.574   5.046  15.539  0.00  0.00    +0.000 HD
ENDROOT
BRANCH   1  12
ATOM      7  C   UNL     1       2.021   4.969  19.609  0.00  0.00    +0.000 A 
ATOM      8  C   UNL     1       1.163   4.453  20.605  0.00  0.00    +0.000 A 
ATOM      9  C   UNL     1       0.855   3.097  20.649  0.00  0.00    +0.000 A 
ATOM     10  C   UNL     1       1.396   2.237  19.708  0.00  0.00    +0.000 A 
ATOM     11  C   UNL     1       2.230   2.734  18.703  0.00  0.00    +0.000 A 
ATOM     12  C   UNL     1       2.557   4.096  18.634  0.00  0.00    +0.000 A 
BRANCH   7  14
ATOM     13  C   UNL     1       1.586   7.105  20.828  0.00  0.00    +0.000 C 
ATOM     14  C   UNL     1       2.403   6.429  19.734  0.00  0.00    +0.000 C 
ENDBRANCH   7  14
ENDBRANCH   1  12
BRANCH   4  15
ATOM     15  C   UNL     1       6.647   5.012  15.990  0.00  0.00    +0.000 C 
ATOM     16  C   UNL     1       7.247   6.336  16.474  0.00  0.00    +0.000 C 
BRANCH  15  17
ATOM     17  C   UNL     1       6.829   4.719  14.504  0.00  0.00    +0.000 A 
ATOM     18  C   UNL     1       7.737   5.404  13.683  0.00  0.00    +0.000 A 
ATOM     19  C   UNL     1       7.807   5.138  12.313  0.00  0.00    +0.000 A 
ATOM     20  C   UNL     1       6.975   4.180  11.740  0.00  0.00    +0.000 A 
ATOM     21  C   UNL     1       6.090   3.465  12.541  0.00  0.00    +0.000 A 
ATOM     22  C   UNL     1       6.026   3.724  13.912  0.00  0.00    +0.000 A 
ENDBRANCH  15  17
ENDBRANCH   4  15
TORSDOF 4
ENDMDL
MODEL 2
REMARK VINA RESULT:      -7.3      0.622      2.415
REMARK  Name = 
REMARK  6 active torsions:
REMARK  status: ('A' for Active; 'I' for Inactive)
REMARK    1  A    between atoms: C_1  and  C_2
REMARK    2  A    between atoms: C_2  and  C_3
REMARK    3  A    between atoms: C_8  and  N_9
REMARK    4  A    between atoms: N_12  and  C_13
REMARK    5  A    between atoms: C_13  and  C_14
REMARK    6  A    between atoms: C_13  and  C_15
REMARK                            x       y       z     vdW  Elec       q    Type
REMARK                         _______ _______ _______ _____ _____    ______ ____
ROOT
ATOM      1  N   UNL     1       3.413   4.939  17.731  0.00  0.00    +0.000 N 
ATOM      2  C   UNL     1       4.778   4.774  17.611  0.00  0.00    +0.000 C 
ATOM      3  O   UNL     1       5.541   4.340  18.466  0.00  0.00    +0.000 OA
ATOM      4  N   UNL     1       5.230   5.191  16.379  0.00  0.00    +0.000 N 
ATOM      5  H   UNL     1       2.997   5.547  17.047  0.00  0.00    +0.000 HD
ATOM      6  H   UNL     1       4.563   5.333  15.638  0.00  0.00    +0.000 HD
ENDROOT
BRANCH   1  12
ATOM      7  C   UNL     1       2.219   3.118  18.866  0.00  0.00    +0.000 A 
ATOM      8  C   UNL     1       1.430   2.675  19.949  0.00  0.00    +0.000 A 
ATOM      9  C   UNL     1       0.990   3.564  20.924  0.00  0.00    +0.000 A 
ATOM     10  C   UNL     1       1.329   4.904  20.834  0.00  0.00    +0.000 A 
ATOM     11  C   UNL     1       2.126   5.357  19.781  0.00  0.00    +0.000 A 
ATOM     12  C   UNL     1       2.583   4.482  18.784  0.00  0.00    +0.000 A 
BRANCH   7  14
ATOM     13  C   UNL     1       3.710   1.231  18.193  0.00  0.00    +0.000 C 
ATOM     14  C   UNL     1       2.525   2.099  17.788  0.00  0.00    +0.000 C 
ENDBRANCH   7  14
ENDBRANCH   1  12
BRANCH   4  15
ATOM     15  C   UNL     1       6.639   5.091  16.003  0.00  0.00    +0.000 C 
ATOM     16  C   UNL     1       7.367   6.366  16.442  0.00  0.00    +0.000 C 
BRANCH  15  17
ATOM     17  C   UNL     1       6.735   4.765  14.516  0.00  0.00    +0.000 A 
ATOM     18  C   UNL     1       5.963   3.778  13.887  0.00  0.00    +0.000 A 
ATOM     19  C   UNL     1       6.147   3.477  12.534  0.00  0.00    +0.000 A 
ATOM     20  C   UNL     1       7.102   4.160  11.787  0.00  0.00    +0.000 A 
ATOM     21  C   UNL     1       7.856   5.167  12.382  0.00  0.00    +0.000 A 
ATOM     22  C   UNL     1       7.666   5.474  13.731  0.00  0.00    +0.000 A 
ENDBRANCH  15  17
ENDBRANCH   4  15
TORSDOF 4
ENDMDL
MODEL 3
REMARK VINA RESULT:      -7.3      0.225      1.099
REMARK  Name = 
REMARK  6 active torsions:
REMARK  status: ('A' for Active; 'I' for Inactive)
REMARK    1  A    between atoms: C_1  and  C_2
REMARK    2  A    between atoms: C_2  and  C_3
REMARK    3  A    between atoms: C_8  and  N_9
REMARK    4  A    between atoms: N_12  and  C_13
REMARK    5  A    between atoms: C_13  and  C_14
REMARK    6  A    between atoms: C_13  and  C_15
REMARK                            x       y       z     vdW  Elec       q    Type
REMARK                         _______ _______ _______ _____ _____    ______ ____
ROOT
ATOM      1  N   UNL     1       3.471   4.554  17.812  0.00  0.00    +0.000 N 
ATOM      2  C   UNL     1       4.841   4.460  17.671  0.00  0.00    +0.000 C 
ATOM      3  O   UNL     1       5.637   4.067  18.514  0.00  0.00    +0.000 OA
ATOM      4  N   UNL     1       5.251   4.897  16.431  0.00  0.00    +0.000 N 
ATOM      5  H   UNL     1       3.014   5.139  17.133  0.00  0.00    +0.000 HD
ATOM      6  H   UNL     1       4.567   5.003  15.700  0.00  0.00    +0.000 HD
ENDROOT
BRANCH   1  12
ATOM      7  C   UNL     1       2.071   4.949  19.790  0.00  0.00    +0.000 A 
ATOM      8  C   UNL     1       1.251   4.436  20.817  0.00  0.00    +0.000 A 
ATOM      9  C   UNL     1       1.051   3.066  20.955  0.00  0.00    +0.000 A 
ATOM     10  C   UNL     1       1.665   2.190  20.075  0.00  0.00    +0.000 A 
ATOM     11  C   UNL     1       2.464   2.681  19.040  0.00  0.00    +0.000 A 
ATOM     12  C   UNL     1       2.682   4.058  18.878  0.00  0.00    +0.000 A 
BRANCH   7  14
ATOM     13  C   UNL     1       1.470   7.121  20.867  0.00  0.00    +0.000 C 
ATOM     14  C   UNL     1       2.335   6.441  19.814  0.00  0.00    +0.000 C 
ENDBRANCH   7  14
ENDBRANCH   1  12
BRANCH   4  15
ATOM     15  C   UNL     1       6.658   4.868  16.034  0.00  0.00    +0.000 C 
ATOM     16  C   UNL     1       7.348   6.140  16.538  0.00  0.00    +0.000 C 
BRANCH  15  17
ATOM     17  C   UNL     1       6.745   4.633  14.530  0.00  0.00    +0.000 A 
ATOM     18  C   UNL     1       5.961   3.693  13.845  0.00  0.00    +0.000 A 
ATOM     19  C   UNL     1       6.136   3.473  12.476  0.00  0.00    +0.000 A 
ATOM     20  C   UNL     1       7.095   4.191  11.767  0.00  0.00    +0.000 A 
ATOM     21  C   UNL     1       7.861   5.152  12.419  0.00  0.00    +0.000 A 
ATOM     22  C   UNL     1       7.680   5.378  13.785  0.00  0.00    +0.000 A 
ENDBRANCH  15  17
ENDBRANCH   4  15
TORSDOF 4
ENDMDL
MODEL 4
REMARK VINA RESULT:      -7.3      0.768      2.219
REMARK  Name = 
REMARK  6 active torsions:
REMARK  status: ('A' for Active; 'I' for Inactive)
REMARK    1  A    between atoms: C_1  and  C_2
REMARK    2  A    between atoms: C_2  and  C_3
REMARK    3  A    between atoms: C_8  and  N_9
REMARK    4  A    between atoms: N_12  and  C_13
REMARK    5  A    between atoms: C_13  and  C_14
REMARK    6  A    between atoms: C_13  and  C_15
REMARK                            x       y       z     vdW  Elec       q    Type
REMARK                         _______ _______ _______ _____ _____    ______ ____
ROOT
ATOM      1  N   UNL     1       3.604   4.847  18.076  0.00  0.00    +0.000 N 
ATOM      2  C   UNL     1       4.970   4.727  17.927  0.00  0.00    +0.000 C 
ATOM      3  O   UNL     1       5.756   4.251  18.737  0.00  0.00    +0.000 OA
ATOM      4  N   UNL     1       5.393   5.242  16.721  0.00  0.00    +0.000 N 
ATOM      5  H   UNL     1       3.162   5.492  17.443  0.00  0.00    +0.000 HD
ATOM      6  H   UNL     1       4.712   5.421  16.002  0.00  0.00    +0.000 HD
ENDROOT
BRANCH   1  12
ATOM      7  C   UNL     1       2.408   2.937  19.052  0.00  0.00    +0.000 A 
ATOM      8  C   UNL     1       1.647   2.394  20.110  0.00  0.00    +0.000 A 
ATOM      9  C   UNL     1       1.264   3.181  21.191  0.00  0.00    +0.000 A 
ATOM     10  C   UNL     1       1.631   4.516  21.234  0.00  0.00    +0.000 A 
ATOM     11  C   UNL     1       2.401   5.065  20.207  0.00  0.00    +0.000 A 
ATOM     12  C   UNL     1       2.801   4.295  19.105  0.00  0.00    +0.000 A 
BRANCH   7  14
ATOM     13  C   UNL     1       3.874   1.157  18.093  0.00  0.00    +0.000 C 
ATOM     14  C   UNL     1       2.651   2.036  17.859  0.00  0.00    +0.000 C 
ENDBRANCH   7  14
ENDBRANCH   1  12
BRANCH   4  15
ATOM     15  C   UNL     1       6.799   5.206  16.321  0.00  0.00    +0.000 C 
ATOM     16  C   UNL     1       7.464   6.533  16.701  0.00  0.00    +0.000 C 
BRANCH  15  17
ATOM     17  C   UNL     1       6.884   4.833  14.844  0.00  0.00    +0.000 A 
ATOM     18  C   UNL     1       7.765   5.445  13.939  0.00  0.00    +0.000 A 
ATOM     19  C   UNL     1       7.747   5.109  12.583  0.00  0.00    +0.000 A 
ATOM     20  C   UNL     1       6.853   4.154  12.108  0.00  0.00    +0.000 A 
ATOM     21  C   UNL     1       5.994   3.510  12.993  0.00  0.00    +0.000 A 
ATOM     22  C   UNL     1       6.017   3.839  14.349  0.00  0.00    +0.000 A 
ENDBRANCH  15  17
ENDBRANCH   4  15
TORSDOF 4
ENDMDL
MODEL 5
REMARK VINA RESULT:      -7.2      4.575      7.547
REMARK  Name = 
REMARK  6 active torsions:
REMARK  status: ('A' for Active; 'I' for Inactive)
REMARK    1  A    between atoms: C_1  and  C_2
REMARK    2  A    between atoms: C_2  and  C_3
REMARK    3  A    between atoms: C_8  and  N_9
REMARK    4  A    between atoms: N_12  and  C_13
REMARK    5  A    between atoms: C_13  and  C_14
REMARK    6  A    between atoms: C_13  and  C_15
REMARK                            x       y       z     vdW  Elec       q    Type
REMARK                         _______ _______ _______ _____ _____    ______ ____
ROOT
ATOM      1  N   UNL     1       0.435   9.688  17.901  0.00  0.00    +0.000 N 
ATOM      2  C   UNL     1       1.349   8.952  18.628  0.00  0.00    +0.000 C 
ATOM      3  O   UNL     1       1.571   9.042  19.829  0.00  0.00    +0.000 OA
ATOM      4  N   UNL     1       2.043   8.075  17.824  0.00  0.00    +0.000 N 
ATOM      5  H   UNL     1       0.575   9.674  16.906  0.00  0.00    +0.000 HD
ATOM      6  H   UNL     1       1.691   7.875  16.903  0.00  0.00    +0.000 HD
ENDROOT
BRANCH   1  12
ATOM      7  C   UNL     1      -1.851  10.582  17.838  0.00  0.00    +0.000 A 
ATOM      8  C   UNL     1      -2.837  11.431  18.386  0.00  0.00    +0.000 A 
ATOM      9  C   UNL     1      -2.546  12.262  19.463  0.00  0.00    +0.000 A 
ATOM     10  C   UNL     1      -1.273  12.262  20.007  0.00  0.00    +0.000 A 
ATOM     11  C   UNL     1      -0.290  11.414  19.491  0.00  0.00    +0.000 A 
ATOM     12  C   UNL     1      -0.556  10.565  18.406  0.00  0.00    +0.000 A 
BRANCH   7  14
ATOM     13  C   UNL     1      -2.862  10.762  15.562  0.00  0.00    +0.000 C 
ATOM     14  C   UNL     1      -2.229   9.824  16.583  0.00  0.00    +0.000 C 
ENDBRANCH   7  14
ENDBRANCH   1  12
BRANCH   4  15
ATOM     15  C   UNL     1       3.050   7.166  18.370  0.00  0.00    +0.000 C 
ATOM     16  C   UNL     1       4.195   7.021  17.362  0.00  0.00    +0.000 C 
BRANCH  15  17
ATOM     17  C   UNL     1       2.373   5.863  18.779  0.00  0.00    +0.000 A 
ATOM     18  C   UNL     1       1.991   4.867  17.867  0.00  0.00    +0.000 A 
ATOM     19  C   UNL     1       1.310   3.725  18.295  0.00  0.00    +0.000 A 
ATOM     20  C   UNL     1       1.002   3.555  19.642  0.00  0.00    +0.000 A 
ATOM     21  C   UNL     1       1.400   4.513  20.569  0.00  0.00    +0.000 A 
ATOM     22  C   UNL     1       2.089   5.651  20.143  0.00  0.00    +0.000 A 
ENDBRANCH  15  17
ENDBRANCH   4  15
TORSDOF 4
ENDMDL
MODEL 6
REMARK VINA RESULT:      -7.1      4.577      7.552
REMARK  Name = 
REMARK  6 active torsions:
REMARK  status: ('A' for Active; 'I' for Inactive)
REMARK    1  A    between atoms: C_1  and  C_2
REMARK    2  A    between atoms: C_2  and  C_3
REMARK    3  A    between atoms: C_8  and  N_9
REMARK    4  A    between atoms: N_12  and  C_13
REMARK    5  A    between atoms: C_13  and  C_14
REMARK    6  A    between atoms: C_13  and  C_15
REMARK                            x       y       z     vdW  Elec       q    Type
REMARK                         _______ _______ _______ _____ _____    ______ ____
ROOT
ATOM      1  N   UNL     1       0.453   9.750  17.914  0.00  0.00    +0.000 N 
ATOM      2  C   UNL     1       1.343   8.993  18.648  0.00  0.00    +0.000 C 
ATOM      3  O   UNL     1       1.546   9.066  19.854  0.00  0.00    +0.000 OA
ATOM      4  N   UNL     1       2.039   8.114  17.847  0.00  0.00    +0.000 N 
ATOM      5  H   UNL     1       0.610   9.745  16.921  0.00  0.00    +0.000 HD
ATOM      6  H   UNL     1       1.700   7.929  16.917  0.00  0.00    +0.000 HD
ENDROOT
BRANCH   1  12
ATOM      7  C   UNL     1      -1.857  10.581  17.918  0.00  0.00    +0.000 A 
ATOM      8  C   UNL     1      -2.836  11.441  18.460  0.00  0.00    +0.000 A 
ATOM      9  C   UNL     1      -2.510  12.355  19.458  0.00  0.00    +0.000 A 
ATOM     10  C   UNL     1      -1.209  12.425  19.927  0.00  0.00    +0.000 A 
ATOM     11  C   UNL     1      -0.233  11.567  19.417  0.00  0.00    +0.000 A 
ATOM     12  C   UNL     1      -0.533  10.636  18.411  0.00  0.00    +0.000 A 
BRANCH   7  14
ATOM     13  C   UNL     1      -2.728  10.600  15.577  0.00  0.00    +0.000 C 
ATOM     14  C   UNL     1      -2.282   9.725  16.742  0.00  0.00    +0.000 C 
ENDBRANCH   7  14
ENDBRANCH   1  12
BRANCH   4  15
ATOM     15  C   UNL     1       3.022   7.184  18.400  0.00  0.00    +0.000 C 
ATOM     16  C   UNL     1       4.147   6.978  17.380  0.00  0.00    +0.000 C 
BRANCH  15  17
ATOM     17  C   UNL     1       2.308   5.913  18.847  0.00  0.00    +0.000 A 
ATOM     18  C   UNL     1       1.977   5.638  20.183  0.00  0.00    +0.000 A 
ATOM     19  C   UNL     1       1.385   4.424  20.540  0.00  0.00    +0.000 A 
ATOM     20  C   UNL     1       1.109   3.465  19.569  0.00  0.00    +0.000 A 
ATOM     21  C   UNL     1       1.399   3.730  18.234  0.00  0.00    +0.000 A 
ATOM     22  C   UNL     1       1.982   4.947  17.876  0.00  0.00    +0.000 A 
ENDBRANCH  15  17
ENDBRANCH   4  15
TORSDOF 4
ENDMDL
MODEL 7
REMARK VINA RESULT:      -7.0      2.522      4.754
REMARK  Name = 
REMARK  6 active torsions:
REMARK  status: ('A' for Active; 'I' for Inactive)
REMARK    1  A    between atoms: C_1  and  C_2
REMARK    2  A    between atoms: C_2  and  C_3
REMARK    3  A    between atoms: C_8  and  N_9
REMARK    4  A    between atoms: N_12  and  C_13
REMARK    5  A    between atoms: C_13  and  C_14
REMARK    6  A    between atoms: C_13  and  C_15
REMARK                            x       y       z     vdW  Elec       q    Type
REMARK                         _______ _______ _______ _____ _____    ______ ____
ROOT
ATOM      1  N   UNL     1       2.549   7.052  19.829  0.00  0.00    +0.000 N 
ATOM      2  C   UNL     1       2.707   5.930  19.041  0.00  0.00    +0.000 C 
ATOM      3  O   UNL     1       2.147   5.699  17.976  0.00  0.00    +0.000 OA
ATOM      4  N   UNL     1       3.585   5.035  19.610  0.00  0.00    +0.000 N 
ATOM      5  H   UNL     1       2.870   6.954  20.777  0.00  0.00    +0.000 HD
ATOM      6  H   UNL     1       4.182   5.345  20.358  0.00  0.00    +0.000 HD
ENDROOT
BRANCH   1  12
ATOM      7  C   UNL     1       1.091   8.918  20.477  0.00  0.00    +0.000 A 
ATOM      8  C   UNL     1       0.445  10.127  20.140  0.00  0.00    +0.000 A 
ATOM      9  C   UNL     1       0.534  10.650  18.854  0.00  0.00    +0.000 A 
ATOM     10  C   UNL     1       1.265   9.978  17.888  0.00  0.00    +0.000 A 
ATOM     11  C   UNL     1       1.928   8.792  18.210  0.00  0.00    +0.000 A 
ATOM     12  C   UNL     1       1.855   8.242  19.498  0.00  0.00    +0.000 A 
BRANCH   7  14
ATOM     13  C   UNL     1      -0.240   9.203  22.572  0.00  0.00    +0.000 C 
ATOM     14  C   UNL     1       0.815   8.364  21.860  0.00  0.00    +0.000 C 
ENDBRANCH   7  14
ENDBRANCH   1  12
BRANCH   4  15
ATOM     15  C   UNL     1       3.937   3.779  18.948  0.00  0.00    +0.000 C 
ATOM     16  C   UNL     1       4.248   2.721  20.012  0.00  0.00    +0.000 C 
BRANCH  15  17
ATOM     17  C   UNL     1       5.055   4.042  17.945  0.00  0.00    +0.000 A 
ATOM     18  C   UNL     1       6.311   4.557  18.300  0.00  0.00    +0.000 A 
ATOM     19  C   UNL     1       7.271   4.843  17.326  0.00  0.00    +0.000 A 
ATOM     20  C   UNL     1       6.995   4.615  15.980  0.00  0.00    +0.000 A 
ATOM     21  C   UNL     1       5.768   4.073  15.608  0.00  0.00    +0.000 A 
ATOM     22  C   UNL     1       4.812   3.779  16.582  0.00  0.00    +0.000 A 
ENDBRANCH  15  17
ENDBRANCH   4  15
TORSDOF 4
ENDMDL
MODEL 8
REMARK VINA RESULT:      -6.9      4.419      8.162
REMARK  Name = 
REMARK  6 active torsions:
REMARK  status: ('A' for Active; 'I' for Inactive)
REMARK    1  A    between atoms: C_1  and  C_2
REMARK    2  A    between atoms: C_2  and  C_3
REMARK    3  A    between atoms: C_8  and  N_9
REMARK    4  A    between atoms: N_12  and  C_13
REMARK    5  A    between atoms: C_13  and  C_14
REMARK    6  A    between atoms: C_13  and  C_15
REMARK                            x       y       z     vdW  Elec       q    Type
REMARK                         _______ _______ _______ _____ _____    ______ ____
ROOT
ATOM      1  N   UNL     1       2.094   7.778  19.186  0.00  0.00    +0.000 N 
ATOM      2  C   UNL     1       1.765   8.932  18.504  0.00  0.00    +0.000 C 
ATOM      3  O   UNL     1       2.148   9.256  17.387  0.00  0.00    +0.000 OA
ATOM      4  N   UNL     1       0.936   9.740  19.251  0.00  0.00    +0.000 N 
ATOM      5  H   UNL     1       1.913   7.803  20.175  0.00  0.00    +0.000 HD
ATOM      6  H   UNL     1       0.474   9.352  20.057  0.00  0.00    +0.000 HD
ENDROOT
BRANCH   1  12
ATOM      7  C   UNL     1       2.509   5.358  19.176  0.00  0.00    +0.000 A 
ATOM      8  C   UNL     1       3.181   4.245  18.627  0.00  0.00    +0.000 A 
ATOM      9  C   UNL     1       4.129   4.407  17.623  0.00  0.00    +0.000 A 
ATOM     10  C   UNL     1       4.422   5.676  17.153  0.00  0.00    +0.000 A 
ATOM     11  C   UNL     1       3.752   6.787  17.669  0.00  0.00    +0.000 A 
ATOM     12  C   UNL     1       2.791   6.653  18.682  0.00  0.00    +0.000 A 
BRANCH   7  14
ATOM     13  C   UNL     1       0.902   3.743  20.201  0.00  0.00    +0.000 C 
ATOM     14  C   UNL     1       1.601   5.088  20.359  0.00  0.00    +0.000 C 
ENDBRANCH   7  14
ENDBRANCH   1  12
BRANCH   4  15
ATOM     15  C   UNL     1       0.427  11.008  18.731  0.00  0.00    +0.000 C 
ATOM     16  C   UNL     1       0.734  12.122  19.737  0.00  0.00    +0.000 C 
BRANCH  15  17
ATOM     17  C   UNL     1      -1.045  10.842  18.372  0.00  0.00    +0.000 A 
ATOM     18  C   UNL     1      -1.515   9.911  17.433  0.00  0.00    +0.000 A 
ATOM     19  C   UNL     1      -2.870   9.855  17.094  0.00  0.00    +0.000 A 
ATOM     20  C   UNL     1      -3.779  10.725  17.690  0.00  0.00    +0.000 A 
ATOM     21  C   UNL     1      -3.340  11.634  18.648  0.00  0.00    +0.000 A 
ATOM     22  C   UNL     1      -1.989  11.684  18.993  0.00  0.00    +0.000 A 
ENDBRANCH  15  17
ENDBRANCH   4  15
TORSDOF 4
ENDMDL
MODEL 9
REMARK VINA RESULT:      -6.9      1.475      2.480
REMARK  Name = 
REMARK  6 active torsions:
REMARK  status: ('A' for Active; 'I' for Inactive)
REMARK    1  A    between atoms: C_1  and  C_2
REMARK    2  A    between atoms: C_2  and  C_3
REMARK    3  A    between atoms: C_8  and  N_9
REMARK    4  A    between atoms: N_12  and  C_13
REMARK    5  A    between atoms: C_13  and  C_14
REMARK    6  A    between atoms: C_13  and  C_15
REMARK                            x       y       z     vdW  Elec       q    Type
REMARK                         _______ _______ _______ _____ _____    ______ ____
ROOT
ATOM      1  N   UNL     1       3.772   5.341  19.402  0.00  0.00    +0.000 N 
ATOM      2  C   UNL     1       4.990   5.017  18.839  0.00  0.00    +0.000 C 
ATOM      3  O   UNL     1       5.567   3.939  18.914  0.00  0.00    +0.000 OA
ATOM      4  N   UNL     1       5.536   6.089  18.168  0.00  0.00    +0.000 N 
ATOM      5  H   UNL     1       3.583   6.326  19.467  0.00  0.00    +0.000 HD
ATOM      6  H   UNL     1       4.948   6.875  17.944  0.00  0.00    +0.000 HD
ENDROOT
BRANCH   1  12
ATOM      7  C   UNL     1       1.877   3.785  19.258  0.00  0.00    +0.000 A 
ATOM      8  C   UNL     1       1.002   2.878  19.893  0.00  0.00    +0.000 A 
ATOM      9  C   UNL     1       1.076   2.654  21.264  0.00  0.00    +0.000 A 
ATOM     10  C   UNL     1       2.018   3.330  22.021  0.00  0.00    +0.000 A 
ATOM     11  C   UNL     1       2.905   4.217  21.407  0.00  0.00    +0.000 A 
ATOM     12  C   UNL     1       2.854   4.461  20.026  0.00  0.00    +0.000 A 
BRANCH   7  14
ATOM     13  C   UNL     1       2.448   3.124  16.918  0.00  0.00    +0.000 C 
ATOM     14  C   UNL     1       1.622   4.061  17.791  0.00  0.00    +0.000 C 
ENDBRANCH   7  14
ENDBRANCH   1  12
BRANCH   4  15
ATOM     15  C   UNL     1       6.813   5.984  17.465  0.00  0.00    +0.000 C 
ATOM     16  C   UNL     1       7.512   7.347  17.488  0.00  0.00    +0.000 C 
BRANCH  15  17
ATOM     17  C   UNL     1       6.570   5.401  16.077  0.00  0.00    +0.000 A 
ATOM     18  C   UNL     1       5.319   4.941  15.637  0.00  0.00    +0.000 A 
ATOM     19  C   UNL     1       5.174   4.351  14.378  0.00  0.00    +0.000 A 
ATOM     20  C   UNL     1       6.273   4.214  13.536  0.00  0.00    +0.000 A 
ATOM     21  C   UNL     1       7.517   4.693  13.938  0.00  0.00    +0.000 A 
ATOM     22  C   UNL     1       7.660   5.290  15.192  0.00  0.00    +0.000 A 
ENDBRANCH  15  17
ENDBRANCH   4  15
TORSDOF 4
ENDMDL
