MODEL 1
REMARK VINA RESULT:      -8.9      0.000      0.000
REMARK  Name = 
REMARK  5 active torsions:
REMARK  status: ('A' for Active; 'I' for Inactive)
REMARK    1  A    between atoms: C_1  and  C_2
REMARK    2  A    between atoms: C_11  and  C_12
REMARK    3  A    between atoms: C_12  and  C_13
REMARK    4  A    between atoms: C_12  and  N_14
REMARK    5  A    between atoms: C_20  and  C_21
REMARK                            x       y       z     vdW  Elec       q    Type
REMARK                         _______ _______ _______ _____ _____    ______ ____
ROOT
ATOM      1  N   UNL     1      -1.154  11.752  20.726  0.00  0.00    +0.000 N 
ATOM      2  C   UNL     1      -1.683  12.004  21.980  0.00  0.00    +0.000 A 
ATOM      3  N   UNL     1      -0.922  11.569  22.943  0.00  0.00    +0.000 NA
ATOM      4  C   UNL     1      -0.064  10.729  22.320  0.00  0.00    +0.000 A 
ATOM      5  N   UNL     1       0.743   9.907  23.017  0.00  0.00    +0.000 NA
ATOM      6  C   UNL     1       1.249   8.916  22.272  0.00  0.00    +0.000 A 
ATOM      7  C   UNL     1       1.079   8.754  20.891  0.00  0.00    +0.000 A 
ATOM      8  N   UNL     1       0.349   9.694  20.123  0.00  0.00    +0.000 NA
ATOM      9  C   UNL     1      -0.236  10.682  20.921  0.00  0.00    +0.000 A 
ENDROOT
BRANCH   7  10
ATOM     10  C   UNL     1       1.651   7.458  20.312  0.00  0.00    +0.000 A 
ATOM     11  C   UNL     1       2.368   7.391  19.129  0.00  0.00    +0.000 A 
ATOM     12  N   UNL     1       2.808   6.241  18.510  0.00  0.00    +0.000 NA
ATOM     13  C   UNL     1       2.535   5.031  19.058  0.00  0.00    +0.000 A 
ATOM     14  C   UNL     1       2.999   3.844  18.473  0.00  0.00    +0.000 A 
ATOM     15  C   UNL     1       2.748   2.580  19.019  0.00  0.00    +0.000 A 
ATOM     16  C   UNL     1       1.982   2.476  20.170  0.00  0.00    +0.000 A 
ATOM     17  C   UNL     1       1.492   3.644  20.764  0.00  0.00    +0.000 A 
ATOM     18  C   UNL     1       1.778   4.936  20.237  0.00  0.00    +0.000 A 
ATOM     19  C   UNL     1       1.347   6.166  20.836  0.00  0.00    +0.000 A 
ENDBRANCH   7  10
BRANCH   1  20
ATOM     20  C   UNL     1      -1.407  12.767  19.653  0.00  0.00    +0.000 C 
ATOM     21  C   UNL     1      -1.600  12.101  18.251  0.00  0.00    +0.000 C 
BRANCH  20  32
ATOM     22  C   UNL     1      -1.780  15.672  20.448  0.00  0.00    +0.000 C 
ATOM     23  C   UNL     1      -0.465  15.154  19.953  0.00  0.00    +0.000 A 
ATOM     24  C   UNL     1       0.593  16.103  19.819  0.00  0.00    +0.000 A 
ATOM     25  C   UNL     1       1.803  15.833  19.203  0.00  0.00    +0.000 A 
ATOM     26  N   UNL     1       2.736  16.797  19.152  0.00  0.00    +0.000 NA
ATOM     27  C   UNL     1       3.892  16.541  18.490  0.00  0.00    +0.000 A 
ATOM     28  C   UNL     1       4.146  15.343  17.853  0.00  0.00    +0.000 A 
ATOM     29  C   UNL     1       3.172  14.349  17.917  0.00  0.00    +0.000 A 
ATOM     30  C   UNL     1       1.964  14.566  18.628  0.00  0.00    +0.000 A 
ATOM     31  C   UNL     1       0.928  13.597  18.770  0.00  0.00    +0.000 A 
ATOM     32  C   UNL     1      -0.280  13.840  19.492  0.00  0.00    +0.000 A 
ENDBRANCH  20  32
ENDBRANCH   1  20
TORSDOF 3
ENDMDL
MODEL 2
REMARK VINA RESULT:      -8.9      2.550      4.952
REMARK  Name = 
REMARK  5 active torsions:
REMARK  status: ('A' for Active; 'I' for Inactive)
REMARK    1  A    between atoms: C_1  and  C_2
REMARK    2  A    between atoms: C_11  and  C_12
REMARK    3  A    between atoms: C_12  and  C_13
REMARK    4  A    between atoms: C_12  and  N_14
REMARK    5  A    between atoms: C_20  and  C_21
REMARK                            x       y       z     vdW  Elec       q    Type
REMARK                         _______ _______ _______ _____ _____    ______ ____
ROOT
ATOM      1  N   UNL     1      -0.898  11.326  20.927  0.00  0.00    +0.000 N 
ATOM      2  C   UNL     1      -1.263  11.518  22.248  0.00  0.00    +0.000 A 
ATOM      3  N   UNL     1      -0.383  11.051  23.086  0.00  0.00    +0.000 NA
ATOM      4  C   UNL     1       0.393  10.247  22.322  0.00  0.00    +0.000 A 
ATOM      5  N   UNL     1       1.287   9.406  22.874  0.00  0.00    +0.000 NA
ATOM      6  C   UNL     1       1.699   8.452  22.028  0.00  0.00    +0.000 A 
ATOM      7  C   UNL     1       1.354   8.348  20.674  0.00  0.00    +0.000 A 
ATOM      8  N   UNL     1       0.526   9.311  20.047  0.00  0.00    +0.000 NA
ATOM      9  C   UNL     1       0.043  10.258  20.956  0.00  0.00    +0.000 A 
ENDROOT
BRANCH   7  10
ATOM     10  C   UNL     1       1.854   7.084  19.970  0.00  0.00    +0.000 A 
ATOM     11  C   UNL     1       2.557   7.091  18.777  0.00  0.00    +0.000 A 
ATOM     12  N   UNL     1       2.932   5.983  18.049  0.00  0.00    +0.000 NA
ATOM     13  C   UNL     1       2.602   4.742  18.487  0.00  0.00    +0.000 A 
ATOM     14  C   UNL     1       3.000   3.593  17.790  0.00  0.00    +0.000 A 
ATOM     15  C   UNL     1       2.690   2.298  18.220  0.00  0.00    +0.000 A 
ATOM     16  C   UNL     1       1.930   2.127  19.367  0.00  0.00    +0.000 A 
ATOM     17  C   UNL     1       1.505   3.258  20.072  0.00  0.00    +0.000 A 
ATOM     18  C   UNL     1       1.852   4.576  19.662  0.00  0.00    +0.000 A 
ATOM     19  C   UNL     1       1.490   5.765  20.378  0.00  0.00    +0.000 A 
ENDBRANCH   7  10
BRANCH   1  20
ATOM     20  C   UNL     1      -1.292  12.382  19.941  0.00  0.00    +0.000 C 
ATOM     21  C   UNL     1      -1.115  13.823  20.522  0.00  0.00    +0.000 C 
BRANCH  20  32
ATOM     22  C   UNL     1      -2.031  11.062  17.309  0.00  0.00    +0.000 C 
ATOM     23  C   UNL     1      -3.074  11.584  18.248  0.00  0.00    +0.000 A 
ATOM     24  C   UNL     1      -4.433  11.484  17.824  0.00  0.00    +0.000 A 
ATOM     25  C   UNL     1      -5.496  12.081  18.478  0.00  0.00    +0.000 A 
ATOM     26  N   UNL     1      -6.738  11.901  18.001  0.00  0.00    +0.000 NA
ATOM     27  C   UNL     1      -7.764  12.544  18.613  0.00  0.00    +0.000 A 
ATOM     28  C   UNL     1      -7.588  13.387  19.692  0.00  0.00    +0.000 A 
ATOM     29  C   UNL     1      -6.295  13.561  20.181  0.00  0.00    +0.000 A 
ATOM     30  C   UNL     1      -5.201  12.880  19.590  0.00  0.00    +0.000 A 
ATOM     31  C   UNL     1      -3.853  12.977  20.043  0.00  0.00    +0.000 A 
ATOM     32  C   UNL     1      -2.767  12.280  19.429  0.00  0.00    +0.000 A 
ENDBRANCH  20  32
ENDBRANCH   1  20
TORSDOF 3
ENDMDL
MODEL 3
REMARK VINA RESULT:      -8.8      3.639      6.604
REMARK  Name = 
REMARK  5 active torsions:
REMARK  status: ('A' for Active; 'I' for Inactive)
REMARK    1  A    between atoms: C_1  and  C_2
REMARK    2  A    between atoms: C_11  and  C_12
REMARK    3  A    between atoms: C_12  and  C_13
REMARK    4  A    between atoms: C_12  and  N_14
REMARK    5  A    between atoms: C_20  and  C_21
REMARK                            x       y       z     vdW  Elec       q    Type
REMARK                         _______ _______ _______ _____ _____    ______ ____
ROOT
ATOM      1  N   UNL     1       2.015   7.117  20.138  0.00  0.00    +0.000 N 
ATOM      2  C   UNL     1       1.142   6.221  20.730  0.00  0.00    +0.000 A 
ATOM      3  N   UNL     1       1.668   5.042  20.898  0.00  0.00    +0.000 NA
ATOM      4  C   UNL     1       2.764   5.064  20.105  0.00  0.00    +0.000 A 
ATOM      5  N   UNL     1       3.457   3.942  19.835  0.00  0.00    +0.000 NA
ATOM      6  C   UNL     1       4.270   4.071  18.778  0.00  0.00    +0.000 A 
ATOM      7  C   UNL     1       4.498   5.248  18.053  0.00  0.00    +0.000 A 
ATOM      8  N   UNL     1       3.882   6.470  18.419  0.00  0.00    +0.000 NA
ATOM      9  C   UNL     1       2.981   6.307  19.475  0.00  0.00    +0.000 A 
ENDROOT
BRANCH   7  10
ATOM     10  C   UNL     1       5.370   5.086  16.806  0.00  0.00    +0.000 A 
ATOM     11  C   UNL     1       6.560   5.765  16.602  0.00  0.00    +0.000 A 
ATOM     12  N   UNL     1       7.322   5.740  15.454  0.00  0.00    +0.000 NA
ATOM     13  C   UNL     1       6.916   5.005  14.388  0.00  0.00    +0.000 A 
ATOM     14  C   UNL     1       7.688   4.929  13.220  0.00  0.00    +0.000 A 
ATOM     15  C   UNL     1       7.307   4.171  12.107  0.00  0.00    +0.000 A 
ATOM     16  C   UNL     1       6.102   3.485  12.132  0.00  0.00    +0.000 A 
ATOM     17  C   UNL     1       5.304   3.560  13.279  0.00  0.00    +0.000 A 
ATOM     18  C   UNL     1       5.707   4.295  14.430  0.00  0.00    +0.000 A 
ATOM     19  C   UNL     1       4.955   4.360  15.650  0.00  0.00    +0.000 A 
ENDBRANCH   7  10
BRANCH   1  20
ATOM     20  C   UNL     1       1.927   8.551  20.562  0.00  0.00    +0.000 C 
ATOM     21  C   UNL     1       1.703   8.694  22.104  0.00  0.00    +0.000 C 
BRANCH  20  32
ATOM     22  C   UNL     1       1.776   8.910  17.552  0.00  0.00    +0.000 C 
ATOM     23  C   UNL     1       0.711   9.437  18.462  0.00  0.00    +0.000 A 
ATOM     24  C   UNL     1      -0.355  10.168  17.854  0.00  0.00    +0.000 A 
ATOM     25  C   UNL     1      -1.310  10.878  18.560  0.00  0.00    +0.000 A 
ATOM     26  N   UNL     1      -2.281  11.512  17.883  0.00  0.00    +0.000 NA
ATOM     27  C   UNL     1      -3.174  12.257  18.582  0.00  0.00    +0.000 A 
ATOM     28  C   UNL     1      -3.119  12.407  19.953  0.00  0.00    +0.000 A 
ATOM     29  C   UNL     1      -2.110  11.740  20.645  0.00  0.00    +0.000 A 
ATOM     30  C   UNL     1      -1.178  10.924  19.953  0.00  0.00    +0.000 A 
ATOM     31  C   UNL     1      -0.135  10.184  20.582  0.00  0.00    +0.000 A 
ATOM     32  C   UNL     1       0.792   9.369  19.863  0.00  0.00    +0.000 A 
ENDBRANCH  20  32
ENDBRANCH   1  20
TORSDOF 3
ENDMDL
MODEL 4
REMARK VINA RESULT:      -8.7      2.846      5.296
REMARK  Name = 
REMARK  5 active torsions:
REMARK  status: ('A' for Active; 'I' for Inactive)
REMARK    1  A    between atoms: C_1  and  C_2
REMARK    2  A    between atoms: C_11  and  C_12
REMARK    3  A    between atoms: C_12  and  C_13
REMARK    4  A    between atoms: C_12  and  N_14
REMARK    5  A    between atoms: C_20  and  C_21
REMARK                            x       y       z     vdW  Elec       q    Type
REMARK                         _______ _______ _______ _____ _____    ______ ____
ROOT
ATOM      1  N   UNL     1      -0.872  11.228  20.981  0.00  0.00    +0.000 N 
ATOM      2  C   UNL     1      -1.296  11.220  22.298  0.00  0.00    +0.000 A 
ATOM      3  N   UNL     1      -0.421  10.692  23.105  0.00  0.00    +0.000 NA
ATOM      4  C   UNL     1       0.428  10.041  22.276  0.00  0.00    +0.000 A 
ATOM      5  N   UNL     1       1.349   9.182  22.751  0.00  0.00    +0.000 NA
ATOM      6  C   UNL     1       1.847   8.375  21.805  0.00  0.00    +0.000 A 
ATOM      7  C   UNL     1       1.559   8.435  20.435  0.00  0.00    +0.000 A 
ATOM      8  N   UNL     1       0.699   9.429  19.906  0.00  0.00    +0.000 NA
ATOM      9  C   UNL     1       0.129  10.218  20.909  0.00  0.00    +0.000 A 
ENDROOT
BRANCH   7  10
ATOM     10  C   UNL     1       2.158   7.306  19.592  0.00  0.00    +0.000 A 
ATOM     11  C   UNL     1       2.064   5.964  19.921  0.00  0.00    +0.000 A 
ATOM     12  N   UNL     1       2.677   4.922  19.260  0.00  0.00    +0.000 NA
ATOM     13  C   UNL     1       3.465   5.173  18.184  0.00  0.00    +0.000 A 
ATOM     14  C   UNL     1       4.072   4.132  17.468  0.00  0.00    +0.000 A 
ATOM     15  C   UNL     1       4.879   4.353  16.346  0.00  0.00    +0.000 A 
ATOM     16  C   UNL     1       5.125   5.653  15.931  0.00  0.00    +0.000 A 
ATOM     17  C   UNL     1       4.545   6.711  16.640  0.00  0.00    +0.000 A 
ATOM     18  C   UNL     1       3.690   6.490  17.756  0.00  0.00    +0.000 A 
ATOM     19  C   UNL     1       3.027   7.534  18.483  0.00  0.00    +0.000 A 
ENDBRANCH   7  10
BRANCH   1  20
ATOM     20  C   UNL     1      -1.291  12.385  20.127  0.00  0.00    +0.000 C 
ATOM     21  C   UNL     1      -1.196  13.745  20.894  0.00  0.00    +0.000 C 
BRANCH  20  32
ATOM     22  C   UNL     1      -1.934  11.085  17.461  0.00  0.00    +0.000 C 
ATOM     23  C   UNL     1      -3.010  11.599  18.365  0.00  0.00    +0.000 A 
ATOM     24  C   UNL     1      -4.353  11.502  17.892  0.00  0.00    +0.000 A 
ATOM     25  C   UNL     1      -5.439  12.093  18.512  0.00  0.00    +0.000 A 
ATOM     26  N   UNL     1      -6.663  11.916  17.988  0.00  0.00    +0.000 NA
ATOM     27  C   UNL     1      -7.711  12.554  18.568  0.00  0.00    +0.000 A 
ATOM     28  C   UNL     1      -7.574  13.389  19.659  0.00  0.00    +0.000 A 
ATOM     29  C   UNL     1      -6.300  13.560  20.196  0.00  0.00    +0.000 A 
ATOM     30  C   UNL     1      -5.185  12.884  19.639  0.00  0.00    +0.000 A 
ATOM     31  C   UNL     1      -3.854  12.978  20.142  0.00  0.00    +0.000 A 
ATOM     32  C   UNL     1      -2.746  12.286  19.562  0.00  0.00    +0.000 A 
ENDBRANCH  20  32
ENDBRANCH   1  20
TORSDOF 3
ENDMDL
MODEL 5
REMARK VINA RESULT:      -8.7      2.339      4.659
REMARK  Name = 
REMARK  5 active torsions:
REMARK  status: ('A' for Active; 'I' for Inactive)
REMARK    1  A    between atoms: C_1  and  C_2
REMARK    2  A    between atoms: C_11  and  C_12
REMARK    3  A    between atoms: C_12  and  C_13
REMARK    4  A    between atoms: C_12  and  N_14
REMARK    5  A    between atoms: C_20  and  C_21
REMARK                            x       y       z     vdW  Elec       q    Type
REMARK                         _______ _______ _______ _____ _____    ______ ____
ROOT
ATOM      1  N   UNL     1       0.460  11.754  20.637  0.00  0.00    +0.000 N 
ATOM      2  C   UNL     1       1.048  12.860  20.051  0.00  0.00    +0.000 A 
ATOM      3  N   UNL     1       1.451  12.630  18.834  0.00  0.00    +0.000 NA
ATOM      4  C   UNL     1       1.442  11.280  18.743  0.00  0.00    +0.000 A 
ATOM      5  N   UNL     1       2.009  10.644  17.701  0.00  0.00    +0.000 NA
ATOM      6  C   UNL     1       2.226   9.343  17.939  0.00  0.00    +0.000 A 
ATOM      7  C   UNL     1       1.835   8.638  19.085  0.00  0.00    +0.000 A 
ATOM      8  N   UNL     1       1.110   9.268  20.126  0.00  0.00    +0.000 NA
ATOM      9  C   UNL     1       0.954  10.640  19.901  0.00  0.00    +0.000 A 
ENDROOT
BRANCH   7  10
ATOM     10  C   UNL     1       2.330   7.192  19.161  0.00  0.00    +0.000 A 
ATOM     11  C   UNL     1       2.968   6.539  18.120  0.00  0.00    +0.000 A 
ATOM     12  N   UNL     1       3.332   5.210  18.097  0.00  0.00    +0.000 NA
ATOM     13  C   UNL     1       3.059   4.415  19.163  0.00  0.00    +0.000 A 
ATOM     14  C   UNL     1       3.449   3.069  19.186  0.00  0.00    +0.000 A 
ATOM     15  C   UNL     1       3.195   2.224  20.273  0.00  0.00    +0.000 A 
ATOM     16  C   UNL     1       2.501   2.715  21.368  0.00  0.00    +0.000 A 
ATOM     17  C   UNL     1       2.085   4.051  21.362  0.00  0.00    +0.000 A 
ATOM     18  C   UNL     1       2.376   4.926  20.277  0.00  0.00    +0.000 A 
ATOM     19  C   UNL     1       2.021   6.316  20.244  0.00  0.00    +0.000 A 
ENDBRANCH   7  10
BRANCH   1  20
ATOM     20  C   UNL     1      -0.674  11.995  21.586  0.00  0.00    +0.000 C 
ATOM     21  C   UNL     1      -0.853  10.815  22.598  0.00  0.00    +0.000 C 
BRANCH  20  32
ATOM     22  C   UNL     1      -3.093  13.058  23.078  0.00  0.00    +0.000 C 
ATOM     23  C   UNL     1      -3.131  12.791  21.606  0.00  0.00    +0.000 A 
ATOM     24  C   UNL     1      -4.377  13.007  20.942  0.00  0.00    +0.000 A 
ATOM     25  C   UNL     1      -4.635  12.633  19.635  0.00  0.00    +0.000 A 
ATOM     26  N   UNL     1      -5.839  12.905  19.106  0.00  0.00    +0.000 NA
ATOM     27  C   UNL     1      -6.101  12.476  17.846  0.00  0.00    +0.000 A 
ATOM     28  C   UNL     1      -5.196  11.758  17.091  0.00  0.00    +0.000 A 
ATOM     29  C   UNL     1      -3.948  11.486  17.649  0.00  0.00    +0.000 A 
ATOM     30  C   UNL     1      -3.624  11.947  18.951  0.00  0.00    +0.000 A 
ATOM     31  C   UNL     1      -2.365  11.741  19.587  0.00  0.00    +0.000 A 
ATOM     32  C   UNL     1      -2.062  12.215  20.900  0.00  0.00    +0.000 A 
ENDBRANCH  20  32
ENDBRANCH   1  20
TORSDOF 3
ENDMDL
MODEL 6
REMARK VINA RESULT:      -8.6      0.976      1.671
REMARK  Name = 
REMARK  5 active torsions:
REMARK  status: ('A' for Active; 'I' for Inactive)
REMARK    1  A    between atoms: C_1  and  C_2
REMARK    2  A    between atoms: C_11  and  C_12
REMARK    3  A    between atoms: C_12  and  C_13
REMARK    4  A    between atoms: C_12  and  N_14
REMARK    5  A    between atoms: C_20  and  C_21
REMARK                            x       y       z     vdW  Elec       q    Type
REMARK                         _______ _______ _______ _____ _____    ______ ____
ROOT
ATOM      1  N   UNL     1      -0.934  11.609  20.605  0.00  0.00    +0.000 N 
ATOM      2  C   UNL     1      -1.439  11.805  21.878  0.00  0.00    +0.000 A 
ATOM      3  N   UNL     1      -0.655  11.339  22.808  0.00  0.00    +0.000 NA
ATOM      4  C   UNL     1       0.197  10.532  22.133  0.00  0.00    +0.000 A 
ATOM      5  N   UNL     1       1.025   9.691  22.781  0.00  0.00    +0.000 NA
ATOM      6  C   UNL     1       1.525   8.735  21.986  0.00  0.00    +0.000 A 
ATOM      7  C   UNL     1       1.329   8.628  20.603  0.00  0.00    +0.000 A 
ATOM      8  N   UNL     1       0.574   9.591  19.888  0.00  0.00    +0.000 NA
ATOM      9  C   UNL     1      -0.002  10.541  20.737  0.00  0.00    +0.000 A 
ENDROOT
BRANCH   7  10
ATOM     10  C   UNL     1       1.900   7.362  19.960  0.00  0.00    +0.000 A 
ATOM     11  C   UNL     1       1.810   6.101  20.525  0.00  0.00    +0.000 A 
ATOM     12  N   UNL     1       2.401   4.953  20.044  0.00  0.00    +0.000 NA
ATOM     13  C   UNL     1       3.160   5.001  18.921  0.00  0.00    +0.000 A 
ATOM     14  C   UNL     1       3.744   3.845  18.386  0.00  0.00    +0.000 A 
ATOM     15  C   UNL     1       4.521   3.855  17.222  0.00  0.00    +0.000 A 
ATOM     16  C   UNL     1       4.761   5.059  16.575  0.00  0.00    +0.000 A 
ATOM     17  C   UNL     1       4.204   6.231  17.099  0.00  0.00    +0.000 A 
ATOM     18  C   UNL     1       3.378   6.220  18.259  0.00  0.00    +0.000 A 
ATOM     19  C   UNL     1       2.740   7.382  18.805  0.00  0.00    +0.000 A 
ENDBRANCH   7  10
BRANCH   1  20
ATOM     20  C   UNL     1      -1.217  12.664  19.579  0.00  0.00    +0.000 C 
ATOM     21  C   UNL     1      -1.427  12.055  18.154  0.00  0.00    +0.000 C 
BRANCH  20  32
ATOM     22  C   UNL     1      -1.649  15.556  20.394  0.00  0.00    +0.000 C 
ATOM     23  C   UNL     1      -0.319  15.063  19.913  0.00  0.00    +0.000 A 
ATOM     24  C   UNL     1       0.726  16.030  19.802  0.00  0.00    +0.000 A 
ATOM     25  C   UNL     1       1.948  15.786  19.202  0.00  0.00    +0.000 A 
ATOM     26  N   UNL     1       2.866  16.765  19.172  0.00  0.00    +0.000 NA
ATOM     27  C   UNL     1       4.036  16.533  18.525  0.00  0.00    +0.000 A 
ATOM     28  C   UNL     1       4.318  15.346  17.881  0.00  0.00    +0.000 A 
ATOM     29  C   UNL     1       3.359  14.335  17.922  0.00  0.00    +0.000 A 
ATOM     30  C   UNL     1       2.138  14.527  18.618  0.00  0.00    +0.000 A 
ATOM     31  C   UNL     1       1.116  13.539  18.737  0.00  0.00    +0.000 A 
ATOM     32  C   UNL     1      -0.106  13.757  19.444  0.00  0.00    +0.000 A 
ENDBRANCH  20  32
ENDBRANCH   1  20
TORSDOF 3
ENDMDL
MODEL 7
REMARK VINA RESULT:      -8.6      2.459      4.748
REMARK  Name = 
REMARK  5 active torsions:
REMARK  status: ('A' for Active; 'I' for Inactive)
REMARK    1  A    between atoms: C_1  and  C_2
REMARK    2  A    between atoms: C_11  and  C_12
REMARK    3  A    between atoms: C_12  and  C_13
REMARK    4  A    between atoms: C_12  and  N_14
REMARK    5  A    between atoms: C_20  and  C_21
REMARK                            x       y       z     vdW  Elec       q    Type
REMARK                         _______ _______ _______ _____ _____    ______ ____
ROOT
ATOM      1  N   UNL     1       0.671  11.573  20.514  0.00  0.00    +0.000 N 
ATOM      2  C   UNL     1       1.390  12.570  19.881  0.00  0.00    +0.000 A 
ATOM      3  N   UNL     1       1.780  12.229  18.685  0.00  0.00    +0.000 NA
ATOM      4  C   UNL     1       1.614  10.886  18.666  0.00  0.00    +0.000 A 
ATOM      5  N   UNL     1       2.116  10.133  17.670  0.00  0.00    +0.000 NA
ATOM      6  C   UNL     1       2.177   8.830  17.979  0.00  0.00    +0.000 A 
ATOM      7  C   UNL     1       1.692   8.239  19.153  0.00  0.00    +0.000 A 
ATOM      8  N   UNL     1       1.032   9.005  20.146  0.00  0.00    +0.000 NA
ATOM      9  C   UNL     1       1.040  10.371  19.847  0.00  0.00    +0.000 A 
ENDROOT
BRANCH   7  10
ATOM     10  C   UNL     1       2.014   6.752  19.315  0.00  0.00    +0.000 A 
ATOM     11  C   UNL     1       2.067   6.101  20.536  0.00  0.00    +0.000 A 
ATOM     12  N   UNL     1       2.458   4.796  20.744  0.00  0.00    +0.000 NA
ATOM     13  C   UNL     1       2.846   4.030  19.694  0.00  0.00    +0.000 A 
ATOM     14  C   UNL     1       3.214   2.689  19.867  0.00  0.00    +0.000 A 
ATOM     15  C   UNL     1       3.607   1.866  18.805  0.00  0.00    +0.000 A 
ATOM     16  C   UNL     1       3.671   2.394  17.524  0.00  0.00    +0.000 A 
ATOM     17  C   UNL     1       3.326   3.735  17.327  0.00  0.00    +0.000 A 
ATOM     18  C   UNL     1       2.886   4.565  18.397  0.00  0.00    +0.000 A 
ATOM     19  C   UNL     1       2.469   5.929  18.241  0.00  0.00    +0.000 A 
ENDBRANCH   7  10
BRANCH   1  20
ATOM     20  C   UNL     1      -0.440  11.995  21.427  0.00  0.00    +0.000 C 
ATOM     21  C   UNL     1      -0.649  10.984  22.602  0.00  0.00    +0.000 C 
BRANCH  20  32
ATOM     22  C   UNL     1      -2.882  13.073  22.870  0.00  0.00    +0.000 C 
ATOM     23  C   UNL     1      -2.910  12.752  21.408  0.00  0.00    +0.000 A 
ATOM     24  C   UNL     1      -4.156  12.924  20.733  0.00  0.00    +0.000 A 
ATOM     25  C   UNL     1      -4.402  12.499  19.440  0.00  0.00    +0.000 A 
ATOM     26  N   UNL     1      -5.608  12.732  18.897  0.00  0.00    +0.000 NA
ATOM     27  C   UNL     1      -5.858  12.253  17.652  0.00  0.00    +0.000 A 
ATOM     28  C   UNL     1      -4.938  11.524  16.927  0.00  0.00    +0.000 A 
ATOM     29  C   UNL     1      -3.689  11.292  17.499  0.00  0.00    +0.000 A 
ATOM     30  C   UNL     1      -3.377  11.805  18.784  0.00  0.00    +0.000 A 
ATOM     31  C   UNL     1      -2.118  11.642  19.432  0.00  0.00    +0.000 A 
ATOM     32  C   UNL     1      -1.828  12.168  20.728  0.00  0.00    +0.000 A 
ENDBRANCH  20  32
ENDBRANCH   1  20
TORSDOF 3
ENDMDL
MODEL 8
REMARK VINA RESULT:      -8.4      1.237      1.438
REMARK  Name = 
REMARK  5 active torsions:
REMARK  status: ('A' for Active; 'I' for Inactive)
REMARK    1  A    between atoms: C_1  and  C_2
REMARK    2  A    between atoms: C_11  and  C_12
REMARK    3  A    between atoms: C_12  and  C_13
REMARK    4  A    between atoms: C_12  and  N_14
REMARK    5  A    between atoms: C_20  and  C_21
REMARK                            x       y       z     vdW  Elec       q    Type
REMARK                         _______ _______ _______ _____ _____    ______ ____
ROOT
ATOM      1  N   UNL     1      -0.458  12.376  20.845  0.00  0.00    +0.000 N 
ATOM      2  C   UNL     1      -1.308  12.541  21.924  0.00  0.00    +0.000 A 
ATOM      3  N   UNL     1      -0.964  11.817  22.951  0.00  0.00    +0.000 NA
ATOM      4  C   UNL     1      -0.093  10.920  22.433  0.00  0.00    +0.000 A 
ATOM      5  N   UNL     1       0.319   9.854  23.144  0.00  0.00    +0.000 NA
ATOM      6  C   UNL     1       0.875   8.901  22.383  0.00  0.00    +0.000 A 
ATOM      7  C   UNL     1       1.123   8.988  21.006  0.00  0.00    +0.000 A 
ATOM      8  N   UNL     1       0.823  10.163  20.276  0.00  0.00    +0.000 NA
ATOM      9  C   UNL     1       0.177  11.121  21.064  0.00  0.00    +0.000 A 
ENDROOT
BRANCH   7  10
ATOM     10  C   UNL     1       1.642   7.703  20.356  0.00  0.00    +0.000 A 
ATOM     11  C   UNL     1       2.272   7.661  19.123  0.00  0.00    +0.000 A 
ATOM     12  N   UNL     1       2.656   6.524  18.447  0.00  0.00    +0.000 NA
ATOM     13  C   UNL     1       2.415   5.302  18.985  0.00  0.00    +0.000 A 
ATOM     14  C   UNL     1       2.827   4.128  18.339  0.00  0.00    +0.000 A 
ATOM     15  C   UNL     1       2.607   2.852  18.871  0.00  0.00    +0.000 A 
ATOM     16  C   UNL     1       1.925   2.725  20.072  0.00  0.00    +0.000 A 
ATOM     17  C   UNL     1       1.488   3.881  20.728  0.00  0.00    +0.000 A 
ATOM     18  C   UNL     1       1.745   5.183  20.212  0.00  0.00    +0.000 A 
ATOM     19  C   UNL     1       1.368   6.400  20.870  0.00  0.00    +0.000 A 
ENDBRANCH   7  10
BRANCH   1  20
ATOM     20  C   UNL     1      -0.203  13.570  19.977  0.00  0.00    +0.000 C 
ATOM     21  C   UNL     1      -0.518  13.279  18.472  0.00  0.00    +0.000 C 
BRANCH  20  32
ATOM     22  C   UNL     1       0.796  15.359  22.215  0.00  0.00    +0.000 C 
ATOM     23  C   UNL     1       1.707  14.870  21.132  0.00  0.00    +0.000 A 
ATOM     24  C   UNL     1       3.058  15.330  21.168  0.00  0.00    +0.000 A 
ATOM     25  C   UNL     1       3.973  15.129  20.150  0.00  0.00    +0.000 A 
ATOM     26  N   UNL     1       5.226  15.588  20.301  0.00  0.00    +0.000 NA
ATOM     27  C   UNL     1       6.095  15.441  19.270  0.00  0.00    +0.000 A 
ATOM     28  C   UNL     1       5.747  14.859  18.068  0.00  0.00    +0.000 A 
ATOM     29  C   UNL     1       4.445  14.382  17.925  0.00  0.00    +0.000 A 
ATOM     30  C   UNL     1       3.517  14.486  18.992  0.00  0.00    +0.000 A 
ATOM     31  C   UNL     1       2.178  14.000  18.944  0.00  0.00    +0.000 A 
ATOM     32  C   UNL     1       1.261  14.117  20.034  0.00  0.00    +0.000 A 
ENDBRANCH  20  32
ENDBRANCH   1  20
TORSDOF 3
ENDMDL
MODEL 9
REMARK VINA RESULT:      -8.4      1.913      2.584
REMARK  Name = 
REMARK  5 active torsions:
REMARK  status: ('A' for Active; 'I' for Inactive)
REMARK    1  A    between atoms: C_1  and  C_2
REMARK    2  A    between atoms: C_11  and  C_12
REMARK    3  A    between atoms: C_12  and  C_13
REMARK    4  A    between atoms: C_12  and  N_14
REMARK    5  A    between atoms: C_20  and  C_21
REMARK                            x       y       z     vdW  Elec       q    Type
REMARK                         _______ _______ _______ _____ _____    ______ ____
ROOT
ATOM      1  N   UNL     1      -0.297  11.602  20.353  0.00  0.00    +0.000 N 
ATOM      2  C   UNL     1      -1.148  11.500  21.439  0.00  0.00    +0.000 A 
ATOM      3  N   UNL     1      -0.717  10.664  22.340  0.00  0.00    +0.000 NA
ATOM      4  C   UNL     1       0.240   9.960  21.691  0.00  0.00    +0.000 A 
ATOM      5  N   UNL     1       0.772   8.844  22.225  0.00  0.00    +0.000 NA
ATOM      6  C   UNL     1       1.419   8.091  21.325  0.00  0.00    +0.000 A 
ATOM      7  C   UNL     1       1.642   8.423  19.982  0.00  0.00    +0.000 A 
ATOM      8  N   UNL     1       1.209   9.661  19.446  0.00  0.00    +0.000 NA
ATOM      9  C   UNL     1       0.472  10.404  20.373  0.00  0.00    +0.000 A 
ENDROOT
BRANCH   7  10
ATOM     10  C   UNL     1       2.289   7.322  19.138  0.00  0.00    +0.000 A 
ATOM     11  C   UNL     1       2.191   5.971  19.426  0.00  0.00    +0.000 A 
ATOM     12  N   UNL     1       2.843   4.951  18.766  0.00  0.00    +0.000 NA
ATOM     13  C   UNL     1       3.678   5.237  17.735  0.00  0.00    +0.000 A 
ATOM     14  C   UNL     1       4.327   4.221  17.020  0.00  0.00    +0.000 A 
ATOM     15  C   UNL     1       5.183   4.478  15.944  0.00  0.00    +0.000 A 
ATOM     16  C   UNL     1       5.437   5.791  15.576  0.00  0.00    +0.000 A 
ATOM     17  C   UNL     1       4.816   6.825  16.285  0.00  0.00    +0.000 A 
ATOM     18  C   UNL     1       3.911   6.568  17.354  0.00  0.00    +0.000 A 
ATOM     19  C   UNL     1       3.207   7.586  18.077  0.00  0.00    +0.000 A 
ENDBRANCH   7  10
BRANCH   1  20
ATOM     20  C   UNL     1      -0.181  12.940  19.689  0.00  0.00    +0.000 C 
ATOM     21  C   UNL     1      -0.486  12.862  18.157  0.00  0.00    +0.000 C 
BRANCH  20  32
ATOM     22  C   UNL     1       0.572  14.647  22.083  0.00  0.00    +0.000 C 
ATOM     23  C   UNL     1       1.557  14.332  21.001  0.00  0.00    +0.000 A 
ATOM     24  C   UNL     1       2.853  14.918  21.117  0.00  0.00    +0.000 A 
ATOM     25  C   UNL     1       3.812  14.884  20.120  0.00  0.00    +0.000 A 
ATOM     26  N   UNL     1       5.007  15.451  20.347  0.00  0.00    +0.000 NA
ATOM     27  C   UNL     1       5.916  15.468  19.339  0.00  0.00    +0.000 A 
ATOM     28  C   UNL     1       5.661  14.945  18.087  0.00  0.00    +0.000 A 
ATOM     29  C   UNL     1       4.418  14.355  17.865  0.00  0.00    +0.000 A 
ATOM     30  C   UNL     1       3.455  14.288  18.904  0.00  0.00    +0.000 A 
ATOM     31  C   UNL     1       2.173  13.677  18.774  0.00  0.00    +0.000 A 
ATOM     32  C   UNL     1       1.219  13.622  19.836  0.00  0.00    +0.000 A 
ENDBRANCH  20  32
ENDBRANCH   1  20
TORSDOF 3
ENDMDL
