MODEL 1
REMARK VINA RESULT:      -7.6      0.000      0.000
REMARK  Name = 
REMARK  5 active torsions:
REMARK  status: ('A' for Active; 'I' for Inactive)
REMARK    1  A    between atoms: C_1  and  N_2
REMARK    2  A    between atoms: C_4  and  S_5
REMARK    3  A    between atoms: S_5  and  N_8
REMARK    4  A    between atoms: N_8  and  C_9
REMARK    5  A    between atoms: N_13  and  C_14
REMARK                            x       y       z     vdW  Elec       q    Type
REMARK                         _______ _______ _______ _____ _____    ______ ____
ROOT
ATOM      1  C   UNL     1       5.816   3.918  15.801  0.00  0.00    +0.000 A 
ATOM      2  C   UNL     1       5.747   3.496  14.496  0.00  0.00    +0.000 A 
ATOM      3  C   UNL     1       6.477   4.464  13.781  0.00  0.00    +0.000 A 
ATOM      4  N   UNL     1       6.969   5.422  14.568  0.00  0.00    +0.000 NA
ATOM      5  N   UNL     1       6.639   5.038  15.827  0.00  0.00    +0.000 N 
ENDROOT
BRANCH   5   6
ATOM      6  C   UNL     1       7.191   5.690  16.958  0.00  0.00    +0.000 A 
ATOM      7  C   UNL     1       7.500   4.968  18.120  0.00  0.00    +0.000 A 
ATOM      8  C   UNL     1       8.050   5.624  19.223  0.00  0.00    +0.000 A 
ATOM      9  C   UNL     1       8.271   7.001  19.178  0.00  0.00    +0.000 A 
ATOM     10  C   UNL     1       7.974   7.714  18.017  0.00  0.00    +0.000 A 
ATOM     11 CL   UNL     1       8.227   9.414  17.977  0.00  0.00    +0.000 Cl
ATOM     12  C   UNL     1       7.459   7.064  16.895  0.00  0.00    +0.000 A 
ENDBRANCH   5   6
BRANCH   1  13
ATOM     13  N   UNL     1       5.088   3.360  16.835  0.00  0.00    +0.000 N 
ATOM     14  H   UNL     1       5.261   2.413  17.125  0.00  0.00    +0.000 HD
BRANCH  13  15
ATOM     15  S   UNL     1       3.607   3.945  17.223  0.00  0.00    +0.000 S 
ATOM     16  O   UNL     1       2.554   3.359  16.414  0.00  0.00    +0.000 OA
ATOM     17  O   UNL     1       3.690   5.363  17.459  0.00  0.00    +0.000 OA
BRANCH  15  21
ATOM     18  C   UNL     1       1.619   2.559  21.890  0.00  0.00    +0.000 C 
ATOM     19  N   UNL     1       2.482   2.762  20.749  0.00  0.00    +0.000 N 
ATOM     20  C   UNL     1       2.160   3.339  19.551  0.00  0.00    +0.000 A 
ATOM     21  C   UNL     1       3.318   3.302  18.802  0.00  0.00    +0.000 A 
ATOM     22  C   UNL     1       4.278   2.693  19.623  0.00  0.00    +0.000 A 
ATOM     23  N   UNL     1       3.775   2.405  20.825  0.00  0.00    +0.000 NA
ENDBRANCH  15  21
ENDBRANCH  13  15
ENDBRANCH   1  13
TORSDOF 4
ENDMDL
MODEL 2
REMARK VINA RESULT:      -7.5      1.785      2.094
REMARK  Name = 
REMARK  5 active torsions:
REMARK  status: ('A' for Active; 'I' for Inactive)
REMARK    1  A    between atoms: C_1  and  N_2
REMARK    2  A    between atoms: C_4  and  S_5
REMARK    3  A    between atoms: S_5  and  N_8
REMARK    4  A    between atoms: N_8  and  C_9
REMARK    5  A    between atoms: N_13  and  C_14
REMARK                            x       y       z     vdW  Elec       q    Type
REMARK                         _______ _______ _______ _____ _____    ______ ____
ROOT
ATOM      1  C   UNL     1       5.320   4.873  15.773  0.00  0.00    +0.000 A 
ATOM      2  C   UNL     1       5.264   4.139  14.614  0.00  0.00    +0.000 A 
ATOM      3  C   UNL     1       6.548   4.279  14.055  0.00  0.00    +0.000 A 
ATOM      4  N   UNL     1       7.354   5.039  14.800  0.00  0.00    +0.000 NA
ATOM      5  N   UNL     1       6.625   5.331  15.907  0.00  0.00    +0.000 N 
ENDROOT
BRANCH   5   6
ATOM      6  C   UNL     1       7.228   5.935  17.039  0.00  0.00    +0.000 A 
ATOM      7  C   UNL     1       7.536   5.174  18.176  0.00  0.00    +0.000 A 
ATOM      8  C   UNL     1       8.136   5.782  19.281  0.00  0.00    +0.000 A 
ATOM      9  C   UNL     1       8.408   7.150  19.262  0.00  0.00    +0.000 A 
ATOM     10  C   UNL     1       8.111   7.902  18.125  0.00  0.00    +0.000 A 
ATOM     11 CL   UNL     1       8.428   9.592  18.119  0.00  0.00    +0.000 Cl
ATOM     12  C   UNL     1       7.546   7.299  17.002  0.00  0.00    +0.000 A 
ENDBRANCH   5   6
BRANCH   1  13
ATOM     13  N   UNL     1       4.221   5.161  16.561  0.00  0.00    +0.000 N 
ATOM     14  H   UNL     1       4.018   6.109  16.825  0.00  0.00    +0.000 HD
BRANCH  13  15
ATOM     15  S   UNL     1       3.574   4.015  17.540  0.00  0.00    +0.000 S 
ATOM     16  O   UNL     1       4.590   3.268  18.260  0.00  0.00    +0.000 OA
ATOM     17  O   UNL     1       2.479   3.364  16.870  0.00  0.00    +0.000 OA
BRANCH  15  21
ATOM     18  C   UNL     1       1.643   7.784  20.657  0.00  0.00    +0.000 C 
ATOM     19  N   UNL     1       2.018   6.516  20.073  0.00  0.00    +0.000 N 
ATOM     20  C   UNL     1       2.649   6.303  18.878  0.00  0.00    +0.000 A 
ATOM     21  C   UNL     1       2.787   4.934  18.775  0.00  0.00    +0.000 A 
ATOM     22  C   UNL     1       2.219   4.409  19.946  0.00  0.00    +0.000 A 
ATOM     23  N   UNL     1       1.791   5.381  20.754  0.00  0.00    +0.000 NA
ENDBRANCH  15  21
ENDBRANCH  13  15
ENDBRANCH   1  13
TORSDOF 4
ENDMDL
MODEL 3
REMARK VINA RESULT:      -7.5      3.649      5.983
REMARK  Name = 
REMARK  5 active torsions:
REMARK  status: ('A' for Active; 'I' for Inactive)
REMARK    1  A    between atoms: C_1  and  N_2
REMARK    2  A    between atoms: C_4  and  S_5
REMARK    3  A    between atoms: S_5  and  N_8
REMARK    4  A    between atoms: N_8  and  C_9
REMARK    5  A    between atoms: N_13  and  C_14
REMARK                            x       y       z     vdW  Elec       q    Type
REMARK                         _______ _______ _______ _____ _____    ______ ____
ROOT
ATOM      1  C   UNL     1       4.837   4.866  19.154  0.00  0.00    +0.000 A 
ATOM      2  C   UNL     1       4.959   3.509  18.981  0.00  0.00    +0.000 A 
ATOM      3  C   UNL     1       3.632   3.040  18.982  0.00  0.00    +0.000 A 
ATOM      4  N   UNL     1       2.741   4.020  19.141  0.00  0.00    +0.000 NA
ATOM      5  N   UNL     1       3.479   5.159  19.156  0.00  0.00    +0.000 N 
ENDROOT
BRANCH   5   6
ATOM      6  C   UNL     1       2.859   6.432  19.080  0.00  0.00    +0.000 A 
ATOM      7  C   UNL     1       2.907   7.180  17.894  0.00  0.00    +0.000 A 
ATOM      8  C   UNL     1       2.285   8.429  17.833  0.00  0.00    +0.000 A 
ATOM      9  C   UNL     1       1.636   8.942  18.956  0.00  0.00    +0.000 A 
ATOM     10  C   UNL     1       1.581   8.190  20.130  0.00  0.00    +0.000 A 
ATOM     11 CL   UNL     1       0.800   8.840  21.517  0.00  0.00    +0.000 Cl
ATOM     12  C   UNL     1       2.165   6.926  20.192  0.00  0.00    +0.000 A 
ENDBRANCH   5   6
BRANCH   1  13
ATOM     13  N   UNL     1       5.902   5.715  19.389  0.00  0.00    +0.000 N 
ATOM     14  H   UNL     1       5.764   6.580  19.883  0.00  0.00    +0.000 HD
BRANCH  13  15
ATOM     15  S   UNL     1       7.233   5.667  18.433  0.00  0.00    +0.000 S 
ATOM     16  O   UNL     1       8.039   4.484  18.670  0.00  0.00    +0.000 OA
ATOM     17  O   UNL     1       7.814   6.981  18.341  0.00  0.00    +0.000 OA
BRANCH  15  21
ATOM     18  C   UNL     1       6.072   3.934  13.606  0.00  0.00    +0.000 C 
ATOM     19  N   UNL     1       6.141   4.693  14.834  0.00  0.00    +0.000 N 
ATOM     20  C   UNL     1       6.837   4.381  15.970  0.00  0.00    +0.000 A 
ATOM     21  C   UNL     1       6.587   5.414  16.850  0.00  0.00    +0.000 A 
ATOM     22  C   UNL     1       5.740   6.297  16.163  0.00  0.00    +0.000 A 
ATOM     23  N   UNL     1       5.507   5.875  14.919  0.00  0.00    +0.000 NA
ENDBRANCH  15  21
ENDBRANCH  13  15
ENDBRANCH   1  13
TORSDOF 4
ENDMDL
MODEL 4
REMARK VINA RESULT:      -7.5      3.427      6.142
REMARK  Name = 
REMARK  5 active torsions:
REMARK  status: ('A' for Active; 'I' for Inactive)
REMARK    1  A    between atoms: C_1  and  N_2
REMARK    2  A    between atoms: C_4  and  S_5
REMARK    3  A    between atoms: S_5  and  N_8
REMARK    4  A    between atoms: N_8  and  C_9
REMARK    5  A    between atoms: N_13  and  C_14
REMARK                            x       y       z     vdW  Elec       q    Type
REMARK                         _______ _______ _______ _____ _____    ______ ____
ROOT
ATOM      1  C   UNL     1       4.706   3.983  19.271  0.00  0.00    +0.000 A 
ATOM      2  C   UNL     1       4.607   2.613  19.298  0.00  0.00    +0.000 A 
ATOM      3  C   UNL     1       3.238   2.371  19.515  0.00  0.00    +0.000 A 
ATOM      4  N   UNL     1       2.526   3.495  19.616  0.00  0.00    +0.000 NA
ATOM      5  N   UNL     1       3.417   4.490  19.375  0.00  0.00    +0.000 N 
ENDROOT
BRANCH   5   6
ATOM      6  C   UNL     1       2.983   5.824  19.170  0.00  0.00    +0.000 A 
ATOM      7  C   UNL     1       3.247   6.484  17.960  0.00  0.00    +0.000 A 
ATOM      8  C   UNL     1       2.806   7.795  17.771  0.00  0.00    +0.000 A 
ATOM      9  C   UNL     1       2.124   8.457  18.793  0.00  0.00    +0.000 A 
ATOM     10  C   UNL     1       1.854   7.795  19.990  0.00  0.00    +0.000 A 
ATOM     11 CL   UNL     1       1.034   8.625  21.253  0.00  0.00    +0.000 Cl
ATOM     12  C   UNL     1       2.255   6.472  20.177  0.00  0.00    +0.000 A 
ENDBRANCH   5   6
BRANCH   1  13
ATOM     13  N   UNL     1       5.904   4.673  19.256  0.00  0.00    +0.000 N 
ATOM     14  H   UNL     1       6.085   5.395  19.931  0.00  0.00    +0.000 HD
BRANCH  13  15
ATOM     15  S   UNL     1       6.790   4.773  17.880  0.00  0.00    +0.000 S 
ATOM     16  O   UNL     1       5.978   4.613  16.688  0.00  0.00    +0.000 OA
ATOM     17  O   UNL     1       8.038   4.076  18.053  0.00  0.00    +0.000 OA
BRANCH  15  21
ATOM     18  C   UNL     1       8.910   9.507  18.747  0.00  0.00    +0.000 C 
ATOM     19  N   UNL     1       8.143   8.399  18.224  0.00  0.00    +0.000 N 
ATOM     20  C   UNL     1       8.190   7.090  18.621  0.00  0.00    +0.000 A 
ATOM     21  C   UNL     1       7.273   6.432  17.828  0.00  0.00    +0.000 A 
ATOM     22  C   UNL     1       6.723   7.416  16.992  0.00  0.00    +0.000 A 
ATOM     23  N   UNL     1       7.226   8.621  17.268  0.00  0.00    +0.000 NA
ENDBRANCH  15  21
ENDBRANCH  13  15
ENDBRANCH   1  13
TORSDOF 4
ENDMDL
MODEL 5
REMARK VINA RESULT:      -7.4      3.168      6.531
REMARK  Name = 
REMARK  5 active torsions:
REMARK  status: ('A' for Active; 'I' for Inactive)
REMARK    1  A    between atoms: C_1  and  N_2
REMARK    2  A    between atoms: C_4  and  S_5
REMARK    3  A    between atoms: S_5  and  N_8
REMARK    4  A    between atoms: N_8  and  C_9
REMARK    5  A    between atoms: N_13  and  C_14
REMARK                            x       y       z     vdW  Elec       q    Type
REMARK                         _______ _______ _______ _____ _____    ______ ____
ROOT
ATOM      1  C   UNL     1       6.358   4.573  17.674  0.00  0.00    +0.000 A 
ATOM      2  C   UNL     1       7.598   4.847  18.197  0.00  0.00    +0.000 A 
ATOM      3  C   UNL     1       7.330   5.290  19.506  0.00  0.00    +0.000 A 
ATOM      4  N   UNL     1       6.027   5.295  19.790  0.00  0.00    +0.000 NA
ATOM      5  N   UNL     1       5.432   4.767  18.691  0.00  0.00    +0.000 N 
ENDROOT
BRANCH   5   6
ATOM      6  C   UNL     1       4.063   4.399  18.707  0.00  0.00    +0.000 A 
ATOM      7  C   UNL     1       3.233   4.681  17.612  0.00  0.00    +0.000 A 
ATOM      8  C   UNL     1       1.888   4.306  17.641  0.00  0.00    +0.000 A 
ATOM      9  C   UNL     1       1.365   3.671  18.768  0.00  0.00    +0.000 A 
ATOM     10  C   UNL     1       2.195   3.382  19.851  0.00  0.00    +0.000 A 
ATOM     11 CL   UNL     1       1.537   2.621  21.245  0.00  0.00    +0.000 Cl
ATOM     12  C   UNL     1       3.548   3.718  19.819  0.00  0.00    +0.000 A 
ENDBRANCH   5   6
BRANCH   1  13
ATOM     13  N   UNL     1       6.128   4.274  16.344  0.00  0.00    +0.000 N 
ATOM     14  H   UNL     1       6.136   3.320  16.028  0.00  0.00    +0.000 HD
BRANCH  13  15
ATOM     15  S   UNL     1       6.404   5.393  15.178  0.00  0.00    +0.000 S 
ATOM     16  O   UNL     1       7.750   5.931  15.238  0.00  0.00    +0.000 OA
ATOM     17  O   UNL     1       5.248   6.240  15.032  0.00  0.00    +0.000 OA
BRANCH  15  21
ATOM     18  C   UNL     1       5.475   1.939  11.323  0.00  0.00    +0.000 C 
ATOM     19  N   UNL     1       6.014   3.003  12.139  0.00  0.00    +0.000 N 
ATOM     20  C   UNL     1       5.543   3.449  13.344  0.00  0.00    +0.000 A 
ATOM     21  C   UNL     1       6.396   4.467  13.717  0.00  0.00    +0.000 A 
ATOM     22  C   UNL     1       7.344   4.561  12.687  0.00  0.00    +0.000 A 
ATOM     23  N   UNL     1       7.132   3.637  11.748  0.00  0.00    +0.000 NA
ENDBRANCH  15  21
ENDBRANCH  13  15
ENDBRANCH   1  13
TORSDOF 4
ENDMDL
MODEL 6
REMARK VINA RESULT:      -7.4      2.896      5.740
REMARK  Name = 
REMARK  5 active torsions:
REMARK  status: ('A' for Active; 'I' for Inactive)
REMARK    1  A    between atoms: C_1  and  N_2
REMARK    2  A    between atoms: C_4  and  S_5
REMARK    3  A    between atoms: S_5  and  N_8
REMARK    4  A    between atoms: N_8  and  C_9
REMARK    5  A    between atoms: N_13  and  C_14
REMARK                            x       y       z     vdW  Elec       q    Type
REMARK                         _______ _______ _______ _____ _____    ______ ____
ROOT
ATOM      1  C   UNL     1       3.900   3.496  18.217  0.00  0.00    +0.000 A 
ATOM      2  C   UNL     1       3.654   2.253  17.687  0.00  0.00    +0.000 A 
ATOM      3  C   UNL     1       2.312   1.994  18.023  0.00  0.00    +0.000 A 
ATOM      4  N   UNL     1       1.752   2.993  18.709  0.00  0.00    +0.000 NA
ATOM      5  N   UNL     1       2.704   3.959  18.751  0.00  0.00    +0.000 N 
ENDROOT
BRANCH   5   6
ATOM      6  C   UNL     1       2.397   5.267  19.202  0.00  0.00    +0.000 A 
ATOM      7  C   UNL     1       1.968   5.487  20.520  0.00  0.00    +0.000 A 
ATOM      8  C   UNL     1       1.676   6.782  20.951  0.00  0.00    +0.000 A 
ATOM      9  C   UNL     1       1.790   7.855  20.066  0.00  0.00    +0.000 A 
ATOM     10  C   UNL     1       2.227   7.635  18.760  0.00  0.00    +0.000 A 
ATOM     11 CL   UNL     1       2.341   8.959  17.669  0.00  0.00    +0.000 Cl
ATOM     12  C   UNL     1       2.558   6.351  18.328  0.00  0.00    +0.000 A 
ENDBRANCH   5   6
BRANCH   1  13
ATOM     13  N   UNL     1       5.153   4.077  18.277  0.00  0.00    +0.000 N 
ATOM     14  H   UNL     1       5.531   4.381  19.157  0.00  0.00    +0.000 HD
BRANCH  13  15
ATOM     15  S   UNL     1       5.799   4.803  16.957  0.00  0.00    +0.000 S 
ATOM     16  O   UNL     1       4.803   5.513  16.175  0.00  0.00    +0.000 OA
ATOM     17  O   UNL     1       6.769   3.932  16.347  0.00  0.00    +0.000 OA
BRANCH  15  21
ATOM     18  C   UNL     1       8.340   9.288  17.999  0.00  0.00    +0.000 C 
ATOM     19  N   UNL     1       7.843   7.931  18.023  0.00  0.00    +0.000 N 
ATOM     20  C   UNL     1       6.890   7.378  17.211  0.00  0.00    +0.000 A 
ATOM     21  C   UNL     1       6.773   6.066  17.625  0.00  0.00    +0.000 A 
ATOM     22  C   UNL     1       7.688   5.921  18.679  0.00  0.00    +0.000 A 
ATOM     23  N   UNL     1       8.368   7.049  18.889  0.00  0.00    +0.000 NA
ENDBRANCH  15  21
ENDBRANCH  13  15
ENDBRANCH   1  13
TORSDOF 4
ENDMDL
MODEL 7
REMARK VINA RESULT:      -7.3      2.854      4.419
REMARK  Name = 
REMARK  5 active torsions:
REMARK  status: ('A' for Active; 'I' for Inactive)
REMARK    1  A    between atoms: C_1  and  N_2
REMARK    2  A    between atoms: C_4  and  S_5
REMARK    3  A    between atoms: S_5  and  N_8
REMARK    4  A    between atoms: N_8  and  C_9
REMARK    5  A    between atoms: N_13  and  C_14
REMARK                            x       y       z     vdW  Elec       q    Type
REMARK                         _______ _______ _______ _____ _____    ______ ____
ROOT
ATOM      1  C   UNL     1       5.696   4.700  16.941  0.00  0.00    +0.000 A 
ATOM      2  C   UNL     1       6.132   4.926  18.223  0.00  0.00    +0.000 A 
ATOM      3  C   UNL     1       7.531   4.790  18.141  0.00  0.00    +0.000 A 
ATOM      4  N   UNL     1       7.947   4.501  16.906  0.00  0.00    +0.000 NA
ATOM      5  N   UNL     1       6.823   4.535  16.146  0.00  0.00    +0.000 N 
ENDROOT
BRANCH   5   6
ATOM      6  C   UNL     1       6.898   4.502  14.731  0.00  0.00    +0.000 A 
ATOM      7  C   UNL     1       7.775   5.352  14.041  0.00  0.00    +0.000 A 
ATOM      8  C   UNL     1       7.842   5.302  12.647  0.00  0.00    +0.000 A 
ATOM      9  C   UNL     1       7.022   4.423  11.940  0.00  0.00    +0.000 A 
ATOM     10  C   UNL     1       6.160   3.571  12.629  0.00  0.00    +0.000 A 
ATOM     11 CL   UNL     1       5.134   2.508  11.749  0.00  0.00    +0.000 Cl
ATOM     12  C   UNL     1       6.110   3.585  14.023  0.00  0.00    +0.000 A 
ENDBRANCH   5   6
BRANCH   1  13
ATOM     13  N   UNL     1       4.366   4.560  16.589  0.00  0.00    +0.000 N 
ATOM     14  H   UNL     1       3.908   5.268  16.041  0.00  0.00    +0.000 HD
BRANCH  13  15
ATOM     15  S   UNL     1       3.364   3.611  17.474  0.00  0.00    +0.000 S 
ATOM     16  O   UNL     1       4.087   2.613  18.241  0.00  0.00    +0.000 OA
ATOM     17  O   UNL     1       2.196   3.281  16.700  0.00  0.00    +0.000 OA
BRANCH  15  21
ATOM     18  C   UNL     1       1.833   7.762  20.316  0.00  0.00    +0.000 C 
ATOM     19  N   UNL     1       2.143   6.428  19.855  0.00  0.00    +0.000 N 
ATOM     20  C   UNL     1       2.601   6.057  18.620  0.00  0.00    +0.000 A 
ATOM     21  C   UNL     1       2.746   4.686  18.678  0.00  0.00    +0.000 A 
ATOM     22  C   UNL     1       2.358   4.321  19.976  0.00  0.00    +0.000 A 
ATOM     23  N   UNL     1       2.034   5.392  20.704  0.00  0.00    +0.000 NA
ENDBRANCH  15  21
ENDBRANCH  13  15
ENDBRANCH   1  13
TORSDOF 4
ENDMDL
MODEL 8
REMARK VINA RESULT:      -7.3      4.164      5.528
REMARK  Name = 
REMARK  5 active torsions:
REMARK  status: ('A' for Active; 'I' for Inactive)
REMARK    1  A    between atoms: C_1  and  N_2
REMARK    2  A    between atoms: C_4  and  S_5
REMARK    3  A    between atoms: S_5  and  N_8
REMARK    4  A    between atoms: N_8  and  C_9
REMARK    5  A    between atoms: N_13  and  C_14
REMARK                            x       y       z     vdW  Elec       q    Type
REMARK                         _______ _______ _______ _____ _____    ______ ____
ROOT
ATOM      1  C   UNL     1       3.261   4.894  19.991  0.00  0.00    +0.000 A 
ATOM      2  C   UNL     1       2.496   4.177  20.878  0.00  0.00    +0.000 A 
ATOM      3  C   UNL     1       2.761   2.833  20.554  0.00  0.00    +0.000 A 
ATOM      4  N   UNL     1       3.625   2.708  19.545  0.00  0.00    +0.000 NA
ATOM      5  N   UNL     1       4.004   3.979  19.256  0.00  0.00    +0.000 N 
ENDROOT
BRANCH   5   6
ATOM      6  C   UNL     1       5.092   4.235  18.385  0.00  0.00    +0.000 A 
ATOM      7  C   UNL     1       6.294   4.765  18.878  0.00  0.00    +0.000 A 
ATOM      8  C   UNL     1       7.359   5.005  18.007  0.00  0.00    +0.000 A 
ATOM      9  C   UNL     1       7.220   4.740  16.645  0.00  0.00    +0.000 A 
ATOM     10  C   UNL     1       6.028   4.204  16.159  0.00  0.00    +0.000 A 
ATOM     11 CL   UNL     1       5.856   3.903  14.475  0.00  0.00    +0.000 Cl
ATOM     12  C   UNL     1       4.970   3.924  17.024  0.00  0.00    +0.000 A 
ENDBRANCH   5   6
BRANCH   1  13
ATOM     13  N   UNL     1       3.179   6.265  19.830  0.00  0.00    +0.000 N 
ATOM     14  H   UNL     1       3.025   6.862  20.624  0.00  0.00    +0.000 HD
BRANCH  13  15
ATOM     15  S   UNL     1       2.756   6.910  18.383  0.00  0.00    +0.000 S 
ATOM     16  O   UNL     1       1.747   6.121  17.702  0.00  0.00    +0.000 OA
ATOM     17  O   UNL     1       3.929   7.400  17.707  0.00  0.00    +0.000 OA
BRANCH  15  21
ATOM     18  C   UNL     1       0.041  10.720  20.784  0.00  0.00    +0.000 C 
ATOM     19  N   UNL     1       0.764   9.920  19.823  0.00  0.00    +0.000 N 
ATOM     20  C   UNL     1       1.378   8.715  20.034  0.00  0.00    +0.000 A 
ATOM     21  C   UNL     1       1.920   8.360  18.815  0.00  0.00    +0.000 A 
ATOM     22  C   UNL     1       1.582   9.400  17.936  0.00  0.00    +0.000 A 
ATOM     23  N   UNL     1       0.840  10.327  18.545  0.00  0.00    +0.000 NA
ENDBRANCH  15  21
ENDBRANCH  13  15
ENDBRANCH   1  13
TORSDOF 4
ENDMDL
MODEL 9
REMARK VINA RESULT:      -7.2      4.039      5.245
REMARK  Name = 
REMARK  5 active torsions:
REMARK  status: ('A' for Active; 'I' for Inactive)
REMARK    1  A    between atoms: C_1  and  N_2
REMARK    2  A    between atoms: C_4  and  S_5
REMARK    3  A    between atoms: S_5  and  N_8
REMARK    4  A    between atoms: N_8  and  C_9
REMARK    5  A    between atoms: N_13  and  C_14
REMARK                            x       y       z     vdW  Elec       q    Type
REMARK                         _______ _______ _______ _____ _____    ______ ____
ROOT
ATOM      1  C   UNL     1       2.290   4.329  17.983  0.00  0.00    +0.000 A 
ATOM      2  C   UNL     1       1.317   3.515  18.509  0.00  0.00    +0.000 A 
ATOM      3  C   UNL     1       1.843   2.216  18.375  0.00  0.00    +0.000 A 
ATOM      4  N   UNL     1       3.053   2.208  17.812  0.00  0.00    +0.000 NA
ATOM      5  N   UNL     1       3.369   3.518  17.652  0.00  0.00    +0.000 N 
ENDROOT
BRANCH   5   6
ATOM      6  C   UNL     1       4.682   3.913  17.291  0.00  0.00    +0.000 A 
ATOM      7  C   UNL     1       5.637   4.204  18.276  0.00  0.00    +0.000 A 
ATOM      8  C   UNL     1       6.928   4.586  17.904  0.00  0.00    +0.000 A 
ATOM      9  C   UNL     1       7.260   4.699  16.554  0.00  0.00    +0.000 A 
ATOM     10  C   UNL     1       6.311   4.399  15.577  0.00  0.00    +0.000 A 
ATOM     11 CL   UNL     1       6.722   4.564  13.915  0.00  0.00    +0.000 Cl
ATOM     12  C   UNL     1       5.030   3.980  15.936  0.00  0.00    +0.000 A 
ENDBRANCH   5   6
BRANCH   1  13
ATOM     13  N   UNL     1       2.126   5.681  17.749  0.00  0.00    +0.000 N 
ATOM     14  H   UNL     1       1.681   6.001  16.905  0.00  0.00    +0.000 HD
BRANCH  13  15
ATOM     15  S   UNL     1       3.101   6.779  18.478  0.00  0.00    +0.000 S 
ATOM     16  O   UNL     1       4.107   7.308  17.575  0.00  0.00    +0.000 OA
ATOM     17  O   UNL     1       3.426   6.334  19.808  0.00  0.00    +0.000 OA
BRANCH  15  21
ATOM     18  C   UNL     1      -0.183  10.365  20.481  0.00  0.00    +0.000 C 
ATOM     19  N   UNL     1       0.666   9.589  19.606  0.00  0.00    +0.000 N 
ATOM     20  C   UNL     1       1.446   8.515  19.937  0.00  0.00    +0.000 A 
ATOM     21  C   UNL     1       2.054   8.126  18.762  0.00  0.00    +0.000 A 
ATOM     22  C   UNL     1       1.584   9.014  17.783  0.00  0.00    +0.000 A 
ATOM     23  N   UNL     1       0.704   9.877  18.294  0.00  0.00    +0.000 NA
ENDBRANCH  15  21
ENDBRANCH  13  15
ENDBRANCH   1  13
TORSDOF 4
ENDMDL
