MODEL 1
REMARK VINA RESULT:      -6.1      0.000      0.000
REMARK  Name = 
REMARK  2 active torsions:
REMARK  status: ('A' for Active; 'I' for Inactive)
REMARK    1  A    between atoms: S_1  and  C_2
REMARK    2  A    between atoms: C_6  and  C_7
REMARK                            x       y       z     vdW  Elec       q    Type
REMARK                         _______ _______ _______ _____ _____    ______ ____
ROOT
ATOM      1  C   UNL     1       6.261   4.334  16.079  0.00  0.00    +0.000 A 
ATOM      2  N   UNL     1       7.494   4.626  16.518  0.00  0.00    +0.000 NA
ATOM      3  C   UNL     1       7.605   4.883  17.833  0.00  0.00    +0.000 A 
ATOM      4  C   UNL     1       6.540   4.869  18.700  0.00  0.00    +0.000 A 
ATOM      5  C   UNL     1       5.313   4.557  18.146  0.00  0.00    +0.000 A 
ATOM      6  N   UNL     1       5.162   4.272  16.843  0.00  0.00    +0.000 NA
ENDROOT
BRANCH   5   7
ATOM      7  C   UNL     1       4.114   4.478  18.985  0.00  0.00    +0.000 A 
ATOM      8  C   UNL     1       3.753   3.378  19.846  0.00  0.00    +0.000 A 
ATOM      9  C   UNL     1       2.575   3.611  20.509  0.00  0.00    +0.000 A 
ATOM     10 CL   UNL     1       1.811   2.561  21.631  0.00  0.00    +0.000 Cl
ATOM     11  S   UNL     1       1.876   5.099  20.133  0.00  0.00    +0.000 S 
ATOM     12  C   UNL     1       3.153   5.471  19.069  0.00  0.00    +0.000 A 
ATOM     13 CL   UNL     1       3.090   7.014  18.297  0.00  0.00    +0.000 Cl
ENDBRANCH   5   7
BRANCH   1  14
ATOM     14  S   UNL     1       6.083   4.030  14.349  0.00  0.00    +0.000 S 
ATOM     15  H   UNL     1       6.493   2.760  14.445  0.00  0.00    +0.000 HD
ENDBRANCH   1  14
TORSDOF 2
ENDMDL
MODEL 2
REMARK VINA RESULT:      -6.0      1.586      2.070
REMARK  Name = 
REMARK  2 active torsions:
REMARK  status: ('A' for Active; 'I' for Inactive)
REMARK    1  A    between atoms: S_1  and  C_2
REMARK    2  A    between atoms: C_6  and  C_7
REMARK                            x       y       z     vdW  Elec       q    Type
REMARK                         _______ _______ _______ _____ _____    ______ ____
ROOT
ATOM      1  C   UNL     1       6.351   4.274  15.669  0.00  0.00    +0.000 A 
ATOM      2  N   UNL     1       7.583   4.406  16.183  0.00  0.00    +0.000 NA
ATOM      3  C   UNL     1       7.647   4.626  17.507  0.00  0.00    +0.000 A 
ATOM      4  C   UNL     1       6.539   4.729  18.313  0.00  0.00    +0.000 A 
ATOM      5  C   UNL     1       5.318   4.578  17.685  0.00  0.00    +0.000 A 
ATOM      6  N   UNL     1       5.210   4.334  16.368  0.00  0.00    +0.000 NA
ENDROOT
BRANCH   5   7
ATOM      7  C   UNL     1       4.071   4.633  18.452  0.00  0.00    +0.000 A 
ATOM      8  C   UNL     1       3.580   5.770  19.192  0.00  0.00    +0.000 A 
ATOM      9  C   UNL     1       2.377   5.509  19.795  0.00  0.00    +0.000 A 
ATOM     10 CL   UNL     1       1.457   6.598  20.752  0.00  0.00    +0.000 Cl
ATOM     11  S   UNL     1       1.813   3.944  19.518  0.00  0.00    +0.000 S 
ATOM     12  C   UNL     1       3.178   3.581  18.566  0.00  0.00    +0.000 A 
ATOM     13 CL   UNL     1       3.232   2.006  17.862  0.00  0.00    +0.000 Cl
ENDBRANCH   5   7
BRANCH   1  14
ATOM     14  S   UNL     1       6.239   4.020  13.925  0.00  0.00    +0.000 S 
ATOM     15  H   UNL     1       6.833   2.823  13.976  0.00  0.00    +0.000 HD
ENDBRANCH   1  14
TORSDOF 2
ENDMDL
MODEL 3
REMARK VINA RESULT:      -5.9      2.917      5.406
REMARK  Name = 
REMARK  2 active torsions:
REMARK  status: ('A' for Active; 'I' for Inactive)
REMARK    1  A    between atoms: S_1  and  C_2
REMARK    2  A    between atoms: C_6  and  C_7
REMARK                            x       y       z     vdW  Elec       q    Type
REMARK                         _______ _______ _______ _____ _____    ______ ____
ROOT
ATOM      1  C   UNL     1       2.273   4.190  20.481  0.00  0.00    +0.000 A 
ATOM      2  N   UNL     1       1.692   5.373  20.732  0.00  0.00    +0.000 NA
ATOM      3  C   UNL     1       2.150   6.416  20.020  0.00  0.00    +0.000 A 
ATOM      4  C   UNL     1       3.158   6.316  19.093  0.00  0.00    +0.000 A 
ATOM      5  C   UNL     1       3.690   5.053  18.910  0.00  0.00    +0.000 A 
ATOM      6  N   UNL     1       3.246   3.981  19.585  0.00  0.00    +0.000 NA
ENDROOT
BRANCH   5   7
ATOM      7  C   UNL     1       4.746   4.824  17.920  0.00  0.00    +0.000 A 
ATOM      8  C   UNL     1       4.551   4.404  16.554  0.00  0.00    +0.000 A 
ATOM      9  C   UNL     1       5.738   4.288  15.878  0.00  0.00    +0.000 A 
ATOM     10 CL   UNL     1       5.937   3.827  14.236  0.00  0.00    +0.000 Cl
ATOM     11  S   UNL     1       7.086   4.656  16.822  0.00  0.00    +0.000 S 
ATOM     12  C   UNL     1       6.098   4.990  18.168  0.00  0.00    +0.000 A 
ATOM     13 CL   UNL     1       6.900   5.515  19.604  0.00  0.00    +0.000 Cl
ENDBRANCH   5   7
BRANCH   1  14
ATOM     14  S   UNL     1       1.714   2.810  21.431  0.00  0.00    +0.000 S 
ATOM     15  H   UNL     1       0.941   3.562  22.224  0.00  0.00    +0.000 HD
ENDBRANCH   1  14
TORSDOF 2
ENDMDL
MODEL 4
REMARK VINA RESULT:      -5.8      1.481      1.484
REMARK  Name = 
REMARK  2 active torsions:
REMARK  status: ('A' for Active; 'I' for Inactive)
REMARK    1  A    between atoms: S_1  and  C_2
REMARK    2  A    between atoms: C_6  and  C_7
REMARK                            x       y       z     vdW  Elec       q    Type
REMARK                         _______ _______ _______ _____ _____    ______ ____
ROOT
ATOM      1  C   UNL     1       6.635   4.390  15.308  0.00  0.00    +0.000 A 
ATOM      2  N   UNL     1       7.734   4.558  16.059  0.00  0.00    +0.000 NA
ATOM      3  C   UNL     1       7.532   4.647  17.384  0.00  0.00    +0.000 A 
ATOM      4  C   UNL     1       6.291   4.585  17.968  0.00  0.00    +0.000 A 
ATOM      5  C   UNL     1       5.224   4.411  17.106  0.00  0.00    +0.000 A 
ATOM      6  N   UNL     1       5.384   4.295  15.778  0.00  0.00    +0.000 NA
ENDROOT
BRANCH   5   7
ATOM      7  C   UNL     1       3.858   4.296  17.622  0.00  0.00    +0.000 A 
ATOM      8  C   UNL     1       3.141   3.066  17.858  0.00  0.00    +0.000 A 
ATOM      9  C   UNL     1       1.884   3.292  18.355  0.00  0.00    +0.000 A 
ATOM     10 CL   UNL     1       0.724   2.099  18.778  0.00  0.00    +0.000 Cl
ATOM     11  S   UNL     1       1.521   4.928  18.544  0.00  0.00    +0.000 S 
ATOM     12  C   UNL     1       3.060   5.374  17.966  0.00  0.00    +0.000 A 
ATOM     13 CL   UNL     1       3.413   7.063  17.931  0.00  0.00    +0.000 Cl
ENDBRANCH   5   7
BRANCH   1  14
ATOM     14  S   UNL     1       6.869   4.307  13.560  0.00  0.00    +0.000 S 
ATOM     15  H   UNL     1       7.666   5.382  13.531  0.00  0.00    +0.000 HD
ENDBRANCH   1  14
TORSDOF 2
ENDMDL
MODEL 5
REMARK VINA RESULT:      -5.7      1.824      2.017
REMARK  Name = 
REMARK  2 active torsions:
REMARK  status: ('A' for Active; 'I' for Inactive)
REMARK    1  A    between atoms: S_1  and  C_2
REMARK    2  A    between atoms: C_6  and  C_7
REMARK                            x       y       z     vdW  Elec       q    Type
REMARK                         _______ _______ _______ _____ _____    ______ ____
ROOT
ATOM      1  C   UNL     1       6.881   6.601  17.259  0.00  0.00    +0.000 A 
ATOM      2  N   UNL     1       7.212   5.897  16.166  0.00  0.00    +0.000 NA
ATOM      3  C   UNL     1       6.472   4.802  15.925  0.00  0.00    +0.000 A 
ATOM      4  C   UNL     1       5.440   4.392  16.733  0.00  0.00    +0.000 A 
ATOM      5  C   UNL     1       5.181   5.186  17.834  0.00  0.00    +0.000 A 
ATOM      6  N   UNL     1       5.882   6.301  18.099  0.00  0.00    +0.000 NA
ENDROOT
BRANCH   5   7
ATOM      7  C   UNL     1       4.080   4.863  18.745  0.00  0.00    +0.000 A 
ATOM      8  C   UNL     1       4.018   3.725  19.630  0.00  0.00    +0.000 A 
ATOM      9  C   UNL     1       2.860   3.708  20.364  0.00  0.00    +0.000 A 
ATOM     10 CL   UNL     1       2.410   2.535  21.533  0.00  0.00    +0.000 Cl
ATOM     11  S   UNL     1       1.834   5.004  20.029  0.00  0.00    +0.000 S 
ATOM     12  C   UNL     1       2.934   5.627  18.887  0.00  0.00    +0.000 A 
ATOM     13 CL   UNL     1       2.493   7.108  18.118  0.00  0.00    +0.000 Cl
ENDBRANCH   5   7
BRANCH   1  14
ATOM     14  S   UNL     1       7.862   8.024  17.618  0.00  0.00    +0.000 S 
ATOM     15  H   UNL     1       8.173   8.238  16.334  0.00  0.00    +0.000 HD
ENDBRANCH   1  14
TORSDOF 2
ENDMDL
MODEL 6
REMARK VINA RESULT:      -5.7      2.158      2.361
REMARK  Name = 
REMARK  2 active torsions:
REMARK  status: ('A' for Active; 'I' for Inactive)
REMARK    1  A    between atoms: S_1  and  C_2
REMARK    2  A    between atoms: C_6  and  C_7
REMARK                            x       y       z     vdW  Elec       q    Type
REMARK                         _______ _______ _______ _____ _____    ______ ____
ROOT
ATOM      1  C   UNL     1       6.950   6.554  16.977  0.00  0.00    +0.000 A 
ATOM      2  N   UNL     1       7.488   6.015  15.873  0.00  0.00    +0.000 NA
ATOM      3  C   UNL     1       6.834   4.962  15.354  0.00  0.00    +0.000 A 
ATOM      4  C   UNL     1       5.689   4.437  15.901  0.00  0.00    +0.000 A 
ATOM      5  C   UNL     1       5.217   5.066  17.038  0.00  0.00    +0.000 A 
ATOM      6  N   UNL     1       5.828   6.134  17.576  0.00  0.00    +0.000 NA
ENDROOT
BRANCH   5   7
ATOM      7  C   UNL     1       3.984   4.612  17.685  0.00  0.00    +0.000 A 
ATOM      8  C   UNL     1       3.654   3.248  18.021  0.00  0.00    +0.000 A 
ATOM      9  C   UNL     1       2.430   3.151  18.630  0.00  0.00    +0.000 A 
ATOM     10 CL   UNL     1       1.681   1.713  19.194  0.00  0.00    +0.000 Cl
ATOM     11  S   UNL     1       1.650   4.636  18.810  0.00  0.00    +0.000 S 
ATOM     12  C   UNL     1       2.953   5.450  18.076  0.00  0.00    +0.000 A 
ATOM     13 CL   UNL     1       2.825   7.168  17.963  0.00  0.00    +0.000 Cl
ENDBRANCH   5   7
BRANCH   1  14
ATOM     14  S   UNL     1       7.812   7.915  17.700  0.00  0.00    +0.000 S 
ATOM     15  H   UNL     1       6.894   8.098  18.656  0.00  0.00    +0.000 HD
ENDBRANCH   1  14
TORSDOF 2
ENDMDL
MODEL 7
REMARK VINA RESULT:      -5.6      1.674      2.954
REMARK  Name = 
REMARK  2 active torsions:
REMARK  status: ('A' for Active; 'I' for Inactive)
REMARK    1  A    between atoms: S_1  and  C_2
REMARK    2  A    between atoms: C_6  and  C_7
REMARK                            x       y       z     vdW  Elec       q    Type
REMARK                         _______ _______ _______ _____ _____    ______ ____
ROOT
ATOM      1  C   UNL     1       6.402   4.535  15.561  0.00  0.00    +0.000 A 
ATOM      2  N   UNL     1       7.550   4.284  16.207  0.00  0.00    +0.000 NA
ATOM      3  C   UNL     1       7.602   4.683  17.489  0.00  0.00    +0.000 A 
ATOM      4  C   UNL     1       6.568   5.323  18.127  0.00  0.00    +0.000 A 
ATOM      5  C   UNL     1       5.430   5.534  17.372  0.00  0.00    +0.000 A 
ATOM      6  N   UNL     1       5.328   5.131  16.095  0.00  0.00    +0.000 NA
ENDROOT
BRANCH   5   7
ATOM      7  C   UNL     1       4.251   6.176  17.960  0.00  0.00    +0.000 A 
ATOM      8  C   UNL     1       3.671   7.429  17.543  0.00  0.00    +0.000 A 
ATOM      9  C   UNL     1       2.565   7.755  18.285  0.00  0.00    +0.000 A 
ATOM     10 CL   UNL     1       1.586   9.153  18.098  0.00  0.00    +0.000 Cl
ATOM     11  S   UNL     1       2.197   6.618  19.475  0.00  0.00    +0.000 S 
ATOM     12  C   UNL     1       3.519   5.650  19.011  0.00  0.00    +0.000 A 
ATOM     13 CL   UNL     1       3.729   4.166  19.869  0.00  0.00    +0.000 Cl
ENDBRANCH   5   7
BRANCH   1  14
ATOM     14  S   UNL     1       6.321   4.053  13.864  0.00  0.00    +0.000 S 
ATOM     15  H   UNL     1       7.536   3.492  13.878  0.00  0.00    +0.000 HD
ENDBRANCH   1  14
TORSDOF 2
ENDMDL
MODEL 8
REMARK VINA RESULT:      -5.5      2.866      5.385
REMARK  Name = 
REMARK  2 active torsions:
REMARK  status: ('A' for Active; 'I' for Inactive)
REMARK    1  A    between atoms: S_1  and  C_2
REMARK    2  A    between atoms: C_6  and  C_7
REMARK                            x       y       z     vdW  Elec       q    Type
REMARK                         _______ _______ _______ _____ _____    ______ ____
ROOT
ATOM      1  C   UNL     1       2.423   6.163  19.974  0.00  0.00    +0.000 A 
ATOM      2  N   UNL     1       1.920   5.165  20.715  0.00  0.00    +0.000 NA
ATOM      3  C   UNL     1       2.431   3.944  20.482  0.00  0.00    +0.000 A 
ATOM      4  C   UNL     1       3.399   3.695  19.540  0.00  0.00    +0.000 A 
ATOM      5  C   UNL     1       3.849   4.791  18.829  0.00  0.00    +0.000 A 
ATOM      6  N   UNL     1       3.382   6.031  19.048  0.00  0.00    +0.000 NA
ENDROOT
BRANCH   5   7
ATOM      7  C   UNL     1       4.906   4.648  17.825  0.00  0.00    +0.000 A 
ATOM      8  C   UNL     1       4.728   4.204  16.464  0.00  0.00    +0.000 A 
ATOM      9  C   UNL     1       5.910   4.188  15.770  0.00  0.00    +0.000 A 
ATOM     10 CL   UNL     1       6.124   3.736  14.128  0.00  0.00    +0.000 Cl
ATOM     11  S   UNL     1       7.235   4.677  16.692  0.00  0.00    +0.000 S 
ATOM     12  C   UNL     1       6.242   4.932  18.051  0.00  0.00    +0.000 A 
ATOM     13 CL   UNL     1       7.017   5.534  19.472  0.00  0.00    +0.000 Cl
ENDBRANCH   5   7
BRANCH   1  14
ATOM     14  S   UNL     1       1.744   7.771  20.236  0.00  0.00    +0.000 S 
ATOM     15  H   UNL     1       2.597   8.361  19.391  0.00  0.00    +0.000 HD
ENDBRANCH   1  14
TORSDOF 2
ENDMDL
MODEL 9
REMARK VINA RESULT:      -5.5      3.644      5.759
REMARK  Name = 
REMARK  2 active torsions:
REMARK  status: ('A' for Active; 'I' for Inactive)
REMARK    1  A    between atoms: S_1  and  C_2
REMARK    2  A    between atoms: C_6  and  C_7
REMARK                            x       y       z     vdW  Elec       q    Type
REMARK                         _______ _______ _______ _____ _____    ______ ____
ROOT
ATOM      1  C   UNL     1       1.574   8.386  20.018  0.00  0.00    +0.000 A 
ATOM      2  N   UNL     1       1.212   9.397  19.213  0.00  0.00    +0.000 NA
ATOM      3  C   UNL     1       1.672   9.337  17.952  0.00  0.00    +0.000 A 
ATOM      4  C   UNL     1       2.476   8.327  17.485  0.00  0.00    +0.000 A 
ATOM      5  C   UNL     1       2.791   7.335  18.394  0.00  0.00    +0.000 A 
ATOM      6  N   UNL     1       2.334   7.344  19.657  0.00  0.00    +0.000 NA
ENDROOT
BRANCH   5   7
ATOM      7  C   UNL     1       3.613   6.189  17.995  0.00  0.00    +0.000 A 
ATOM      8  C   UNL     1       5.049   6.183  17.856  0.00  0.00    +0.000 A 
ATOM      9  C   UNL     1       5.523   4.953  17.479  0.00  0.00    +0.000 A 
ATOM     10 CL   UNL     1       7.166   4.528  17.220  0.00  0.00    +0.000 Cl
ATOM     11  S   UNL     1       4.309   3.800  17.275  0.00  0.00    +0.000 S 
ATOM     12  C   UNL     1       3.111   4.933  17.701  0.00  0.00    +0.000 A 
ATOM     13 CL   UNL     1       1.484   4.357  17.743  0.00  0.00    +0.000 Cl
ENDBRANCH   5   7
BRANCH   1  14
ATOM     14  S   UNL     1       1.013   8.460  21.690  0.00  0.00    +0.000 S 
ATOM     15  H   UNL     1       0.082   7.516  21.508  0.00  0.00    +0.000 HD
ENDBRANCH   1  14
TORSDOF 2
ENDMDL
