MODEL 1
REMARK VINA RESULT:      -8.9      0.000      0.000
REMARK  Name = 
REMARK  6 active torsions:
REMARK  status: ('A' for Active; 'I' for Inactive)
REMARK    1  A    between atoms: C_2  and  C_19
REMARK    2  A    between atoms: N_3  and  C_4
REMARK    3  A    between atoms: C_6  and  C_7
REMARK    4  A    between atoms: C_15  and  C_16
REMARK    5  A    between atoms: C_16  and  O_18
REMARK    6  A    between atoms: C_22  and  C_23
REMARK                            x       y       z     vdW  Elec       q    Type
REMARK                         _______ _______ _______ _____ _____    ______ ____
ROOT
ATOM      1  O   UNL     1       2.011   8.678  18.617  0.00  0.00    +0.000 OA
ATOM      2  C   UNL     1       1.687   8.289  19.738  0.00  0.00    +0.000 C 
ATOM      3  N   UNL     1       1.994   7.052  20.293  0.00  0.00    +0.000 N 
ATOM      4  H   UNL     1       1.777   6.861  21.269  0.00  0.00    +0.000 HD
ENDROOT
BRANCH   2   5
ATOM      5  C   UNL     1       0.916   9.235  20.579  0.00  0.00    +0.000 A 
ATOM      6  C   UNL     1       0.513   8.925  21.875  0.00  0.00    +0.000 A 
ATOM      7  C   UNL     1      -0.252   9.845  22.597  0.00  0.00    +0.000 A 
ATOM      8  C   UNL     1      -0.628  11.092  22.057  0.00  0.00    +0.000 A 
ATOM      9  C   UNL     1      -0.226  11.372  20.743  0.00  0.00    +0.000 A 
ATOM     10  C   UNL     1       0.527  10.454  20.008  0.00  0.00    +0.000 A 
BRANCH   8  11
ATOM     11  C   UNL     1      -1.418  12.054  22.854  0.00  0.00    +0.000 A 
ATOM     12  C   UNL     1      -2.699  11.713  23.328  0.00  0.00    +0.000 A 
ATOM     13  C   UNL     1      -3.478  12.622  24.045  0.00  0.00    +0.000 A 
ATOM     14  C   UNL     1      -2.983  13.889  24.326  0.00  0.00    +0.000 A 
ATOM     15  C   UNL     1      -1.710  14.247  23.891  0.00  0.00    +0.000 A 
ATOM     16  C   UNL     1      -0.939  13.340  23.158  0.00  0.00    +0.000 A 
ENDBRANCH   8  11
ENDBRANCH   2   5
BRANCH   3  17
ATOM     17  C   UNL     1       2.669   6.042  19.604  0.00  0.00    +0.000 A 
ATOM     18  C   UNL     1       3.506   6.239  18.470  0.00  0.00    +0.000 A 
ATOM     19  C   UNL     1       4.093   5.090  17.990  0.00  0.00    +0.000 A 
ATOM     20  S   UNL     1       3.583   3.739  18.894  0.00  0.00    +0.000 S 
ATOM     21  C   UNL     1       2.602   4.695  19.935  0.00  0.00    +0.000 A 
BRANCH  19  22
ATOM     22  C   UNL     1       5.042   4.996  16.878  0.00  0.00    +0.000 A 
ATOM     23  C   UNL     1       6.270   5.678  16.964  0.00  0.00    +0.000 A 
ATOM     24  C   UNL     1       7.175   5.668  15.904  0.00  0.00    +0.000 A 
ATOM     25  C   UNL     1       6.862   4.969  14.744  0.00  0.00    +0.000 A 
ATOM     26 CL   UNL     1       7.968   4.961  13.429  0.00  0.00    +0.000 Cl
ATOM     27  C   UNL     1       5.653   4.282  14.639  0.00  0.00    +0.000 A 
ATOM     28  C   UNL     1       4.745   4.297  15.701  0.00  0.00    +0.000 A 
ENDBRANCH  19  22
BRANCH  21  29
ATOM     29  C   UNL     1       1.832   4.081  21.002  0.00  0.00    +0.000 C 
ATOM     30  O   UNL     1       2.306   3.671  22.054  0.00  0.00    +0.000 OA
BRANCH  29  31
ATOM     31  O   UNL     1       0.506   3.988  20.730  0.00  0.00    +0.000 OA
ATOM     32  H   UNL     1       0.002   4.739  21.109  0.00  0.00    +0.000 HD
ENDBRANCH  29  31
ENDBRANCH  21  29
ENDBRANCH   3  17
TORSDOF 6
ENDMDL
MODEL 2
REMARK VINA RESULT:      -8.7      4.971     11.168
REMARK  Name = 
REMARK  6 active torsions:
REMARK  status: ('A' for Active; 'I' for Inactive)
REMARK    1  A    between atoms: C_2  and  C_19
REMARK    2  A    between atoms: N_3  and  C_4
REMARK    3  A    between atoms: C_6  and  C_7
REMARK    4  A    between atoms: C_15  and  C_16
REMARK    5  A    between atoms: C_16  and  O_18
REMARK    6  A    between atoms: C_22  and  C_23
REMARK                            x       y       z     vdW  Elec       q    Type
REMARK                         _______ _______ _______ _____ _____    ______ ____
ROOT
ATOM      1  O   UNL     1      -0.223   9.184  21.645  0.00  0.00    +0.000 OA
ATOM      2  C   UNL     1       0.478   9.674  20.762  0.00  0.00    +0.000 C 
ATOM      3  N   UNL     1       0.595  11.028  20.469  0.00  0.00    +0.000 N 
ATOM      4  H   UNL     1       1.285  11.348  19.793  0.00  0.00    +0.000 HD
ENDROOT
BRANCH   2   5
ATOM      5  C   UNL     1       1.288   8.735  19.950  0.00  0.00    +0.000 A 
ATOM      6  C   UNL     1       1.774   7.534  20.460  0.00  0.00    +0.000 A 
ATOM      7  C   UNL     1       2.571   6.716  19.656  0.00  0.00    +0.000 A 
ATOM      8  C   UNL     1       2.898   7.063  18.329  0.00  0.00    +0.000 A 
ATOM      9  C   UNL     1       2.412   8.286  17.844  0.00  0.00    +0.000 A 
ATOM     10  C   UNL     1       1.626   9.118  18.645  0.00  0.00    +0.000 A 
BRANCH   8  11
ATOM     11  C   UNL     1       3.725   6.166  17.494  0.00  0.00    +0.000 A 
ATOM     12  C   UNL     1       4.712   6.688  16.638  0.00  0.00    +0.000 A 
ATOM     13  C   UNL     1       5.473   5.860  15.811  0.00  0.00    +0.000 A 
ATOM     14  C   UNL     1       5.280   4.485  15.838  0.00  0.00    +0.000 A 
ATOM     15  C   UNL     1       4.327   3.937  16.693  0.00  0.00    +0.000 A 
ATOM     16  C   UNL     1       3.555   4.769  17.508  0.00  0.00    +0.000 A 
ENDBRANCH   8  11
ENDBRANCH   2   5
BRANCH   3  17
ATOM     17  C   UNL     1      -0.142  12.025  21.114  0.00  0.00    +0.000 A 
ATOM     18  C   UNL     1      -1.511  11.921  21.488  0.00  0.00    +0.000 A 
ATOM     19  C   UNL     1      -2.005  13.023  22.148  0.00  0.00    +0.000 A 
ATOM     20  S   UNL     1      -0.807  14.227  22.274  0.00  0.00    +0.000 S 
ATOM     21  C   UNL     1       0.370  13.264  21.470  0.00  0.00    +0.000 A 
BRANCH  19  22
ATOM     22  C   UNL     1      -3.354  13.177  22.700  0.00  0.00    +0.000 A 
ATOM     23  C   UNL     1      -3.690  12.499  23.886  0.00  0.00    +0.000 A 
ATOM     24  C   UNL     1      -4.980  12.565  24.412  0.00  0.00    +0.000 A 
ATOM     25  C   UNL     1      -5.948  13.317  23.756  0.00  0.00    +0.000 A 
ATOM     26 CL   UNL     1      -7.542  13.395  24.393  0.00  0.00    +0.000 Cl
ATOM     27  C   UNL     1      -5.634  14.001  22.582  0.00  0.00    +0.000 A 
ATOM     28  C   UNL     1      -4.343  13.929  22.054  0.00  0.00    +0.000 A 
ENDBRANCH  19  22
BRANCH  21  29
ATOM     29  C   UNL     1       1.710  13.771  21.234  0.00  0.00    +0.000 C 
ATOM     30  O   UNL     1       2.423  13.444  20.294  0.00  0.00    +0.000 OA
BRANCH  29  31
ATOM     31  O   UNL     1       2.127  14.660  22.172  0.00  0.00    +0.000 OA
ATOM     32  H   UNL     1       2.533  14.213  22.943  0.00  0.00    +0.000 HD
ENDBRANCH  29  31
ENDBRANCH  21  29
ENDBRANCH   3  17
TORSDOF 6
ENDMDL
MODEL 3
REMARK VINA RESULT:      -8.4      4.996     11.201
REMARK  Name = 
REMARK  6 active torsions:
REMARK  status: ('A' for Active; 'I' for Inactive)
REMARK    1  A    between atoms: C_2  and  C_19
REMARK    2  A    between atoms: N_3  and  C_4
REMARK    3  A    between atoms: C_6  and  C_7
REMARK    4  A    between atoms: C_15  and  C_16
REMARK    5  A    between atoms: C_16  and  O_18
REMARK    6  A    between atoms: C_22  and  C_23
REMARK                            x       y       z     vdW  Elec       q    Type
REMARK                         _______ _______ _______ _____ _____    ______ ____
ROOT
ATOM      1  O   UNL     1      -0.383   9.368  21.261  0.00  0.00    +0.000 OA
ATOM      2  C   UNL     1       0.447   9.893  20.521  0.00  0.00    +0.000 C 
ATOM      3  N   UNL     1       0.672  11.257  20.385  0.00  0.00    +0.000 N 
ATOM      4  H   UNL     1       1.456  11.594  19.830  0.00  0.00    +0.000 HD
ENDROOT
BRANCH   2   5
ATOM      5  C   UNL     1       1.299   8.983  19.718  0.00  0.00    +0.000 A 
ATOM      6  C   UNL     1       1.618   9.239  18.387  0.00  0.00    +0.000 A 
ATOM      7  C   UNL     1       2.387   8.317  17.674  0.00  0.00    +0.000 A 
ATOM      8  C   UNL     1       2.864   7.127  18.262  0.00  0.00    +0.000 A 
ATOM      9  C   UNL     1       2.513   6.883  19.597  0.00  0.00    +0.000 A 
ATOM     10  C   UNL     1       1.733   7.792  20.316  0.00  0.00    +0.000 A 
BRANCH   8  11
ATOM     11  C   UNL     1       3.695   6.181  17.488  0.00  0.00    +0.000 A 
ATOM     12  C   UNL     1       3.477   4.794  17.577  0.00  0.00    +0.000 A 
ATOM     13  C   UNL     1       4.279   3.883  16.887  0.00  0.00    +0.000 A 
ATOM     14  C   UNL     1       5.306   4.341  16.072  0.00  0.00    +0.000 A 
ATOM     15  C   UNL     1       5.530   5.709  15.944  0.00  0.00    +0.000 A 
ATOM     16  C   UNL     1       4.737   6.618  16.650  0.00  0.00    +0.000 A 
ENDBRANCH   8  11
ENDBRANCH   2   5
BRANCH   3  17
ATOM     17  C   UNL     1      -0.084  12.235  21.038  0.00  0.00    +0.000 A 
ATOM     18  C   UNL     1      -1.442  12.091  21.438  0.00  0.00    +0.000 A 
ATOM     19  C   UNL     1      -1.957  13.181  22.101  0.00  0.00    +0.000 A 
ATOM     20  S   UNL     1      -0.795  14.423  22.196  0.00  0.00    +0.000 S 
ATOM     21  C   UNL     1       0.396  13.492  21.375  0.00  0.00    +0.000 A 
BRANCH  19  22
ATOM     22  C   UNL     1      -3.299  13.296  22.677  0.00  0.00    +0.000 A 
ATOM     23  C   UNL     1      -3.640  12.499  23.785  0.00  0.00    +0.000 A 
ATOM     24  C   UNL     1      -4.925  12.528  24.326  0.00  0.00    +0.000 A 
ATOM     25  C   UNL     1      -5.884  13.364  23.764  0.00  0.00    +0.000 A 
ATOM     26 CL   UNL     1      -7.472  13.398  24.419  0.00  0.00    +0.000 Cl
ATOM     27  C   UNL     1      -5.565  14.167  22.669  0.00  0.00    +0.000 A 
ATOM     28  C   UNL     1      -4.279  14.131  22.126  0.00  0.00    +0.000 A 
ENDBRANCH  19  22
BRANCH  21  29
ATOM     29  C   UNL     1       1.715  14.039  21.111  0.00  0.00    +0.000 C 
ATOM     30  O   UNL     1       1.927  15.167  20.683  0.00  0.00    +0.000 OA
BRANCH  29  31
ATOM     31  O   UNL     1       2.726  13.174  21.379  0.00  0.00    +0.000 OA
ATOM     32  H   UNL     1       3.605  13.587  21.245  0.00  0.00    +0.000 HD
ENDBRANCH  29  31
ENDBRANCH  21  29
ENDBRANCH   3  17
TORSDOF 6
ENDMDL
MODEL 4
REMARK VINA RESULT:      -8.4      4.506     10.860
REMARK  Name = 
REMARK  6 active torsions:
REMARK  status: ('A' for Active; 'I' for Inactive)
REMARK    1  A    between atoms: C_2  and  C_19
REMARK    2  A    between atoms: N_3  and  C_4
REMARK    3  A    between atoms: C_6  and  C_7
REMARK    4  A    between atoms: C_15  and  C_16
REMARK    5  A    between atoms: C_16  and  O_18
REMARK    6  A    between atoms: C_22  and  C_23
REMARK                            x       y       z     vdW  Elec       q    Type
REMARK                         _______ _______ _______ _____ _____    ______ ____
ROOT
ATOM      1  O   UNL     1       0.752   8.570  20.895  0.00  0.00    +0.000 OA
ATOM      2  C   UNL     1       1.057   8.866  19.742  0.00  0.00    +0.000 C 
ATOM      3  N   UNL     1       0.541   9.927  19.008  0.00  0.00    +0.000 N 
ATOM      4  H   UNL     1       0.935  10.161  18.099  0.00  0.00    +0.000 HD
ENDROOT
BRANCH   2   5
ATOM      5  C   UNL     1       2.086   8.026  19.084  0.00  0.00    +0.000 A 
ATOM      6  C   UNL     1       2.512   6.812  19.617  0.00  0.00    +0.000 A 
ATOM      7  C   UNL     1       3.520   6.092  18.970  0.00  0.00    +0.000 A 
ATOM      8  C   UNL     1       4.120   6.550  17.780  0.00  0.00    +0.000 A 
ATOM      9  C   UNL     1       3.688   7.784  17.274  0.00  0.00    +0.000 A 
ATOM     10  C   UNL     1       2.691   8.519  17.920  0.00  0.00    +0.000 A 
BRANCH   8  11
ATOM     11  C   UNL     1       5.168   5.754  17.107  0.00  0.00    +0.000 A 
ATOM     12  C   UNL     1       5.053   5.421  15.744  0.00  0.00    +0.000 A 
ATOM     13  C   UNL     1       6.010   4.634  15.102  0.00  0.00    +0.000 A 
ATOM     14  C   UNL     1       7.120   4.181  15.803  0.00  0.00    +0.000 A 
ATOM     15  C   UNL     1       7.274   4.515  17.145  0.00  0.00    +0.000 A 
ATOM     16  C   UNL     1       6.305   5.289  17.791  0.00  0.00    +0.000 A 
ENDBRANCH   8  11
ENDBRANCH   2   5
BRANCH   3  17
ATOM     17  C   UNL     1      -0.468  10.773  19.476  0.00  0.00    +0.000 A 
ATOM     18  C   UNL     1      -0.513  11.357  20.773  0.00  0.00    +0.000 A 
ATOM     19  C   UNL     1      -1.590  12.187  20.984  0.00  0.00    +0.000 A 
ATOM     20  S   UNL     1      -2.595  12.221  19.609  0.00  0.00    +0.000 S 
ATOM     21  C   UNL     1      -1.576  11.149  18.730  0.00  0.00    +0.000 A 
BRANCH  19  22
ATOM     22  C   UNL     1      -1.865  12.966  22.195  0.00  0.00    +0.000 A 
ATOM     23  C   UNL     1      -3.169  12.971  22.726  0.00  0.00    +0.000 A 
ATOM     24  C   UNL     1      -3.491  13.747  23.838  0.00  0.00    +0.000 A 
ATOM     25  C   UNL     1      -2.506  14.526  24.436  0.00  0.00    +0.000 A 
ATOM     26 CL   UNL     1      -2.897  15.494  25.800  0.00  0.00    +0.000 Cl
ATOM     27  C   UNL     1      -1.207  14.531  23.929  0.00  0.00    +0.000 A 
ATOM     28  C   UNL     1      -0.888  13.757  22.812  0.00  0.00    +0.000 A 
ENDBRANCH  19  22
BRANCH  21  29
ATOM     29  C   UNL     1      -1.916  10.742  17.379  0.00  0.00    +0.000 C 
ATOM     30  O   UNL     1      -2.016   9.579  17.006  0.00  0.00    +0.000 OA
BRANCH  29  31
ATOM     31  O   UNL     1      -2.115  11.783  16.531  0.00  0.00    +0.000 OA
ATOM     32  H   UNL     1      -1.967  12.646  16.972  0.00  0.00    +0.000 HD
ENDBRANCH  29  31
ENDBRANCH  21  29
ENDBRANCH   3  17
TORSDOF 6
ENDMDL
MODEL 5
REMARK VINA RESULT:      -8.4      5.283     11.421
REMARK  Name = 
REMARK  6 active torsions:
REMARK  status: ('A' for Active; 'I' for Inactive)
REMARK    1  A    between atoms: C_2  and  C_19
REMARK    2  A    between atoms: N_3  and  C_4
REMARK    3  A    between atoms: C_6  and  C_7
REMARK    4  A    between atoms: C_15  and  C_16
REMARK    5  A    between atoms: C_16  and  O_18
REMARK    6  A    between atoms: C_22  and  C_23
REMARK                            x       y       z     vdW  Elec       q    Type
REMARK                         _______ _______ _______ _____ _____    ______ ____
ROOT
ATOM      1  O   UNL     1       0.781  10.805  21.590  0.00  0.00    +0.000 OA
ATOM      2  C   UNL     1       0.524  10.618  20.402  0.00  0.00    +0.000 C 
ATOM      3  N   UNL     1      -0.340  11.378  19.624  0.00  0.00    +0.000 N 
ATOM      4  H   UNL     1      -0.404  11.215  18.622  0.00  0.00    +0.000 HD
ENDROOT
BRANCH   2   5
ATOM      5  C   UNL     1       1.219   9.491  19.736  0.00  0.00    +0.000 A 
ATOM      6  C   UNL     1       1.541   9.507  18.381  0.00  0.00    +0.000 A 
ATOM      7  C   UNL     1       2.155   8.392  17.805  0.00  0.00    +0.000 A 
ATOM      8  C   UNL     1       2.471   7.242  18.557  0.00  0.00    +0.000 A 
ATOM      9  C   UNL     1       2.120   7.242  19.915  0.00  0.00    +0.000 A 
ATOM     10  C   UNL     1       1.494   8.347  20.497  0.00  0.00    +0.000 A 
BRANCH   8  11
ATOM     11  C   UNL     1       3.141   6.086  17.925  0.00  0.00    +0.000 A 
ATOM     12  C   UNL     1       4.407   6.228  17.327  0.00  0.00    +0.000 A 
ATOM     13  C   UNL     1       5.037   5.160  16.687  0.00  0.00    +0.000 A 
ATOM     14  C   UNL     1       4.423   3.913  16.651  0.00  0.00    +0.000 A 
ATOM     15  C   UNL     1       3.183   3.736  17.255  0.00  0.00    +0.000 A 
ATOM     16  C   UNL     1       2.546   4.812  17.880  0.00  0.00    +0.000 A 
ENDBRANCH   8  11
ENDBRANCH   2   5
BRANCH   3  17
ATOM     17  C   UNL     1      -1.101  12.438  20.124  0.00  0.00    +0.000 A 
ATOM     18  C   UNL     1      -2.324  12.305  20.840  0.00  0.00    +0.000 A 
ATOM     19  C   UNL     1      -2.866  13.496  21.264  0.00  0.00    +0.000 A 
ATOM     20  S   UNL     1      -1.909  14.805  20.744  0.00  0.00    +0.000 S 
ATOM     21  C   UNL     1      -0.763  13.776  19.977  0.00  0.00    +0.000 A 
BRANCH  19  22
ATOM     22  C   UNL     1      -4.081  13.663  22.068  0.00  0.00    +0.000 A 
ATOM     23  C   UNL     1      -4.269  12.852  23.202  0.00  0.00    +0.000 A 
ATOM     24  C   UNL     1      -5.438  12.932  23.958  0.00  0.00    +0.000 A 
ATOM     25  C   UNL     1      -6.430  13.833  23.589  0.00  0.00    +0.000 A 
ATOM     26 CL   UNL     1      -7.878  13.930  24.510  0.00  0.00    +0.000 Cl
ATOM     27  C   UNL     1      -6.261  14.650  22.472  0.00  0.00    +0.000 A 
ATOM     28  C   UNL     1      -5.092  14.565  21.713  0.00  0.00    +0.000 A 
ENDBRANCH  19  22
BRANCH  21  29
ATOM     29  C   UNL     1       0.386  14.330  19.284  0.00  0.00    +0.000 C 
ATOM     30  O   UNL     1       1.386  13.694  18.975  0.00  0.00    +0.000 OA
BRANCH  29  31
ATOM     31  O   UNL     1       0.264  15.652  18.999  0.00  0.00    +0.000 OA
ATOM     32  H   UNL     1       0.773  15.902  18.200  0.00  0.00    +0.000 HD
ENDBRANCH  29  31
ENDBRANCH  21  29
ENDBRANCH   3  17
TORSDOF 6
ENDMDL
MODEL 6
REMARK VINA RESULT:      -8.4      5.015     11.228
REMARK  Name = 
REMARK  6 active torsions:
REMARK  status: ('A' for Active; 'I' for Inactive)
REMARK    1  A    between atoms: C_2  and  C_19
REMARK    2  A    between atoms: N_3  and  C_4
REMARK    3  A    between atoms: C_6  and  C_7
REMARK    4  A    between atoms: C_15  and  C_16
REMARK    5  A    between atoms: C_16  and  O_18
REMARK    6  A    between atoms: C_22  and  C_23
REMARK                            x       y       z     vdW  Elec       q    Type
REMARK                         _______ _______ _______ _____ _____    ______ ____
ROOT
ATOM      1  O   UNL     1       0.158   9.322  21.676  0.00  0.00    +0.000 OA
ATOM      2  C   UNL     1       0.652   9.832  20.673  0.00  0.00    +0.000 C 
ATOM      3  N   UNL     1       0.535  11.163  20.291  0.00  0.00    +0.000 N 
ATOM      4  H   UNL     1       1.071  11.519  19.503  0.00  0.00    +0.000 HD
ENDROOT
BRANCH   2   5
ATOM      5  C   UNL     1       1.466   8.949  19.804  0.00  0.00    +0.000 A 
ATOM      6  C   UNL     1       1.856   9.319  18.519  0.00  0.00    +0.000 A 
ATOM      7  C   UNL     1       2.584   8.420  17.735  0.00  0.00    +0.000 A 
ATOM      8  C   UNL     1       2.948   7.142  18.206  0.00  0.00    +0.000 A 
ATOM      9  C   UNL     1       2.526   6.786  19.495  0.00  0.00    +0.000 A 
ATOM     10  C   UNL     1       1.787   7.672  20.283  0.00  0.00    +0.000 A 
BRANCH   8  11
ATOM     11  C   UNL     1       3.737   6.221  17.361  0.00  0.00    +0.000 A 
ATOM     12  C   UNL     1       3.655   4.828  17.545  0.00  0.00    +0.000 A 
ATOM     13  C   UNL     1       4.425   3.945  16.786  0.00  0.00    +0.000 A 
ATOM     14  C   UNL     1       5.280   4.436  15.807  0.00  0.00    +0.000 A 
ATOM     15  C   UNL     1       5.364   5.807  15.585  0.00  0.00    +0.000 A 
ATOM     16  C   UNL     1       4.605   6.690  16.358  0.00  0.00    +0.000 A 
ENDBRANCH   8  11
ENDBRANCH   2   5
BRANCH   3  17
ATOM     17  C   UNL     1      -0.239  12.100  20.982  0.00  0.00    +0.000 A 
ATOM     18  C   UNL     1      -1.595  11.916  21.374  0.00  0.00    +0.000 A 
ATOM     19  C   UNL     1      -2.130  12.969  22.080  0.00  0.00    +0.000 A 
ATOM     20  S   UNL     1      -0.991  14.227  22.227  0.00  0.00    +0.000 S 
ATOM     21  C   UNL     1       0.218  13.351  21.371  0.00  0.00    +0.000 A 
BRANCH  19  22
ATOM     22  C   UNL     1      -3.475  13.037  22.658  0.00  0.00    +0.000 A 
ATOM     23  C   UNL     1      -4.461  13.806  22.013  0.00  0.00    +0.000 A 
ATOM     24  C   UNL     1      -5.735  13.951  22.561  0.00  0.00    +0.000 A 
ATOM     25  C   UNL     1      -6.037  13.319  23.762  0.00  0.00    +0.000 A 
ATOM     26 CL   UNL     1      -7.602  13.501  24.449  0.00  0.00    +0.000 Cl
ATOM     27  C   UNL     1      -5.077  12.547  24.415  0.00  0.00    +0.000 A 
ATOM     28  C   UNL     1      -3.800  12.408  23.867  0.00  0.00    +0.000 A 
ENDBRANCH  19  22
BRANCH  21  29
ATOM     29  C   UNL     1       1.526  13.932  21.131  0.00  0.00    +0.000 C 
ATOM     30  O   UNL     1       2.577  13.302  21.125  0.00  0.00    +0.000 OA
BRANCH  29  31
ATOM     31  O   UNL     1       1.495  15.271  20.913  0.00  0.00    +0.000 OA
ATOM     32  H   UNL     1       0.599  15.579  20.662  0.00  0.00    +0.000 HD
ENDBRANCH  29  31
ENDBRANCH  21  29
ENDBRANCH   3  17
TORSDOF 6
ENDMDL
MODEL 7
REMARK VINA RESULT:      -8.3      5.101     11.242
REMARK  Name = 
REMARK  6 active torsions:
REMARK  status: ('A' for Active; 'I' for Inactive)
REMARK    1  A    between atoms: C_2  and  C_19
REMARK    2  A    between atoms: N_3  and  C_4
REMARK    3  A    between atoms: C_6  and  C_7
REMARK    4  A    between atoms: C_15  and  C_16
REMARK    5  A    between atoms: C_16  and  O_18
REMARK    6  A    between atoms: C_22  and  C_23
REMARK                            x       y       z     vdW  Elec       q    Type
REMARK                         _______ _______ _______ _____ _____    ______ ____
ROOT
ATOM      1  O   UNL     1      -0.870  10.369  19.152  0.00  0.00    +0.000 OA
ATOM      2  C   UNL     1       0.220  10.296  19.715  0.00  0.00    +0.000 C 
ATOM      3  N   UNL     1       0.631  11.058  20.803  0.00  0.00    +0.000 N 
ATOM      4  H   UNL     1       1.510  10.850  21.271  0.00  0.00    +0.000 HD
ENDROOT
BRANCH   2   5
ATOM      5  C   UNL     1       1.175   9.287  19.198  0.00  0.00    +0.000 A 
ATOM      6  C   UNL     1       1.692   9.341  17.906  0.00  0.00    +0.000 A 
ATOM      7  C   UNL     1       2.552   8.331  17.466  0.00  0.00    +0.000 A 
ATOM      8  C   UNL     1       2.925   7.253  18.294  0.00  0.00    +0.000 A 
ATOM      9  C   UNL     1       2.376   7.211  19.584  0.00  0.00    +0.000 A 
ATOM     10  C   UNL     1       1.505   8.208  20.029  0.00  0.00    +0.000 A 
BRANCH   8  11
ATOM     11  C   UNL     1       3.855   6.212  17.807  0.00  0.00    +0.000 A 
ATOM     12  C   UNL     1       4.779   6.496  16.785  0.00  0.00    +0.000 A 
ATOM     13  C   UNL     1       5.635   5.515  16.282  0.00  0.00    +0.000 A 
ATOM     14  C   UNL     1       5.604   4.230  16.809  0.00  0.00    +0.000 A 
ATOM     15  C   UNL     1       4.718   3.926  17.838  0.00  0.00    +0.000 A 
ATOM     16  C   UNL     1       3.849   4.906  18.328  0.00  0.00    +0.000 A 
ENDBRANCH   8  11
ENDBRANCH   2   5
BRANCH   3  17
ATOM     17  C   UNL     1      -0.140  12.079  21.366  0.00  0.00    +0.000 A 
ATOM     18  C   UNL     1      -1.505  11.961  21.748  0.00  0.00    +0.000 A 
ATOM     19  C   UNL     1      -2.035  13.097  22.318  0.00  0.00    +0.000 A 
ATOM     20  S   UNL     1      -0.877  14.346  22.343  0.00  0.00    +0.000 S 
ATOM     21  C   UNL     1       0.332  13.359  21.618  0.00  0.00    +0.000 A 
BRANCH  19  22
ATOM     22  C   UNL     1      -3.389  13.250  22.857  0.00  0.00    +0.000 A 
ATOM     23  C   UNL     1      -3.768  12.497  23.983  0.00  0.00    +0.000 A 
ATOM     24  C   UNL     1      -5.065  12.563  24.491  0.00  0.00    +0.000 A 
ATOM     25  C   UNL     1      -5.997  13.392  23.878  0.00  0.00    +0.000 A 
ATOM     26 CL   UNL     1      -7.600  13.472  24.492  0.00  0.00    +0.000 Cl
ATOM     27  C   UNL     1      -5.641  14.152  22.764  0.00  0.00    +0.000 A 
ATOM     28  C   UNL     1      -4.343  14.080  22.254  0.00  0.00    +0.000 A 
ENDBRANCH  19  22
BRANCH  21  29
ATOM     29  C   UNL     1       1.655  13.889  21.341  0.00  0.00    +0.000 C 
ATOM     30  O   UNL     1       2.314  13.627  20.342  0.00  0.00    +0.000 OA
BRANCH  29  31
ATOM     31  O   UNL     1       2.121  14.719  22.308  0.00  0.00    +0.000 OA
ATOM     32  H   UNL     1       1.437  14.917  22.981  0.00  0.00    +0.000 HD
ENDBRANCH  29  31
ENDBRANCH  21  29
ENDBRANCH   3  17
TORSDOF 6
ENDMDL
MODEL 8
REMARK VINA RESULT:      -8.3      5.288     11.420
REMARK  Name = 
REMARK  6 active torsions:
REMARK  status: ('A' for Active; 'I' for Inactive)
REMARK    1  A    between atoms: C_2  and  C_19
REMARK    2  A    between atoms: N_3  and  C_4
REMARK    3  A    between atoms: C_6  and  C_7
REMARK    4  A    between atoms: C_15  and  C_16
REMARK    5  A    between atoms: C_16  and  O_18
REMARK    6  A    between atoms: C_22  and  C_23
REMARK                            x       y       z     vdW  Elec       q    Type
REMARK                         _______ _______ _______ _____ _____    ______ ____
ROOT
ATOM      1  O   UNL     1       0.708  10.706  21.673  0.00  0.00    +0.000 OA
ATOM      2  C   UNL     1       0.453  10.490  20.489  0.00  0.00    +0.000 C 
ATOM      3  N   UNL     1      -0.400  11.239  19.688  0.00  0.00    +0.000 N 
ATOM      4  H   UNL     1      -0.463  11.049  18.690  0.00  0.00    +0.000 HD
ENDROOT
BRANCH   2   5
ATOM      5  C   UNL     1       1.137   9.337  19.857  0.00  0.00    +0.000 A 
ATOM      6  C   UNL     1       1.508   8.203  20.574  0.00  0.00    +0.000 A 
ATOM      7  C   UNL     1       2.192   7.171  19.926  0.00  0.00    +0.000 A 
ATOM      8  C   UNL     1       2.516   7.235  18.555  0.00  0.00    +0.000 A 
ATOM      9  C   UNL     1       2.149   8.395  17.859  0.00  0.00    +0.000 A 
ATOM     10  C   UNL     1       1.476   9.439  18.501  0.00  0.00    +0.000 A 
BRANCH   8  11
ATOM     11  C   UNL     1       3.220   6.117  17.892  0.00  0.00    +0.000 A 
ATOM     12  C   UNL     1       4.431   6.335  17.209  0.00  0.00    +0.000 A 
ATOM     13  C   UNL     1       5.088   5.301  16.540  0.00  0.00    +0.000 A 
ATOM     14  C   UNL     1       4.560   4.016  16.559  0.00  0.00    +0.000 A 
ATOM     15  C   UNL     1       3.377   3.765  17.248  0.00  0.00    +0.000 A 
ATOM     16  C   UNL     1       2.711   4.805  17.902  0.00  0.00    +0.000 A 
ENDBRANCH   8  11
ENDBRANCH   2   5
BRANCH   3  17
ATOM     17  C   UNL     1      -1.150  12.321  20.157  0.00  0.00    +0.000 A 
ATOM     18  C   UNL     1      -2.357  12.221  20.903  0.00  0.00    +0.000 A 
ATOM     19  C   UNL     1      -2.890  13.430  21.286  0.00  0.00    +0.000 A 
ATOM     20  S   UNL     1      -1.944  14.714  20.687  0.00  0.00    +0.000 S 
ATOM     21  C   UNL     1      -0.815  13.650  19.943  0.00  0.00    +0.000 A 
BRANCH  19  22
ATOM     22  C   UNL     1      -4.087  13.634  22.107  0.00  0.00    +0.000 A 
ATOM     23  C   UNL     1      -5.197  12.788  21.924  0.00  0.00    +0.000 A 
ATOM     24  C   UNL     1      -6.378  12.986  22.636  0.00  0.00    +0.000 A 
ATOM     25  C   UNL     1      -6.460  14.032  23.549  0.00  0.00    +0.000 A 
ATOM     26 CL   UNL     1      -7.916  14.288  24.424  0.00  0.00    +0.000 Cl
ATOM     27  C   UNL     1      -5.370  14.879  23.750  0.00  0.00    +0.000 A 
ATOM     28  C   UNL     1      -4.189  14.683  23.030  0.00  0.00    +0.000 A 
ENDBRANCH  19  22
BRANCH  21  29
ATOM     29  C   UNL     1       0.318  14.172  19.200  0.00  0.00    +0.000 C 
ATOM     30  O   UNL     1       1.049  13.499  18.483  0.00  0.00    +0.000 OA
BRANCH  29  31
ATOM     31  O   UNL     1       0.515  15.503  19.374  0.00  0.00    +0.000 OA
ATOM     32  H   UNL     1       0.661  15.731  20.316  0.00  0.00    +0.000 HD
ENDBRANCH  29  31
ENDBRANCH  21  29
ENDBRANCH   3  17
TORSDOF 6
ENDMDL
MODEL 9
REMARK VINA RESULT:      -8.3      4.894     11.081
REMARK  Name = 
REMARK  6 active torsions:
REMARK  status: ('A' for Active; 'I' for Inactive)
REMARK    1  A    between atoms: C_2  and  C_19
REMARK    2  A    between atoms: N_3  and  C_4
REMARK    3  A    between atoms: C_6  and  C_7
REMARK    4  A    between atoms: C_15  and  C_16
REMARK    5  A    between atoms: C_16  and  O_18
REMARK    6  A    between atoms: C_22  and  C_23
REMARK                            x       y       z     vdW  Elec       q    Type
REMARK                         _______ _______ _______ _____ _____    ______ ____
ROOT
ATOM      1  O   UNL     1      -0.299   9.413  20.995  0.00  0.00    +0.000 OA
ATOM      2  C   UNL     1       0.473   9.895  20.167  0.00  0.00    +0.000 C 
ATOM      3  N   UNL     1       0.600  11.243  19.857  0.00  0.00    +0.000 N 
ATOM      4  H   UNL     1       1.344  11.558  19.239  0.00  0.00    +0.000 HD
ENDROOT
BRANCH   2   5
ATOM      5  C   UNL     1       1.364   8.950  19.453  0.00  0.00    +0.000 A 
ATOM      6  C   UNL     1       1.770   9.156  18.137  0.00  0.00    +0.000 A 
ATOM      7  C   UNL     1       2.573   8.201  17.506  0.00  0.00    +0.000 A 
ATOM      8  C   UNL     1       2.997   7.029  18.165  0.00  0.00    +0.000 A 
ATOM      9  C   UNL     1       2.559   6.835  19.482  0.00  0.00    +0.000 A 
ATOM     10  C   UNL     1       1.745   7.777  20.117  0.00  0.00    +0.000 A 
BRANCH   8  11
ATOM     11  C   UNL     1       3.865   6.049  17.478  0.00  0.00    +0.000 A 
ATOM     12  C   UNL     1       4.887   6.478  16.611  0.00  0.00    +0.000 A 
ATOM     13  C   UNL     1       5.689   5.567  15.921  0.00  0.00    +0.000 A 
ATOM     14  C   UNL     1       5.501   4.202  16.101  0.00  0.00    +0.000 A 
ATOM     15  C   UNL     1       4.515   3.748  16.971  0.00  0.00    +0.000 A 
ATOM     16  C   UNL     1       3.702   4.662  17.648  0.00  0.00    +0.000 A 
ENDBRANCH   8  11
ENDBRANCH   2   5
BRANCH   3  17
ATOM     17  C   UNL     1      -0.204  12.243  20.412  0.00  0.00    +0.000 A 
ATOM     18  C   UNL     1       0.067  12.935  21.625  0.00  0.00    +0.000 A 
ATOM     19  C   UNL     1      -0.855  13.906  21.942  0.00  0.00    +0.000 A 
ATOM     20  S   UNL     1      -2.101  13.947  20.781  0.00  0.00    +0.000 S 
ATOM     21  C   UNL     1      -1.391  12.688  19.848  0.00  0.00    +0.000 A 
BRANCH  19  22
ATOM     22  C   UNL     1      -0.805  14.813  23.093  0.00  0.00    +0.000 A 
ATOM     23  C   UNL     1       0.007  15.960  23.027  0.00  0.00    +0.000 A 
ATOM     24  C   UNL     1       0.135  16.816  24.120  0.00  0.00    +0.000 A 
ATOM     25  C   UNL     1      -0.556  16.534  25.293  0.00  0.00    +0.000 A 
ATOM     26 CL   UNL     1      -0.395  17.578  26.649  0.00  0.00    +0.000 Cl
ATOM     27  C   UNL     1      -1.370  15.405  25.379  0.00  0.00    +0.000 A 
ATOM     28  C   UNL     1      -1.492  14.546  24.284  0.00  0.00    +0.000 A 
ENDBRANCH  19  22
BRANCH  21  29
ATOM     29  C   UNL     1      -2.030  12.213  18.634  0.00  0.00    +0.000 C 
ATOM     30  O   UNL     1      -3.084  11.590  18.600  0.00  0.00    +0.000 OA
BRANCH  29  31
ATOM     31  O   UNL     1      -1.343  12.517  17.503  0.00  0.00    +0.000 OA
ATOM     32  H   UNL     1      -0.786  13.315  17.619  0.00  0.00    +0.000 HD
ENDBRANCH  29  31
ENDBRANCH  21  29
ENDBRANCH   3  17
TORSDOF 6
ENDMDL
