MODEL 1
REMARK VINA RESULT:      -7.2      0.000      0.000
REMARK  Name = 
REMARK  3 active torsions:
REMARK  status: ('A' for Active; 'I' for Inactive)
REMARK    1  A    between atoms: C_1  and  C_2
REMARK    2  A    between atoms: C_2  and  C_4
REMARK    3  A    between atoms: C_7  and  C_8
REMARK                            x       y       z     vdW  Elec       q    Type
REMARK                         _______ _______ _______ _____ _____    ______ ____
ROOT
ATOM      1  C   UNL     1       8.363   8.834  18.303  0.00  0.00    +0.000 A 
ATOM      2  N   UNL     1       7.497   8.583  17.333  0.00  0.00    +0.000 NA
ATOM      3  C   UNL     1       7.193   7.248  17.437  0.00  0.00    +0.000 A 
ATOM      4  C   UNL     1       6.342   6.428  16.690  0.00  0.00    +0.000 A 
ATOM      5  C   UNL     1       6.241   5.098  17.100  0.00  0.00    +0.000 A 
ATOM      6 BR   UNL     1       5.098   3.911  16.178  0.00  0.00    +0.000 Br
ATOM      7  C   UNL     1       6.975   4.653  18.199  0.00  0.00    +0.000 A 
ATOM      8  N   UNL     1       7.826   5.409  18.943  0.00  0.00    +0.000 NA
ATOM      9  C   UNL     1       7.876   6.678  18.502  0.00  0.00    +0.000 A 
ATOM     10  N   UNL     1       8.617   7.691  19.027  0.00  0.00    +0.000 N 
ATOM     11  H   UNL     1       9.206   7.613  19.841  0.00  0.00    +0.000 HD
ENDROOT
BRANCH   1  15
ATOM     12  C   UNL     1       9.937  12.702  19.253  0.00  0.00    +0.000 A 
ATOM     13  C   UNL     1       9.241  12.487  18.060  0.00  0.00    +0.000 A 
ATOM     14  C   UNL     1       8.751  11.213  17.753  0.00  0.00    +0.000 A 
ATOM     15  C   UNL     1       8.934  10.139  18.633  0.00  0.00    +0.000 A 
ATOM     16  C   UNL     1       9.653  10.354  19.816  0.00  0.00    +0.000 A 
ATOM     17  C   UNL     1      10.151  11.625  20.124  0.00  0.00    +0.000 A 
BRANCH  12  19
ATOM     18  C   UNL     1      11.940  14.283  19.640  0.00  0.00    +0.000 C 
ATOM     19  C   UNL     1      10.452  14.047  19.642  0.00  0.00    +0.000 C 
ATOM     20  O   UNL     1       9.664  14.943  19.940  0.00  0.00    +0.000 OA
ENDBRANCH  12  19
ENDBRANCH   1  15
TORSDOF 2
ENDMDL
MODEL 2
REMARK VINA RESULT:      -7.2      0.541      1.224
REMARK  Name = 
REMARK  3 active torsions:
REMARK  status: ('A' for Active; 'I' for Inactive)
REMARK    1  A    between atoms: C_1  and  C_2
REMARK    2  A    between atoms: C_2  and  C_4
REMARK    3  A    between atoms: C_7  and  C_8
REMARK                            x       y       z     vdW  Elec       q    Type
REMARK                         _______ _______ _______ _____ _____    ______ ____
ROOT
ATOM      1  C   UNL     1       8.387   8.810  18.319  0.00  0.00    +0.000 A 
ATOM      2  N   UNL     1       7.585   8.555  17.296  0.00  0.00    +0.000 NA
ATOM      3  C   UNL     1       7.288   7.216  17.376  0.00  0.00    +0.000 A 
ATOM      4  C   UNL     1       6.493   6.392  16.575  0.00  0.00    +0.000 A 
ATOM      5  C   UNL     1       6.378   5.060  16.974  0.00  0.00    +0.000 A 
ATOM      6 BR   UNL     1       5.305   3.866  15.979  0.00  0.00    +0.000 Br
ATOM      7  C   UNL     1       7.047   4.617  18.115  0.00  0.00    +0.000 A 
ATOM      8  N   UNL     1       7.843   5.377  18.913  0.00  0.00    +0.000 NA
ATOM      9  C   UNL     1       7.909   6.648  18.480  0.00  0.00    +0.000 A 
ATOM     10  N   UNL     1       8.606   7.666  19.053  0.00  0.00    +0.000 N 
ATOM     11  H   UNL     1       9.145   7.590  19.902  0.00  0.00    +0.000 HD
ENDROOT
BRANCH   1  15
ATOM     12  C   UNL     1      10.057  12.592  19.434  0.00  0.00    +0.000 A 
ATOM     13  C   UNL     1      10.003  11.537  20.350  0.00  0.00    +0.000 A 
ATOM     14  C   UNL     1       9.435  10.314  19.978  0.00  0.00    +0.000 A 
ATOM     15  C   UNL     1       8.926  10.118  18.688  0.00  0.00    +0.000 A 
ATOM     16  C   UNL     1       8.961  11.186  17.781  0.00  0.00    +0.000 A 
ATOM     17  C   UNL     1       9.522  12.413  18.152  0.00  0.00    +0.000 A 
BRANCH  12  19
ATOM     18  C   UNL     1      11.085  14.825  18.648  0.00  0.00    +0.000 C 
ATOM     19  C   UNL     1      10.681  13.905  19.771  0.00  0.00    +0.000 C 
ATOM     20  O   UNL     1      10.841  14.225  20.947  0.00  0.00    +0.000 OA
ENDBRANCH  12  19
ENDBRANCH   1  15
TORSDOF 2
ENDMDL
MODEL 3
REMARK VINA RESULT:      -7.0      7.614      8.500
REMARK  Name = 
REMARK  3 active torsions:
REMARK  status: ('A' for Active; 'I' for Inactive)
REMARK    1  A    between atoms: C_1  and  C_2
REMARK    2  A    between atoms: C_2  and  C_4
REMARK    3  A    between atoms: C_7  and  C_8
REMARK                            x       y       z     vdW  Elec       q    Type
REMARK                         _______ _______ _______ _____ _____    ______ ____
ROOT
ATOM      1  C   UNL     1       1.549   8.067  20.375  0.00  0.00    +0.000 A 
ATOM      2  N   UNL     1       2.094   8.123  19.168  0.00  0.00    +0.000 NA
ATOM      3  C   UNL     1       2.660   6.890  18.955  0.00  0.00    +0.000 A 
ATOM      4  C   UNL     1       3.366   6.368  17.867  0.00  0.00    +0.000 A 
ATOM      5  C   UNL     1       3.775   5.038  17.971  0.00  0.00    +0.000 A 
ATOM      6 BR   UNL     1       4.712   4.226  16.546  0.00  0.00    +0.000 Br
ATOM      7  C   UNL     1       3.480   4.309  19.122  0.00  0.00    +0.000 A 
ATOM      8  N   UNL     1       2.812   4.779  20.209  0.00  0.00    +0.000 NA
ATOM      9  C   UNL     1       2.441   6.061  20.046  0.00  0.00    +0.000 A 
ATOM     10  N   UNL     1       1.749   6.826  20.935  0.00  0.00    +0.000 N 
ATOM     11  H   UNL     1       1.405   6.505  21.826  0.00  0.00    +0.000 HD
ENDROOT
BRANCH   1  15
ATOM     12  C   UNL     1      -0.648  11.160  22.361  0.00  0.00    +0.000 A 
ATOM     13  C   UNL     1      -0.451   9.918  22.972  0.00  0.00    +0.000 A 
ATOM     14  C   UNL     1       0.250   8.910  22.302  0.00  0.00    +0.000 A 
ATOM     15  C   UNL     1       0.776   9.126  21.022  0.00  0.00    +0.000 A 
ATOM     16  C   UNL     1       0.556  10.364  20.404  0.00  0.00    +0.000 A 
ATOM     17  C   UNL     1      -0.152  11.373  21.069  0.00  0.00    +0.000 A 
BRANCH  12  19
ATOM     18  C   UNL     1      -2.842  12.151  23.290  0.00  0.00    +0.000 C 
ATOM     19  C   UNL     1      -1.361  12.278  23.045  0.00  0.00    +0.000 C 
ATOM     20  O   UNL     1      -0.737  13.272  23.411  0.00  0.00    +0.000 OA
ENDBRANCH  12  19
ENDBRANCH   1  15
TORSDOF 2
ENDMDL
MODEL 4
REMARK VINA RESULT:      -7.0      7.773      8.550
REMARK  Name = 
REMARK  3 active torsions:
REMARK  status: ('A' for Active; 'I' for Inactive)
REMARK    1  A    between atoms: C_1  and  C_2
REMARK    2  A    between atoms: C_2  and  C_4
REMARK    3  A    between atoms: C_7  and  C_8
REMARK                            x       y       z     vdW  Elec       q    Type
REMARK                         _______ _______ _______ _____ _____    ______ ____
ROOT
ATOM      1  C   UNL     1       1.539   8.052  20.426  0.00  0.00    +0.000 A 
ATOM      2  N   UNL     1       2.055   8.159  19.211  0.00  0.00    +0.000 NA
ATOM      3  C   UNL     1       2.670   6.957  18.958  0.00  0.00    +0.000 A 
ATOM      4  C   UNL     1       3.375   6.490  17.844  0.00  0.00    +0.000 A 
ATOM      5  C   UNL     1       3.844   5.178  17.909  0.00  0.00    +0.000 A 
ATOM      6 BR   UNL     1       4.785   4.440  16.448  0.00  0.00    +0.000 Br
ATOM      7  C   UNL     1       3.606   4.412  19.050  0.00  0.00    +0.000 A 
ATOM      8  N   UNL     1       2.941   4.828  20.161  0.00  0.00    +0.000 NA
ATOM      9  C   UNL     1       2.511   6.096  20.034  0.00  0.00    +0.000 A 
ATOM     10  N   UNL     1       1.806   6.809  20.954  0.00  0.00    +0.000 N 
ATOM     11  H   UNL     1       1.496   6.454  21.845  0.00  0.00    +0.000 HD
ENDROOT
BRANCH   1  15
ATOM     12  C   UNL     1      -0.893  10.999  22.360  0.00  0.00    +0.000 A 
ATOM     13  C   UNL     1      -0.545  11.132  21.012  0.00  0.00    +0.000 A 
ATOM     14  C   UNL     1       0.268  10.173  20.399  0.00  0.00    +0.000 A 
ATOM     15  C   UNL     1       0.735   9.062  21.114  0.00  0.00    +0.000 A 
ATOM     16  C   UNL     1       0.404   8.945  22.470  0.00  0.00    +0.000 A 
ATOM     17  C   UNL     1      -0.404   9.907  23.088  0.00  0.00    +0.000 A 
BRANCH  12  19
ATOM     18  C   UNL     1      -1.316  13.402  23.200  0.00  0.00    +0.000 C 
ATOM     19  C   UNL     1      -1.783  11.978  23.051  0.00  0.00    +0.000 C 
ATOM     20  O   UNL     1      -2.881  11.618  23.472  0.00  0.00    +0.000 OA
ENDBRANCH  12  19
ENDBRANCH   1  15
TORSDOF 2
ENDMDL
MODEL 5
REMARK VINA RESULT:      -7.0      6.516      7.589
REMARK  Name = 
REMARK  3 active torsions:
REMARK  status: ('A' for Active; 'I' for Inactive)
REMARK    1  A    between atoms: C_1  and  C_2
REMARK    2  A    between atoms: C_2  and  C_4
REMARK    3  A    between atoms: C_7  and  C_8
REMARK                            x       y       z     vdW  Elec       q    Type
REMARK                         _______ _______ _______ _____ _____    ______ ____
ROOT
ATOM      1  C   UNL     1       2.856   7.161  18.444  0.00  0.00    +0.000 A 
ATOM      2  N   UNL     1       3.689   7.557  17.493  0.00  0.00    +0.000 NA
ATOM      3  C   UNL     1       4.275   6.414  17.007  0.00  0.00    +0.000 A 
ATOM      4  C   UNL     1       5.226   6.212  16.003  0.00  0.00    +0.000 A 
ATOM      5  C   UNL     1       5.579   4.889  15.736  0.00  0.00    +0.000 A 
ATOM      6 BR   UNL     1       6.834   4.503  14.380  0.00  0.00    +0.000 Br
ATOM      7  C   UNL     1       4.994   3.855  16.465  0.00  0.00    +0.000 A 
ATOM      8  N   UNL     1       4.079   4.004  17.460  0.00  0.00    +0.000 NA
ATOM      9  C   UNL     1       3.777   5.298  17.665  0.00  0.00    +0.000 A 
ATOM     10  N   UNL     1       2.894   5.791  18.575  0.00  0.00    +0.000 N 
ATOM     11  H   UNL     1       2.332   5.231  19.196  0.00  0.00    +0.000 HD
ENDROOT
BRANCH   1  15
ATOM     12  C   UNL     1       0.302   9.674  20.790  0.00  0.00    +0.000 A 
ATOM     13  C   UNL     1       0.805   8.479  21.313  0.00  0.00    +0.000 A 
ATOM     14  C   UNL     1       1.621   7.657  20.528  0.00  0.00    +0.000 A 
ATOM     15  C   UNL     1       1.958   8.019  19.217  0.00  0.00    +0.000 A 
ATOM     16  C   UNL     1       1.433   9.205  18.689  0.00  0.00    +0.000 A 
ATOM     17  C   UNL     1       0.611  10.026  19.470  0.00  0.00    +0.000 A 
BRANCH  12  19
ATOM     18  C   UNL     1      -0.759  10.300  23.058  0.00  0.00    +0.000 C 
ATOM     19  C   UNL     1      -0.545  10.600  21.597  0.00  0.00    +0.000 C 
ATOM     20  O   UNL     1      -1.041  11.594  21.070  0.00  0.00    +0.000 OA
ENDBRANCH  12  19
ENDBRANCH   1  15
TORSDOF 2
ENDMDL
MODEL 6
REMARK VINA RESULT:      -6.9      6.613      7.596
REMARK  Name = 
REMARK  3 active torsions:
REMARK  status: ('A' for Active; 'I' for Inactive)
REMARK    1  A    between atoms: C_1  and  C_2
REMARK    2  A    between atoms: C_2  and  C_4
REMARK    3  A    between atoms: C_7  and  C_8
REMARK                            x       y       z     vdW  Elec       q    Type
REMARK                         _______ _______ _______ _____ _____    ______ ____
ROOT
ATOM      1  C   UNL     1       2.717   7.248  18.665  0.00  0.00    +0.000 A 
ATOM      2  N   UNL     1       3.552   7.586  17.694  0.00  0.00    +0.000 NA
ATOM      3  C   UNL     1       4.071   6.406  17.218  0.00  0.00    +0.000 A 
ATOM      4  C   UNL     1       4.993   6.140  16.202  0.00  0.00    +0.000 A 
ATOM      5  C   UNL     1       5.273   4.796  15.952  0.00  0.00    +0.000 A 
ATOM      6 BR   UNL     1       6.485   4.325  14.582  0.00  0.00    +0.000 Br
ATOM      7  C   UNL     1       4.649   3.805  16.707  0.00  0.00    +0.000 A 
ATOM      8  N   UNL     1       3.760   4.017  17.714  0.00  0.00    +0.000 NA
ATOM      9  C   UNL     1       3.528   5.328  17.902  0.00  0.00    +0.000 A 
ATOM     10  N   UNL     1       2.687   5.880  18.818  0.00  0.00    +0.000 N 
ATOM     11  H   UNL     1       2.107   5.359  19.457  0.00  0.00    +0.000 HD
ENDROOT
BRANCH   1  15
ATOM     12  C   UNL     1       0.182   9.922  20.847  0.00  0.00    +0.000 A 
ATOM     13  C   UNL     1       0.531  10.191  19.520  0.00  0.00    +0.000 A 
ATOM     14  C   UNL     1       1.377   9.320  18.827  0.00  0.00    +0.000 A 
ATOM     15  C   UNL     1       1.878   8.163  19.438  0.00  0.00    +0.000 A 
ATOM     16  C   UNL     1       1.545   7.910  20.775  0.00  0.00    +0.000 A 
ATOM     17  C   UNL     1       0.704   8.784  21.474  0.00  0.00    +0.000 A 
BRANCH  12  19
ATOM     18  C   UNL     1      -0.951  10.525  23.086  0.00  0.00    +0.000 C 
ATOM     19  C   UNL     1      -0.742  10.803  21.620  0.00  0.00    +0.000 C 
ATOM     20  O   UNL     1      -1.303  11.744  21.063  0.00  0.00    +0.000 OA
ENDBRANCH  12  19
ENDBRANCH   1  15
TORSDOF 2
ENDMDL
MODEL 7
REMARK VINA RESULT:      -6.9      7.906      9.888
REMARK  Name = 
REMARK  3 active torsions:
REMARK  status: ('A' for Active; 'I' for Inactive)
REMARK    1  A    between atoms: C_1  and  C_2
REMARK    2  A    between atoms: C_2  and  C_4
REMARK    3  A    between atoms: C_7  and  C_8
REMARK                            x       y       z     vdW  Elec       q    Type
REMARK                         _______ _______ _______ _____ _____    ______ ____
ROOT
ATOM      1  C   UNL     1       1.858   7.611  20.100  0.00  0.00    +0.000 A 
ATOM      2  N   UNL     1       1.624   8.435  19.089  0.00  0.00    +0.000 NA
ATOM      3  C   UNL     1       1.118   9.582  19.649  0.00  0.00    +0.000 A 
ATOM      4  C   UNL     1       0.695  10.786  19.079  0.00  0.00    +0.000 A 
ATOM      5  C   UNL     1       0.263  11.775  19.961  0.00  0.00    +0.000 A 
ATOM      6 BR   UNL     1      -0.304  13.450  19.297  0.00  0.00    +0.000 Br
ATOM      7  C   UNL     1       0.262  11.529  21.334  0.00  0.00    +0.000 A 
ATOM      8  N   UNL     1       0.648  10.370  21.932  0.00  0.00    +0.000 NA
ATOM      9  C   UNL     1       1.058   9.460  21.031  0.00  0.00    +0.000 A 
ATOM     10  N   UNL     1       1.517   8.206  21.293  0.00  0.00    +0.000 N 
ATOM     11  H   UNL     1       1.630   7.816  22.215  0.00  0.00    +0.000 HD
ENDROOT
BRANCH   1  15
ATOM     12  C   UNL     1       3.514   3.673  19.798  0.00  0.00    +0.000 A 
ATOM     13  C   UNL     1       2.365   3.909  20.560  0.00  0.00    +0.000 A 
ATOM     14  C   UNL     1       1.848   5.204  20.667  0.00  0.00    +0.000 A 
ATOM     15  C   UNL     1       2.457   6.280  20.008  0.00  0.00    +0.000 A 
ATOM     16  C   UNL     1       3.621   6.043  19.265  0.00  0.00    +0.000 A 
ATOM     17  C   UNL     1       4.145   4.749  19.162  0.00  0.00    +0.000 A 
BRANCH  12  19
ATOM     18  C   UNL     1       3.576   1.441  18.503  0.00  0.00    +0.000 C 
ATOM     19  C   UNL     1       4.086   2.306  19.626  0.00  0.00    +0.000 C 
ATOM     20  O   UNL     1       4.969   1.911  20.385  0.00  0.00    +0.000 OA
ENDBRANCH  12  19
ENDBRANCH   1  15
TORSDOF 2
ENDMDL
MODEL 8
REMARK VINA RESULT:      -6.9      6.651      8.582
REMARK  Name = 
REMARK  3 active torsions:
REMARK  status: ('A' for Active; 'I' for Inactive)
REMARK    1  A    between atoms: C_1  and  C_2
REMARK    2  A    between atoms: C_2  and  C_4
REMARK    3  A    between atoms: C_7  and  C_8
REMARK                            x       y       z     vdW  Elec       q    Type
REMARK                         _______ _______ _______ _____ _____    ______ ____
ROOT
ATOM      1  C   UNL     1       2.701   7.557  18.561  0.00  0.00    +0.000 A 
ATOM      2  N   UNL     1       2.070   8.631  18.109  0.00  0.00    +0.000 NA
ATOM      3  C   UNL     1       1.292   9.075  19.150  0.00  0.00    +0.000 A 
ATOM      4  C   UNL     1       0.418  10.160  19.259  0.00  0.00    +0.000 A 
ATOM      5  C   UNL     1      -0.195  10.345  20.498  0.00  0.00    +0.000 A 
ATOM      6 BR   UNL     1      -1.373  11.797  20.762  0.00  0.00    +0.000 Br
ATOM      7  C   UNL     1       0.074   9.462  21.544  0.00  0.00    +0.000 A 
ATOM      8  N   UNL     1       0.903   8.385  21.479  0.00  0.00    +0.000 NA
ATOM      9  C   UNL     1       1.465   8.265  20.264  0.00  0.00    +0.000 A 
ATOM     10  N   UNL     1       2.347   7.307  19.868  0.00  0.00    +0.000 N 
ATOM     11  H   UNL     1       2.709   6.577  20.460  0.00  0.00    +0.000 HD
ENDROOT
BRANCH   1  15
ATOM     12  C   UNL     1       5.518   5.200  16.359  0.00  0.00    +0.000 A 
ATOM     13  C   UNL     1       4.395   4.609  16.945  0.00  0.00    +0.000 A 
ATOM     14  C   UNL     1       3.494   5.388  17.680  0.00  0.00    +0.000 A 
ATOM     15  C   UNL     1       3.691   6.766  17.831  0.00  0.00    +0.000 A 
ATOM     16  C   UNL     1       4.830   7.350  17.262  0.00  0.00    +0.000 A 
ATOM     17  C   UNL     1       5.737   6.573  16.532  0.00  0.00    +0.000 A 
BRANCH  12  19
ATOM     18  C   UNL     1       6.038   3.858  14.217  0.00  0.00    +0.000 C 
ATOM     19  C   UNL     1       6.491   4.420  15.540  0.00  0.00    +0.000 C 
ATOM     20  O   UNL     1       7.641   4.260  15.941  0.00  0.00    +0.000 OA
ENDBRANCH  12  19
ENDBRANCH   1  15
TORSDOF 2
ENDMDL
MODEL 9
REMARK VINA RESULT:      -6.9      6.877      8.684
REMARK  Name = 
REMARK  3 active torsions:
REMARK  status: ('A' for Active; 'I' for Inactive)
REMARK    1  A    between atoms: C_1  and  C_2
REMARK    2  A    between atoms: C_2  and  C_4
REMARK    3  A    between atoms: C_7  and  C_8
REMARK                            x       y       z     vdW  Elec       q    Type
REMARK                         _______ _______ _______ _____ _____    ______ ____
ROOT
ATOM      1  C   UNL     1       2.812   7.506  18.458  0.00  0.00    +0.000 A 
ATOM      2  N   UNL     1       2.564   7.247  19.734  0.00  0.00    +0.000 NA
ATOM      3  C   UNL     1       1.681   8.214  20.147  0.00  0.00    +0.000 A 
ATOM      4  C   UNL     1       1.069   8.446  21.383  0.00  0.00    +0.000 A 
ATOM      5  C   UNL     1       0.178   9.518  21.445  0.00  0.00    +0.000 A 
ATOM      6 BR   UNL     1      -0.723   9.902  23.060  0.00  0.00    +0.000 Br
ATOM      7  C   UNL     1      -0.053  10.295  20.311  0.00  0.00    +0.000 A 
ATOM      8  N   UNL     1       0.530  10.117  19.095  0.00  0.00    +0.000 NA
ATOM      9  C   UNL     1       1.371   9.068  19.098  0.00  0.00    +0.000 A 
ATOM     10  N   UNL     1       2.104   8.612  18.046  0.00  0.00    +0.000 N 
ATOM     11  H   UNL     1       2.080   8.999  17.116  0.00  0.00    +0.000 HD
ENDROOT
BRANCH   1  15
ATOM     12  C   UNL     1       5.369   5.240  15.876  0.00  0.00    +0.000 A 
ATOM     13  C   UNL     1       5.342   6.637  15.809  0.00  0.00    +0.000 A 
ATOM     14  C   UNL     1       4.486   7.362  16.644  0.00  0.00    +0.000 A 
ATOM     15  C   UNL     1       3.655   6.712  17.565  0.00  0.00    +0.000 A 
ATOM     16  C   UNL     1       3.668   5.312  17.611  0.00  0.00    +0.000 A 
ATOM     17  C   UNL     1       4.517   4.582  16.772  0.00  0.00    +0.000 A 
BRANCH  12  19
ATOM     18  C   UNL     1       5.735   3.762  13.792  0.00  0.00    +0.000 C 
ATOM     19  C   UNL     1       6.286   4.422  15.029  0.00  0.00    +0.000 C 
ATOM     20  O   UNL     1       7.470   4.310  15.339  0.00  0.00    +0.000 OA
ENDBRANCH  12  19
ENDBRANCH   1  15
TORSDOF 2
ENDMDL
