MODEL 1
REMARK VINA RESULT:      -7.6      0.000      0.000
REMARK  Name = 
REMARK  6 active torsions:
REMARK  status: ('A' for Active; 'I' for Inactive)
REMARK    1  A    between atoms: C_1  and  C_2
REMARK    2  A    between atoms: N_4  and  C_5
REMARK    3  A    between atoms: C_5  and  C_6
REMARK    4  A    between atoms: C_5  and  C_7
REMARK    5  A    between atoms: N_15  and  C_16
REMARK    6  A    between atoms: C_16  and  C_17
REMARK                            x       y       z     vdW  Elec       q    Type
REMARK                         _______ _______ _______ _____ _____    ______ ____
ROOT
ATOM      1  C   UNL     1       4.295   6.708  17.664  0.00  0.00    +0.000 A 
ATOM      2  N   UNL     1       3.777   7.770  17.068  0.00  0.00    +0.000 NA
ATOM      3  C   UNL     1       2.795   8.227  17.908  0.00  0.00    +0.000 A 
ATOM      4  C   UNL     1       1.946   9.337  17.767  0.00  0.00    +0.000 A 
ATOM      5  C   UNL     1       1.036   9.627  18.790  0.00  0.00    +0.000 A 
ATOM      6  C   UNL     1       0.977   8.834  19.937  0.00  0.00    +0.000 A 
ATOM      7  C   UNL     1       1.808   7.717  20.089  0.00  0.00    +0.000 A 
ATOM      8  C   UNL     1       2.699   7.432  19.046  0.00  0.00    +0.000 A 
ATOM      9  N   UNL     1       3.608   6.416  18.827  0.00  0.00    +0.000 N 
ENDROOT
BRANCH   1  10
ATOM     10  C   UNL     1       5.486   5.938  17.163  0.00  0.00    +0.000 C 
ATOM     11  C   UNL     1       6.753   6.778  17.294  0.00  0.00    +0.000 C 
BRANCH  10  15
ATOM     12  C   UNL     1       5.298   4.253  13.781  0.00  0.00    +0.000 C 
ATOM     13  C   UNL     1       5.689   4.434  15.219  0.00  0.00    +0.000 C 
ATOM     14  O   UNL     1       6.334   3.592  15.839  0.00  0.00    +0.000 OA
ATOM     15  N   UNL     1       5.232   5.597  15.778  0.00  0.00    +0.000 N 
ATOM     16  H   UNL     1       4.704   6.274  15.235  0.00  0.00    +0.000 HD
ENDBRANCH  10  15
ENDBRANCH   1  10
BRANCH   9  17
ATOM     17  C   UNL     1       3.802   5.260  19.696  0.00  0.00    +0.000 C 
BRANCH  17  18
ATOM     18  C   UNL     1       2.866   4.128  19.356  0.00  0.00    +0.000 A 
ATOM     19  C   UNL     1       3.104   3.263  18.278  0.00  0.00    +0.000 A 
ATOM     20  C   UNL     1       2.180   2.261  17.957  0.00  0.00    +0.000 A 
ATOM     21  C   UNL     1       1.020   2.105  18.717  0.00  0.00    +0.000 A 
ATOM     22  C   UNL     1       0.794   2.932  19.813  0.00  0.00    +0.000 A 
ATOM     23  C   UNL     1       1.716   3.927  20.126  0.00  0.00    +0.000 A 
ATOM     24  F   UNL     1       1.476   4.716  21.183  0.00  0.00    +0.000 F 
ENDBRANCH  17  18
ENDBRANCH   9  17
TORSDOF 4
ENDMDL
MODEL 2
REMARK VINA RESULT:      -7.6      1.498      4.661
REMARK  Name = 
REMARK  6 active torsions:
REMARK  status: ('A' for Active; 'I' for Inactive)
REMARK    1  A    between atoms: C_1  and  C_2
REMARK    2  A    between atoms: N_4  and  C_5
REMARK    3  A    between atoms: C_5  and  C_6
REMARK    4  A    between atoms: C_5  and  C_7
REMARK    5  A    between atoms: N_15  and  C_16
REMARK    6  A    between atoms: C_16  and  C_17
REMARK                            x       y       z     vdW  Elec       q    Type
REMARK                         _______ _______ _______ _____ _____    ______ ____
ROOT
ATOM      1  C   UNL     1       4.040   4.813  17.473  0.00  0.00    +0.000 A 
ATOM      2  N   UNL     1       3.617   3.617  17.098  0.00  0.00    +0.000 NA
ATOM      3  C   UNL     1       2.607   3.289  17.964  0.00  0.00    +0.000 A 
ATOM      4  C   UNL     1       1.804   2.137  18.003  0.00  0.00    +0.000 A 
ATOM      5  C   UNL     1       0.799   2.046  18.972  0.00  0.00    +0.000 A 
ATOM      6  C   UNL     1       0.589   3.085  19.880  0.00  0.00    +0.000 A 
ATOM      7  C   UNL     1       1.387   4.234  19.863  0.00  0.00    +0.000 A 
ATOM      8  C   UNL     1       2.401   4.300  18.898  0.00  0.00    +0.000 A 
ATOM      9  N   UNL     1       3.386   5.225  18.619  0.00  0.00    +0.000 N 
ENDROOT
BRANCH   1  10
ATOM     10  C   UNL     1       5.070   5.628  16.741  0.00  0.00    +0.000 C 
ATOM     11  C   UNL     1       5.425   4.964  15.414  0.00  0.00    +0.000 C 
BRANCH  10  15
ATOM     12  C   UNL     1       8.157   6.770  18.607  0.00  0.00    +0.000 C 
ATOM     13  C   UNL     1       7.014   6.854  17.636  0.00  0.00    +0.000 C 
ATOM     14  O   UNL     1       6.789   7.858  16.965  0.00  0.00    +0.000 OA
ATOM     15  N   UNL     1       6.235   5.729  17.597  0.00  0.00    +0.000 N 
ATOM     16  H   UNL     1       6.452   4.915  18.163  0.00  0.00    +0.000 HD
ENDBRANCH  10  15
ENDBRANCH   1  10
BRANCH   9  17
ATOM     17  C   UNL     1       3.657   6.427  19.401  0.00  0.00    +0.000 C 
BRANCH  17  18
ATOM     18  C   UNL     1       2.678   7.534  19.103  0.00  0.00    +0.000 A 
ATOM     19  C   UNL     1       2.670   8.210  17.873  0.00  0.00    +0.000 A 
ATOM     20  C   UNL     1       1.786   9.273  17.656  0.00  0.00    +0.000 A 
ATOM     21  C   UNL     1       0.894   9.661  18.656  0.00  0.00    +0.000 A 
ATOM     22  C   UNL     1       0.866   8.970  19.864  0.00  0.00    +0.000 A 
ATOM     23  C   UNL     1       1.748   7.915  20.075  0.00  0.00    +0.000 A 
ATOM     24  F   UNL     1       1.708   7.268  21.248  0.00  0.00    +0.000 F 
ENDBRANCH  17  18
ENDBRANCH   9  17
TORSDOF 4
ENDMDL
MODEL 3
REMARK VINA RESULT:      -7.5      1.334      2.043
REMARK  Name = 
REMARK  6 active torsions:
REMARK  status: ('A' for Active; 'I' for Inactive)
REMARK    1  A    between atoms: C_1  and  C_2
REMARK    2  A    between atoms: N_4  and  C_5
REMARK    3  A    between atoms: C_5  and  C_6
REMARK    4  A    between atoms: C_5  and  C_7
REMARK    5  A    between atoms: N_15  and  C_16
REMARK    6  A    between atoms: C_16  and  C_17
REMARK                            x       y       z     vdW  Elec       q    Type
REMARK                         _______ _______ _______ _____ _____    ______ ____
ROOT
ATOM      1  C   UNL     1       3.936   6.922  17.483  0.00  0.00    +0.000 A 
ATOM      2  N   UNL     1       3.294   7.970  16.992  0.00  0.00    +0.000 NA
ATOM      3  C   UNL     1       2.420   8.366  17.971  0.00  0.00    +0.000 A 
ATOM      4  C   UNL     1       1.513   9.437  17.977  0.00  0.00    +0.000 A 
ATOM      5  C   UNL     1       0.743   9.666  19.123  0.00  0.00    +0.000 A 
ATOM      6  C   UNL     1       0.880   8.851  20.247  0.00  0.00    +0.000 A 
ATOM      7  C   UNL     1       1.771   7.771  20.255  0.00  0.00    +0.000 A 
ATOM      8  C   UNL     1       2.520   7.546  19.091  0.00  0.00    +0.000 A 
ATOM      9  N   UNL     1       3.432   6.578  18.723  0.00  0.00    +0.000 N 
ENDROOT
BRANCH   1  10
ATOM     10  C   UNL     1       5.077   6.218  16.802  0.00  0.00    +0.000 C 
ATOM     11  C   UNL     1       4.603   4.895  16.208  0.00  0.00    +0.000 C 
BRANCH  10  15
ATOM     12  C   UNL     1       8.188   6.381  18.949  0.00  0.00    +0.000 C 
ATOM     13  C   UNL     1       7.258   6.744  17.827  0.00  0.00    +0.000 C 
ATOM     14  O   UNL     1       7.500   7.650  17.035  0.00  0.00    +0.000 OA
ATOM     15  N   UNL     1       6.109   6.000  17.796  0.00  0.00    +0.000 N 
ATOM     16  H   UNL     1       5.941   5.255  18.465  0.00  0.00    +0.000 HD
ENDBRANCH  10  15
ENDBRANCH   1  10
BRANCH   9  17
ATOM     17  C   UNL     1       3.796   5.416  19.527  0.00  0.00    +0.000 C 
BRANCH  17  18
ATOM     18  C   UNL     1       2.716   4.364  19.531  0.00  0.00    +0.000 A 
ATOM     19  C   UNL     1       2.304   3.716  18.356  0.00  0.00    +0.000 A 
ATOM     20  C   UNL     1       1.256   2.789  18.390  0.00  0.00    +0.000 A 
ATOM     21  C   UNL     1       0.621   2.489  19.596  0.00  0.00    +0.000 A 
ATOM     22  C   UNL     1       1.049   3.096  20.773  0.00  0.00    +0.000 A 
ATOM     23  C   UNL     1       2.091   4.018  20.732  0.00  0.00    +0.000 A 
ATOM     24  F   UNL     1       2.483   4.596  21.877  0.00  0.00    +0.000 F 
ENDBRANCH  17  18
ENDBRANCH   9  17
TORSDOF 4
ENDMDL
MODEL 4
REMARK VINA RESULT:      -7.5      0.975      1.397
REMARK  Name = 
REMARK  6 active torsions:
REMARK  status: ('A' for Active; 'I' for Inactive)
REMARK    1  A    between atoms: C_1  and  C_2
REMARK    2  A    between atoms: N_4  and  C_5
REMARK    3  A    between atoms: C_5  and  C_6
REMARK    4  A    between atoms: C_5  and  C_7
REMARK    5  A    between atoms: N_15  and  C_16
REMARK    6  A    between atoms: C_16  and  C_17
REMARK                            x       y       z     vdW  Elec       q    Type
REMARK                         _______ _______ _______ _____ _____    ______ ____
ROOT
ATOM      1  C   UNL     1       4.353   6.653  17.631  0.00  0.00    +0.000 A 
ATOM      2  N   UNL     1       3.839   7.726  17.052  0.00  0.00    +0.000 NA
ATOM      3  C   UNL     1       2.858   8.172  17.899  0.00  0.00    +0.000 A 
ATOM      4  C   UNL     1       2.013   9.287  17.776  0.00  0.00    +0.000 A 
ATOM      5  C   UNL     1       1.103   9.562  18.803  0.00  0.00    +0.000 A 
ATOM      6  C   UNL     1       1.041   8.751  19.936  0.00  0.00    +0.000 A 
ATOM      7  C   UNL     1       1.867   7.629  20.070  0.00  0.00    +0.000 A 
ATOM      8  C   UNL     1       2.759   7.358  19.024  0.00  0.00    +0.000 A 
ATOM      9  N   UNL     1       3.665   6.343  18.788  0.00  0.00    +0.000 N 
ENDROOT
BRANCH   1  10
ATOM     10  C   UNL     1       5.542   5.888  17.117  0.00  0.00    +0.000 C 
ATOM     11  C   UNL     1       6.811   6.724  17.258  0.00  0.00    +0.000 C 
BRANCH  10  15
ATOM     12  C   UNL     1       5.374   4.264  13.704  0.00  0.00    +0.000 C 
ATOM     13  C   UNL     1       5.774   4.428  15.143  0.00  0.00    +0.000 C 
ATOM     14  O   UNL     1       6.451   3.596  15.740  0.00  0.00    +0.000 OA
ATOM     15  N   UNL     1       5.286   5.566  15.728  0.00  0.00    +0.000 N 
ATOM     16  H   UNL     1       4.731   6.235  15.204  0.00  0.00    +0.000 HD
ENDBRANCH  10  15
ENDBRANCH   1  10
BRANCH   9  17
ATOM     17  C   UNL     1       3.854   5.172  19.637  0.00  0.00    +0.000 C 
BRANCH  17  18
ATOM     18  C   UNL     1       2.760   4.152  19.453  0.00  0.00    +0.000 A 
ATOM     19  C   UNL     1       1.654   4.082  20.313  0.00  0.00    +0.000 A 
ATOM     20  C   UNL     1       0.689   3.081  20.147  0.00  0.00    +0.000 A 
ATOM     21  C   UNL     1       0.811   2.153  19.112  0.00  0.00    +0.000 A 
ATOM     22  C   UNL     1       1.883   2.238  18.229  0.00  0.00    +0.000 A 
ATOM     23  C   UNL     1       2.840   3.234  18.401  0.00  0.00    +0.000 A 
ATOM     24  F   UNL     1       3.867   3.293  17.542  0.00  0.00    +0.000 F 
ENDBRANCH  17  18
ENDBRANCH   9  17
TORSDOF 4
ENDMDL
MODEL 5
REMARK VINA RESULT:      -7.4      1.651      2.109
REMARK  Name = 
REMARK  6 active torsions:
REMARK  status: ('A' for Active; 'I' for Inactive)
REMARK    1  A    between atoms: C_1  and  C_2
REMARK    2  A    between atoms: N_4  and  C_5
REMARK    3  A    between atoms: C_5  and  C_6
REMARK    4  A    between atoms: C_5  and  C_7
REMARK    5  A    between atoms: N_15  and  C_16
REMARK    6  A    between atoms: C_16  and  C_17
REMARK                            x       y       z     vdW  Elec       q    Type
REMARK                         _______ _______ _______ _____ _____    ______ ____
ROOT
ATOM      1  C   UNL     1       5.551   5.411  17.368  0.00  0.00    +0.000 A 
ATOM      2  N   UNL     1       5.195   6.539  16.776  0.00  0.00    +0.000 NA
ATOM      3  C   UNL     1       4.128   7.016  17.492  0.00  0.00    +0.000 A 
ATOM      4  C   UNL     1       3.380   8.189  17.303  0.00  0.00    +0.000 A 
ATOM      5  C   UNL     1       2.347   8.484  18.200  0.00  0.00    +0.000 A 
ATOM      6  C   UNL     1       2.068   7.633  19.269  0.00  0.00    +0.000 A 
ATOM      7  C   UNL     1       2.795   6.453  19.466  0.00  0.00    +0.000 A 
ATOM      8  C   UNL     1       3.814   6.166  18.548  0.00  0.00    +0.000 A 
ATOM      9  N   UNL     1       4.681   5.102  18.396  0.00  0.00    +0.000 N 
ENDROOT
BRANCH   1  10
ATOM     10  C   UNL     1       6.754   4.588  16.995  0.00  0.00    +0.000 C 
ATOM     11  C   UNL     1       7.834   4.714  18.066  0.00  0.00    +0.000 C 
BRANCH  10  15
ATOM     12  C   UNL     1       7.453   5.153  13.320  0.00  0.00    +0.000 C 
ATOM     13  C   UNL     1       6.873   4.486  14.534  0.00  0.00    +0.000 C 
ATOM     14  O   UNL     1       6.117   3.521  14.459  0.00  0.00    +0.000 OA
ATOM     15  N   UNL     1       7.234   5.073  15.716  0.00  0.00    +0.000 N 
ATOM     16  H   UNL     1       7.864   5.869  15.742  0.00  0.00    +0.000 HD
ENDBRANCH  10  15
ENDBRANCH   1  10
BRANCH   9  17
ATOM     17  C   UNL     1       4.670   3.887  19.203  0.00  0.00    +0.000 C 
BRANCH  17  18
ATOM     18  C   UNL     1       3.275   3.365  19.430  0.00  0.00    +0.000 A 
ATOM     19  C   UNL     1       2.701   3.305  20.710  0.00  0.00    +0.000 A 
ATOM     20  C   UNL     1       1.425   2.757  20.888  0.00  0.00    +0.000 A 
ATOM     21  C   UNL     1       0.705   2.281  19.792  0.00  0.00    +0.000 A 
ATOM     22  C   UNL     1       1.248   2.373  18.514  0.00  0.00    +0.000 A 
ATOM     23  C   UNL     1       2.518   2.917  18.343  0.00  0.00    +0.000 A 
ATOM     24  F   UNL     1       3.024   2.991  17.104  0.00  0.00    +0.000 F 
ENDBRANCH  17  18
ENDBRANCH   9  17
TORSDOF 4
ENDMDL
MODEL 6
REMARK VINA RESULT:      -7.4      1.753      2.343
REMARK  Name = 
REMARK  6 active torsions:
REMARK  status: ('A' for Active; 'I' for Inactive)
REMARK    1  A    between atoms: C_1  and  C_2
REMARK    2  A    between atoms: N_4  and  C_5
REMARK    3  A    between atoms: C_5  and  C_6
REMARK    4  A    between atoms: C_5  and  C_7
REMARK    5  A    between atoms: N_15  and  C_16
REMARK    6  A    between atoms: C_16  and  C_17
REMARK                            x       y       z     vdW  Elec       q    Type
REMARK                         _______ _______ _______ _____ _____    ______ ____
ROOT
ATOM      1  C   UNL     1       5.569   5.335  16.790  0.00  0.00    +0.000 A 
ATOM      2  N   UNL     1       5.535   6.658  16.776  0.00  0.00    +0.000 NA
ATOM      3  C   UNL     1       4.293   7.004  17.244  0.00  0.00    +0.000 A 
ATOM      4  C   UNL     1       3.740   8.278  17.448  0.00  0.00    +0.000 A 
ATOM      5  C   UNL     1       2.448   8.378  17.978  0.00  0.00    +0.000 A 
ATOM      6  C   UNL     1       1.723   7.232  18.307  0.00  0.00    +0.000 A 
ATOM      7  C   UNL     1       2.254   5.954  18.099  0.00  0.00    +0.000 A 
ATOM      8  C   UNL     1       3.542   5.873  17.551  0.00  0.00    +0.000 A 
ATOM      9  N   UNL     1       4.346   4.818  17.170  0.00  0.00    +0.000 N 
ENDROOT
BRANCH   1  10
ATOM     10  C   UNL     1       6.780   4.505  16.464  0.00  0.00    +0.000 C 
ATOM     11  C   UNL     1       7.750   4.499  17.642  0.00  0.00    +0.000 C 
BRANCH  10  15
ATOM     12  C   UNL     1       7.824   5.394  12.937  0.00  0.00    +0.000 C 
ATOM     13  C   UNL     1       7.097   4.652  14.022  0.00  0.00    +0.000 C 
ATOM     14  O   UNL     1       6.282   3.765  13.785  0.00  0.00    +0.000 OA
ATOM     15  N   UNL     1       7.399   5.081  15.287  0.00  0.00    +0.000 N 
ATOM     16  H   UNL     1       8.081   5.816  15.448  0.00  0.00    +0.000 HD
ENDBRANCH  10  15
ENDBRANCH   1  10
BRANCH   9  17
ATOM     17  C   UNL     1       3.955   3.412  17.192  0.00  0.00    +0.000 C 
BRANCH  17  18
ATOM     18  C   UNL     1       3.106   3.076  18.391  0.00  0.00    +0.000 A 
ATOM     19  C   UNL     1       1.737   2.787  18.277  0.00  0.00    +0.000 A 
ATOM     20  C   UNL     1       0.969   2.538  19.421  0.00  0.00    +0.000 A 
ATOM     21  C   UNL     1       1.561   2.561  20.684  0.00  0.00    +0.000 A 
ATOM     22  C   UNL     1       2.925   2.806  20.804  0.00  0.00    +0.000 A 
ATOM     23  C   UNL     1       3.684   3.054  19.664  0.00  0.00    +0.000 A 
ATOM     24  F   UNL     1       4.995   3.294  19.804  0.00  0.00    +0.000 F 
ENDBRANCH  17  18
ENDBRANCH   9  17
TORSDOF 4
ENDMDL
MODEL 7
REMARK VINA RESULT:      -7.3      1.092      1.210
REMARK  Name = 
REMARK  6 active torsions:
REMARK  status: ('A' for Active; 'I' for Inactive)
REMARK    1  A    between atoms: C_1  and  C_2
REMARK    2  A    between atoms: N_4  and  C_5
REMARK    3  A    between atoms: C_5  and  C_6
REMARK    4  A    between atoms: C_5  and  C_7
REMARK    5  A    between atoms: N_15  and  C_16
REMARK    6  A    between atoms: C_16  and  C_17
REMARK                            x       y       z     vdW  Elec       q    Type
REMARK                         _______ _______ _______ _____ _____    ______ ____
ROOT
ATOM      1  C   UNL     1       5.381   5.945  17.867  0.00  0.00    +0.000 A 
ATOM      2  N   UNL     1       5.006   7.005  17.170  0.00  0.00    +0.000 NA
ATOM      3  C   UNL     1       3.850   7.449  17.758  0.00  0.00    +0.000 A 
ATOM      4  C   UNL     1       3.046   8.552  17.427  0.00  0.00    +0.000 A 
ATOM      5  C   UNL     1       1.920   8.827  18.209  0.00  0.00    +0.000 A 
ATOM      6  C   UNL     1       1.603   8.028  19.308  0.00  0.00    +0.000 A 
ATOM      7  C   UNL     1       2.386   6.918  19.646  0.00  0.00    +0.000 A 
ATOM      8  C   UNL     1       3.499   6.646  18.840  0.00  0.00    +0.000 A 
ATOM      9  N   UNL     1       4.445   5.640  18.836  0.00  0.00    +0.000 N 
ENDROOT
BRANCH   1  10
ATOM     10  C   UNL     1       6.664   5.189  17.655  0.00  0.00    +0.000 C 
ATOM     11  C   UNL     1       7.748   5.712  18.594  0.00  0.00    +0.000 C 
BRANCH  10  15
ATOM     12  C   UNL     1       7.159   4.854  13.919  0.00  0.00    +0.000 C 
ATOM     13  C   UNL     1       6.683   4.479  15.293  0.00  0.00    +0.000 C 
ATOM     14  O   UNL     1       6.000   3.481  15.506  0.00  0.00    +0.000 OA
ATOM     15  N   UNL     1       7.050   5.366  16.269  0.00  0.00    +0.000 N 
ATOM     16  H   UNL     1       7.619   6.180  16.059  0.00  0.00    +0.000 HD
ENDBRANCH  10  15
ENDBRANCH   1  10
BRANCH   9  17
ATOM     17  C   UNL     1       4.442   4.481  19.722  0.00  0.00    +0.000 C 
BRANCH  17  18
ATOM     18  C   UNL     1       3.230   3.609  19.516  0.00  0.00    +0.000 A 
ATOM     19  C   UNL     1       3.032   2.875  18.336  0.00  0.00    +0.000 A 
ATOM     20  C   UNL     1       1.864   2.124  18.157  0.00  0.00    +0.000 A 
ATOM     21  C   UNL     1       0.893   2.086  19.157  0.00  0.00    +0.000 A 
ATOM     22  C   UNL     1       1.098   2.778  20.348  0.00  0.00    +0.000 A 
ATOM     23  C   UNL     1       2.260   3.524  20.519  0.00  0.00    +0.000 A 
ATOM     24  F   UNL     1       2.434   4.187  21.671  0.00  0.00    +0.000 F 
ENDBRANCH  17  18
ENDBRANCH   9  17
TORSDOF 4
ENDMDL
MODEL 8
REMARK VINA RESULT:      -7.3      2.565      5.167
REMARK  Name = 
REMARK  6 active torsions:
REMARK  status: ('A' for Active; 'I' for Inactive)
REMARK    1  A    between atoms: C_1  and  C_2
REMARK    2  A    between atoms: N_4  and  C_5
REMARK    3  A    between atoms: C_5  and  C_6
REMARK    4  A    between atoms: C_5  and  C_7
REMARK    5  A    between atoms: N_15  and  C_16
REMARK    6  A    between atoms: C_16  and  C_17
REMARK                            x       y       z     vdW  Elec       q    Type
REMARK                         _______ _______ _______ _____ _____    ______ ____
ROOT
ATOM      1  C   UNL     1       3.073   7.177  17.940  0.00  0.00    +0.000 A 
ATOM      2  N   UNL     1       4.323   7.564  17.743  0.00  0.00    +0.000 NA
ATOM      3  C   UNL     1       4.981   6.464  17.257  0.00  0.00    +0.000 A 
ATOM      4  C   UNL     1       6.323   6.328  16.866  0.00  0.00    +0.000 A 
ATOM      5  C   UNL     1       6.759   5.098  16.360  0.00  0.00    +0.000 A 
ATOM      6  C   UNL     1       5.875   4.026  16.236  0.00  0.00    +0.000 A 
ATOM      7  C   UNL     1       4.537   4.140  16.632  0.00  0.00    +0.000 A 
ATOM      8  C   UNL     1       4.124   5.373  17.153  0.00  0.00    +0.000 A 
ATOM      9  N   UNL     1       2.931   5.828  17.678  0.00  0.00    +0.000 N 
ENDROOT
BRANCH   1  10
ATOM     10  C   UNL     1       1.951   8.085  18.364  0.00  0.00    +0.000 C 
ATOM     11  C   UNL     1       2.120   9.465  17.735  0.00  0.00    +0.000 C 
BRANCH  10  15
ATOM     12  C   UNL     1       1.230   8.808  22.007  0.00  0.00    +0.000 C 
ATOM     13  C   UNL     1       1.040   8.867  20.518  0.00  0.00    +0.000 C 
ATOM     14  O   UNL     1       0.103   9.463  19.995  0.00  0.00    +0.000 OA
ATOM     15  N   UNL     1       1.981   8.168  19.810  0.00  0.00    +0.000 N 
ATOM     16  H   UNL     1       2.745   7.688  20.275  0.00  0.00    +0.000 HD
ENDBRANCH  10  15
ENDBRANCH   1  10
BRANCH   9  17
ATOM     17  C   UNL     1       1.740   5.012  17.891  0.00  0.00    +0.000 C 
BRANCH  17  18
ATOM     18  C   UNL     1       1.840   4.171  19.137  0.00  0.00    +0.000 A 
ATOM     19  C   UNL     1       1.881   4.740  20.419  0.00  0.00    +0.000 A 
ATOM     20  C   UNL     1       2.036   3.929  21.549  0.00  0.00    +0.000 A 
ATOM     21  C   UNL     1       2.136   2.544  21.412  0.00  0.00    +0.000 A 
ATOM     22  C   UNL     1       2.056   1.966  20.148  0.00  0.00    +0.000 A 
ATOM     23  C   UNL     1       1.904   2.778  19.028  0.00  0.00    +0.000 A 
ATOM     24  F   UNL     1       1.835   2.201  17.820  0.00  0.00    +0.000 F 
ENDBRANCH  17  18
ENDBRANCH   9  17
TORSDOF 4
ENDMDL
MODEL 9
REMARK VINA RESULT:      -7.3      1.598      2.347
REMARK  Name = 
REMARK  6 active torsions:
REMARK  status: ('A' for Active; 'I' for Inactive)
REMARK    1  A    between atoms: C_1  and  C_2
REMARK    2  A    between atoms: N_4  and  C_5
REMARK    3  A    between atoms: C_5  and  C_6
REMARK    4  A    between atoms: C_5  and  C_7
REMARK    5  A    between atoms: N_15  and  C_16
REMARK    6  A    between atoms: C_16  and  C_17
REMARK                            x       y       z     vdW  Elec       q    Type
REMARK                         _______ _______ _______ _____ _____    ______ ____
ROOT
ATOM      1  C   UNL     1       3.815   6.881  17.566  0.00  0.00    +0.000 A 
ATOM      2  N   UNL     1       3.167   7.903  17.032  0.00  0.00    +0.000 NA
ATOM      3  C   UNL     1       2.318   8.358  18.008  0.00  0.00    +0.000 A 
ATOM      4  C   UNL     1       1.417   9.434  17.976  0.00  0.00    +0.000 A 
ATOM      5  C   UNL     1       0.675   9.730  19.126  0.00  0.00    +0.000 A 
ATOM      6  C   UNL     1       0.834   8.976  20.289  0.00  0.00    +0.000 A 
ATOM      7  C   UNL     1       1.720   7.893  20.335  0.00  0.00    +0.000 A 
ATOM      8  C   UNL     1       2.440   7.600  19.169  0.00  0.00    +0.000 A 
ATOM      9  N   UNL     1       3.338   6.607  18.834  0.00  0.00    +0.000 N 
ENDROOT
BRANCH   1  10
ATOM     10  C   UNL     1       4.936   6.133  16.899  0.00  0.00    +0.000 C 
ATOM     11  C   UNL     1       4.420   4.827  16.301  0.00  0.00    +0.000 C 
BRANCH  10  15
ATOM     12  C   UNL     1       8.056   6.138  19.040  0.00  0.00    +0.000 C 
ATOM     13  C   UNL     1       7.157   6.521  17.899  0.00  0.00    +0.000 C 
ATOM     14  O   UNL     1       7.474   7.360  17.061  0.00  0.00    +0.000 OA
ATOM     15  N   UNL     1       5.948   5.878  17.904  0.00  0.00    +0.000 N 
ATOM     16  H   UNL     1       5.719   5.186  18.611  0.00  0.00    +0.000 HD
ENDBRANCH  10  15
ENDBRANCH   1  10
BRANCH   9  17
ATOM     17  C   UNL     1       3.715   5.489  19.692  0.00  0.00    +0.000 C 
BRANCH  17  18
ATOM     18  C   UNL     1       2.929   4.241  19.380  0.00  0.00    +0.000 A 
ATOM     19  C   UNL     1       1.527   4.239  19.317  0.00  0.00    +0.000 A 
ATOM     20  C   UNL     1       0.831   3.048  19.085  0.00  0.00    +0.000 A 
ATOM     21  C   UNL     1       1.526   1.852  18.897  0.00  0.00    +0.000 A 
ATOM     22  C   UNL     1       2.917   1.850  18.917  0.00  0.00    +0.000 A 
ATOM     23  C   UNL     1       3.604   3.038  19.150  0.00  0.00    +0.000 A 
ATOM     24  F   UNL     1       4.944   3.012  19.171  0.00  0.00    +0.000 F 
ENDBRANCH  17  18
ENDBRANCH   9  17
TORSDOF 4
ENDMDL
