MODEL 1
REMARK VINA RESULT:      -9.1      0.000      0.000
REMARK  Name = 
REMARK  4 active torsions:
REMARK  status: ('A' for Active; 'I' for Inactive)
REMARK    1  A    between atoms: N_13  and  C_14
REMARK    2  A    between atoms: C_14  and  C_15
REMARK    3  A    between atoms: C_14  and  C_21
REMARK    4  A    between atoms: C_28  and  O_29
REMARK                            x       y       z     vdW  Elec       q    Type
REMARK                         _______ _______ _______ _____ _____    ______ ____
ROOT
ATOM      1  C   UNL     1       2.934   6.654  18.407  0.00  0.00    +0.000 C 
ENDROOT
BRANCH   1  14
ATOM      2  O   UNL     1       7.587   5.596  14.280  0.00  0.00    +0.000 OA
ATOM      3  C   UNL     1       6.839   4.965  15.021  0.00  0.00    +0.000 A 
ATOM      4  C   UNL     1       5.796   4.097  14.421  0.00  0.00    +0.000 A 
ATOM      5  C   UNL     1       4.950   3.425  15.208  0.00  0.00    +0.000 A 
ATOM      6  C   UNL     1       5.060   3.497  16.644  0.00  0.00    +0.000 A 
ATOM      7  C   UNL     1       5.973   4.294  17.233  0.00  0.00    +0.000 A 
ATOM      8  N   UNL     1       6.828   5.061  16.415  0.00  0.00    +0.000 N 
ATOM      9  C   UNL     1       7.582   6.179  16.988  0.00  0.00    +0.000 C 
ATOM     10  C   UNL     1       6.892   6.700  18.257  0.00  0.00    +0.000 C 
ATOM     11  C   UNL     1       7.028   5.531  19.224  0.00  0.00    +0.000 C 
ATOM     12  C   UNL     1       5.981   4.525  18.764  0.00  0.00    +0.000 C 
ATOM     13  C   UNL     1       4.653   5.132  19.275  0.00  0.00    +0.000 C 
ATOM     14  N   UNL     1       4.370   6.542  18.862  0.00  0.00    +0.000 NA
ATOM     15  C   UNL     1       5.386   7.074  17.937  0.00  0.00    +0.000 C 
ENDBRANCH   1  14
BRANCH   1  16
ATOM     16  C   UNL     1       2.094   7.880  18.824  0.00  0.00    +0.000 A 
ATOM     17  S   UNL     1       1.570   9.111  17.602  0.00  0.00    +0.000 S 
ATOM     18  C   UNL     1       0.730   9.985  18.832  0.00  0.00    +0.000 A 
ATOM     19  N   UNL     1      -0.054  11.022  18.866  0.00  0.00    +0.000 NA
ATOM     20  C   UNL     1      -0.359  11.067  20.203  0.00  0.00    +0.000 A 
ATOM     21  N   UNL     1       0.207  10.124  20.978  0.00  0.00    +0.000 NA
ATOM     22  N   UNL     1       0.899   9.418  20.047  0.00  0.00    +0.000 N 
ATOM     23  C   UNL     1       1.680   8.262  20.083  0.00  0.00    +0.000 A 
BRANCH  23  24
ATOM     24  O   UNL     1       1.952   7.634  21.275  0.00  0.00    +0.000 OA
ATOM     25  H   UNL     1       1.084   7.506  21.728  0.00  0.00    +0.000 HD
ENDBRANCH  23  24
ENDBRANCH   1  16
BRANCH   1  26
ATOM     26  C   UNL     1       2.202   5.356  18.827  0.00  0.00    +0.000 A 
ATOM     27  C   UNL     1       1.977   5.040  20.181  0.00  0.00    +0.000 A 
ATOM     28  C   UNL     1       1.298   3.872  20.533  0.00  0.00    +0.000 A 
ATOM     29  C   UNL     1       0.904   2.968  19.552  0.00  0.00    +0.000 A 
ATOM     30  C   UNL     1       1.159   3.241  18.207  0.00  0.00    +0.000 A 
ATOM     31  C   UNL     1       1.780   4.439  17.852  0.00  0.00    +0.000 A 
ENDBRANCH   1  26
TORSDOF 4
ENDMDL
MODEL 2
REMARK VINA RESULT:      -9.0      1.123      1.570
REMARK  Name = 
REMARK  4 active torsions:
REMARK  status: ('A' for Active; 'I' for Inactive)
REMARK    1  A    between atoms: N_13  and  C_14
REMARK    2  A    between atoms: C_14  and  C_15
REMARK    3  A    between atoms: C_14  and  C_21
REMARK    4  A    between atoms: C_28  and  O_29
REMARK                            x       y       z     vdW  Elec       q    Type
REMARK                         _______ _______ _______ _____ _____    ______ ____
ROOT
ATOM      1  C   UNL     1       2.983   6.696  18.510  0.00  0.00    +0.000 C 
ENDROOT
BRANCH   1  14
ATOM      2  O   UNL     1       7.490   5.597  14.235  0.00  0.00    +0.000 OA
ATOM      3  C   UNL     1       6.756   4.972  14.995  0.00  0.00    +0.000 A 
ATOM      4  C   UNL     1       5.683   4.124  14.423  0.00  0.00    +0.000 A 
ATOM      5  C   UNL     1       4.851   3.459  15.231  0.00  0.00    +0.000 A 
ATOM      6  C   UNL     1       5.006   3.520  16.663  0.00  0.00    +0.000 A 
ATOM      7  C   UNL     1       5.949   4.299  17.228  0.00  0.00    +0.000 A 
ATOM      8  N   UNL     1       6.789   5.059  16.389  0.00  0.00    +0.000 N 
ATOM      9  C   UNL     1       7.578   6.162  16.946  0.00  0.00    +0.000 C 
ATOM     10  C   UNL     1       6.935   6.684  18.239  0.00  0.00    +0.000 C 
ATOM     11  C   UNL     1       7.083   5.507  19.194  0.00  0.00    +0.000 C 
ATOM     12  C   UNL     1       6.007   4.520  18.760  0.00  0.00    +0.000 C 
ATOM     13  C   UNL     1       4.705   5.142  19.316  0.00  0.00    +0.000 C 
ATOM     14  N   UNL     1       4.431   6.559  18.921  0.00  0.00    +0.000 NA
ATOM     15  C   UNL     1       5.425   7.083  17.967  0.00  0.00    +0.000 C 
ENDBRANCH   1  14
BRANCH   1  16
ATOM     16  C   UNL     1       2.152   7.889  19.029  0.00  0.00    +0.000 A 
ATOM     17  S   UNL     1       1.482   7.897  20.712  0.00  0.00    +0.000 S 
ATOM     18  C   UNL     1       0.820   9.471  20.449  0.00  0.00    +0.000 A 
ATOM     19  N   UNL     1       0.204  10.355  21.177  0.00  0.00    +0.000 NA
ATOM     20  C   UNL     1       0.049  11.371  20.267  0.00  0.00    +0.000 A 
ATOM     21  N   UNL     1       0.525  11.143  19.029  0.00  0.00    +0.000 NA
ATOM     22  N   UNL     1       1.042   9.897  19.186  0.00  0.00    +0.000 N 
ATOM     23  C   UNL     1       1.754   9.027  18.359  0.00  0.00    +0.000 A 
BRANCH  23  24
ATOM     24  O   UNL     1       1.992   9.345  17.043  0.00  0.00    +0.000 OA
ATOM     25  H   UNL     1       1.245   9.922  16.754  0.00  0.00    +0.000 HD
ENDBRANCH  23  24
ENDBRANCH   1  16
BRANCH   1  26
ATOM     26  C   UNL     1       2.265   5.370  18.863  0.00  0.00    +0.000 A 
ATOM     27  C   UNL     1       1.833   4.475  17.864  0.00  0.00    +0.000 A 
ATOM     28  C   UNL     1       1.205   3.277  18.209  0.00  0.00    +0.000 A 
ATOM     29  C   UNL     1       0.929   2.989  19.541  0.00  0.00    +0.000 A 
ATOM     30  C   UNL     1       1.308   3.885  20.542  0.00  0.00    +0.000 A 
ATOM     31  C   UNL     1       1.993   5.052  20.202  0.00  0.00    +0.000 A 
ENDBRANCH   1  26
TORSDOF 4
ENDMDL
MODEL 3
REMARK VINA RESULT:      -8.1      6.914      9.182
REMARK  Name = 
REMARK  4 active torsions:
REMARK  status: ('A' for Active; 'I' for Inactive)
REMARK    1  A    between atoms: N_13  and  C_14
REMARK    2  A    between atoms: C_14  and  C_15
REMARK    3  A    between atoms: C_14  and  C_21
REMARK    4  A    between atoms: C_28  and  O_29
REMARK                            x       y       z     vdW  Elec       q    Type
REMARK                         _______ _______ _______ _____ _____    ______ ____
ROOT
ATOM      1  C   UNL     1      -0.134  12.276  19.963  0.00  0.00    +0.000 C 
ENDROOT
BRANCH   1  14
ATOM      2  O   UNL     1       2.408  17.316  17.147  0.00  0.00    +0.000 OA
ATOM      3  C   UNL     1       2.691  16.492  18.010  0.00  0.00    +0.000 A 
ATOM      4  C   UNL     1       3.768  15.509  17.742  0.00  0.00    +0.000 A 
ATOM      5  C   UNL     1       4.072  14.581  18.655  0.00  0.00    +0.000 A 
ATOM      6  C   UNL     1       3.393  14.545  19.927  0.00  0.00    +0.000 A 
ATOM      7  C   UNL     1       2.389  15.399  20.203  0.00  0.00    +0.000 A 
ATOM      8  N   UNL     1       2.012  16.339  19.223  0.00  0.00    +0.000 N 
ATOM      9  C   UNL     1       0.729  17.040  19.333  0.00  0.00    +0.000 C 
ATOM     10  C   UNL     1      -0.256  16.229  20.187  0.00  0.00    +0.000 C 
ATOM     11  C   UNL     1       0.385  16.256  21.568  0.00  0.00    +0.000 C 
ATOM     12  C   UNL     1       1.529  15.254  21.483  0.00  0.00    +0.000 C 
ATOM     13  C   UNL     1       0.811  13.885  21.558  0.00  0.00    +0.000 C 
ATOM     14  N   UNL     1      -0.278  13.657  20.558  0.00  0.00    +0.000 NA
ATOM     15  C   UNL     1      -0.404  14.766  19.595  0.00  0.00    +0.000 C 
ENDBRANCH   1  14
BRANCH   1  16
ATOM     16  C   UNL     1      -1.159  11.784  18.919  0.00  0.00    +0.000 A 
ATOM     17  S   UNL     1      -2.891  12.313  18.990  0.00  0.00    +0.000 S 
ATOM     18  C   UNL     1      -3.233  11.409  17.558  0.00  0.00    +0.000 A 
ATOM     19  N   UNL     1      -4.262  11.258  16.777  0.00  0.00    +0.000 NA
ATOM     20  C   UNL     1      -3.736  10.425  15.822  0.00  0.00    +0.000 A 
ATOM     21  N   UNL     1      -2.453  10.055  15.991  0.00  0.00    +0.000 NA
ATOM     22  N   UNL     1      -2.145  10.733  17.126  0.00  0.00    +0.000 N 
ATOM     23  C   UNL     1      -0.982  10.894  17.880  0.00  0.00    +0.000 A 
BRANCH  23  24
ATOM     24  O   UNL     1       0.168  10.213  17.553  0.00  0.00    +0.000 OA
ATOM     25  H   UNL     1       0.898  10.635  18.066  0.00  0.00    +0.000 HD
ENDBRANCH  23  24
ENDBRANCH   1  16
BRANCH   1  26
ATOM     26  C   UNL     1      -0.057  11.264  21.132  0.00  0.00    +0.000 A 
ATOM     27  C   UNL     1       0.911  10.240  21.161  0.00  0.00    +0.000 A 
ATOM     28  C   UNL     1       0.971   9.352  22.236  0.00  0.00    +0.000 A 
ATOM     29  C   UNL     1       0.027   9.419  23.255  0.00  0.00    +0.000 A 
ATOM     30  C   UNL     1      -0.967  10.398  23.222  0.00  0.00    +0.000 A 
ATOM     31  C   UNL     1      -0.989  11.326  22.180  0.00  0.00    +0.000 A 
ENDBRANCH   1  26
TORSDOF 4
ENDMDL
MODEL 4
REMARK VINA RESULT:      -8.0      7.302      9.401
REMARK  Name = 
REMARK  4 active torsions:
REMARK  status: ('A' for Active; 'I' for Inactive)
REMARK    1  A    between atoms: N_13  and  C_14
REMARK    2  A    between atoms: C_14  and  C_15
REMARK    3  A    between atoms: C_14  and  C_21
REMARK    4  A    between atoms: C_28  and  O_29
REMARK                            x       y       z     vdW  Elec       q    Type
REMARK                         _______ _______ _______ _____ _____    ______ ____
ROOT
ATOM      1  C   UNL     1      -0.624  12.595  20.136  0.00  0.00    +0.000 C 
ENDROOT
BRANCH   1  14
ATOM      2  O   UNL     1       2.214  17.503  17.369  0.00  0.00    +0.000 OA
ATOM      3  C   UNL     1       2.495  16.556  18.098  0.00  0.00    +0.000 A 
ATOM      4  C   UNL     1       3.348  15.466  17.567  0.00  0.00    +0.000 A 
ATOM      5  C   UNL     1       3.640  14.409  18.332  0.00  0.00    +0.000 A 
ATOM      6  C   UNL     1       3.169  14.330  19.693  0.00  0.00    +0.000 A 
ATOM      7  C   UNL     1       2.369  15.283  20.209  0.00  0.00    +0.000 A 
ATOM      8  N   UNL     1       1.997  16.369  19.390  0.00  0.00    +0.000 N 
ATOM      9  C   UNL     1       0.875  17.228  19.778  0.00  0.00    +0.000 C 
ATOM     10  C   UNL     1      -0.082  16.476  20.714  0.00  0.00    +0.000 C 
ATOM     11  C   UNL     1       0.763  16.259  21.963  0.00  0.00    +0.000 C 
ATOM     12  C   UNL     1       1.706  15.120  21.599  0.00  0.00    +0.000 C 
ATOM     13  C   UNL     1       0.801  13.868  21.678  0.00  0.00    +0.000 C 
ATOM     14  N   UNL     1      -0.453  13.908  20.862  0.00  0.00    +0.000 NA
ATOM     15  C   UNL     1      -0.549  15.123  20.033  0.00  0.00    +0.000 C 
ENDBRANCH   1  14
BRANCH   1  16
ATOM     16  C   UNL     1      -1.955  12.287  19.419  0.00  0.00    +0.000 A 
ATOM     17  S   UNL     1      -1.974  11.516  17.778  0.00  0.00    +0.000 S 
ATOM     18  C   UNL     1      -3.701  11.506  17.795  0.00  0.00    +0.000 A 
ATOM     19  N   UNL     1      -4.637  11.037  17.023  0.00  0.00    +0.000 NA
ATOM     20  C   UNL     1      -5.756  11.381  17.740  0.00  0.00    +0.000 A 
ATOM     21  N   UNL     1      -5.547  12.042  18.893  0.00  0.00    +0.000 NA
ATOM     22  N   UNL     1      -4.190  12.090  18.912  0.00  0.00    +0.000 N 
ATOM     23  C   UNL     1      -3.244  12.565  19.822  0.00  0.00    +0.000 A 
BRANCH  23  24
ATOM     24  O   UNL     1      -3.636  13.217  20.967  0.00  0.00    +0.000 OA
ATOM     25  H   UNL     1      -2.853  13.220  21.569  0.00  0.00    +0.000 HD
ENDBRANCH  23  24
ENDBRANCH   1  16
BRANCH   1  26
ATOM     26  C   UNL     1      -0.295  11.457  21.134  0.00  0.00    +0.000 A 
ATOM     27  C   UNL     1       0.716  10.512  20.870  0.00  0.00    +0.000 A 
ATOM     28  C   UNL     1       1.006   9.507  21.795  0.00  0.00    +0.000 A 
ATOM     29  C   UNL     1       0.247   9.381  22.953  0.00  0.00    +0.000 A 
ATOM     30  C   UNL     1      -0.789  10.280  23.210  0.00  0.00    +0.000 A 
ATOM     31  C   UNL     1      -1.037  11.323  22.317  0.00  0.00    +0.000 A 
ENDBRANCH   1  26
TORSDOF 4
ENDMDL
MODEL 5
REMARK VINA RESULT:      -8.0      7.167      9.398
REMARK  Name = 
REMARK  4 active torsions:
REMARK  status: ('A' for Active; 'I' for Inactive)
REMARK    1  A    between atoms: N_13  and  C_14
REMARK    2  A    between atoms: C_14  and  C_15
REMARK    3  A    between atoms: C_14  and  C_21
REMARK    4  A    between atoms: C_28  and  O_29
REMARK                            x       y       z     vdW  Elec       q    Type
REMARK                         _______ _______ _______ _____ _____    ______ ____
ROOT
ATOM      1  C   UNL     1      -0.602  12.616  20.155  0.00  0.00    +0.000 C 
ENDROOT
BRANCH   1  14
ATOM      2  O   UNL     1       2.214  17.526  17.369  0.00  0.00    +0.000 OA
ATOM      3  C   UNL     1       2.501  16.574  18.089  0.00  0.00    +0.000 A 
ATOM      4  C   UNL     1       3.341  15.483  17.540  0.00  0.00    +0.000 A 
ATOM      5  C   UNL     1       3.640  14.422  18.295  0.00  0.00    +0.000 A 
ATOM      6  C   UNL     1       3.190  14.337  19.663  0.00  0.00    +0.000 A 
ATOM      7  C   UNL     1       2.402  15.291  20.195  0.00  0.00    +0.000 A 
ATOM      8  N   UNL     1       2.022  16.383  19.388  0.00  0.00    +0.000 N 
ATOM      9  C   UNL     1       0.909  17.245  19.797  0.00  0.00    +0.000 C 
ATOM     10  C   UNL     1      -0.036  16.492  20.744  0.00  0.00    +0.000 C 
ATOM     11  C   UNL     1       0.826  16.265  21.979  0.00  0.00    +0.000 C 
ATOM     12  C   UNL     1       1.760  15.124  21.595  0.00  0.00    +0.000 C 
ATOM     13  C   UNL     1       0.851  13.875  21.681  0.00  0.00    +0.000 C 
ATOM     14  N   UNL     1      -0.415  13.925  20.885  0.00  0.00    +0.000 NA
ATOM     15  C   UNL     1      -0.519  15.144  20.064  0.00  0.00    +0.000 C 
ENDBRANCH   1  14
BRANCH   1  16
ATOM     16  C   UNL     1      -1.939  12.324  19.441  0.00  0.00    +0.000 A 
ATOM     17  S   UNL     1      -3.522  12.755  20.211  0.00  0.00    +0.000 S 
ATOM     18  C   UNL     1      -4.366  12.175  18.820  0.00  0.00    +0.000 A 
ATOM     19  N   UNL     1      -5.604  12.158  18.423  0.00  0.00    +0.000 NA
ATOM     20  C   UNL     1      -5.467  11.576  17.188  0.00  0.00    +0.000 A 
ATOM     21  N   UNL     1      -4.219  11.230  16.824  0.00  0.00    +0.000 NA
ATOM     22  N   UNL     1      -3.517  11.654  17.907  0.00  0.00    +0.000 N 
ATOM     23  C   UNL     1      -2.161  11.692  18.235  0.00  0.00    +0.000 A 
BRANCH  23  24
ATOM     24  O   UNL     1      -1.219  11.146  17.395  0.00  0.00    +0.000 OA
ATOM     25  H   UNL     1      -1.478  11.404  16.478  0.00  0.00    +0.000 HD
ENDBRANCH  23  24
ENDBRANCH   1  16
BRANCH   1  26
ATOM     26  C   UNL     1      -0.283  11.471  21.147  0.00  0.00    +0.000 A 
ATOM     27  C   UNL     1       0.715  10.514  20.876  0.00  0.00    +0.000 A 
ATOM     28  C   UNL     1       0.997   9.503  21.797  0.00  0.00    +0.000 A 
ATOM     29  C   UNL     1       0.242   9.383  22.958  0.00  0.00    +0.000 A 
ATOM     30  C   UNL     1      -0.782  10.294  23.223  0.00  0.00    +0.000 A 
ATOM     31  C   UNL     1      -1.021  11.343  22.334  0.00  0.00    +0.000 A 
ENDBRANCH   1  26
TORSDOF 4
ENDMDL
MODEL 6
REMARK VINA RESULT:      -8.0      3.768      9.495
REMARK  Name = 
REMARK  4 active torsions:
REMARK  status: ('A' for Active; 'I' for Inactive)
REMARK    1  A    between atoms: N_13  and  C_14
REMARK    2  A    between atoms: C_14  and  C_15
REMARK    3  A    between atoms: C_14  and  C_21
REMARK    4  A    between atoms: C_28  and  O_29
REMARK                            x       y       z     vdW  Elec       q    Type
REMARK                         _______ _______ _______ _____ _____    ______ ____
ROOT
ATOM      1  C   UNL     1       0.066  11.224  19.516  0.00  0.00    +0.000 C 
ENDROOT
BRANCH   1  14
ATOM      2  O   UNL     1       1.285  16.028  23.419  0.00  0.00    +0.000 OA
ATOM      3  C   UNL     1       0.406  15.656  22.647  0.00  0.00    +0.000 A 
ATOM      4  C   UNL     1      -0.906  15.238  23.198  0.00  0.00    +0.000 A 
ATOM      5  C   UNL     1      -1.868  14.799  22.380  0.00  0.00    +0.000 A 
ATOM      6  C   UNL     1      -1.664  14.764  20.952  0.00  0.00    +0.000 A 
ATOM      7  C   UNL     1      -0.480  15.108  20.410  0.00  0.00    +0.000 A 
ATOM      8  N   UNL     1       0.565  15.508  21.267  0.00  0.00    +0.000 N 
ATOM      9  C   UNL     1       1.944  15.553  20.771  0.00  0.00    +0.000 C 
ATOM     10  C   UNL     1       2.114  14.614  19.567  0.00  0.00    +0.000 C 
ATOM     11  C   UNL     1       1.238  15.260  18.503  0.00  0.00    +0.000 C 
ATOM     12  C   UNL     1      -0.187  14.899  18.904  0.00  0.00    +0.000 C 
ATOM     13  C   UNL     1      -0.313  13.417  18.479  0.00  0.00    +0.000 C 
ATOM     14  N   UNL     1       0.728  12.486  19.016  0.00  0.00    +0.000 NA
ATOM     15  C   UNL     1       1.648  13.150  19.957  0.00  0.00    +0.000 C 
ENDBRANCH   1  14
BRANCH   1  16
ATOM     16  C   UNL     1       0.843   9.891  19.487  0.00  0.00    +0.000 A 
ATOM     17  S   UNL     1       0.789   8.749  20.894  0.00  0.00    +0.000 S 
ATOM     18  C   UNL     1       1.794   7.635  20.038  0.00  0.00    +0.000 A 
ATOM     19  N   UNL     1       2.235   6.430  20.248  0.00  0.00    +0.000 NA
ATOM     20  C   UNL     1       2.929   6.207  19.084  0.00  0.00    +0.000 A 
ATOM     21  N   UNL     1       2.941   7.215  18.193  0.00  0.00    +0.000 NA
ATOM     22  N   UNL     1       2.171   8.129  18.838  0.00  0.00    +0.000 N 
ATOM     23  C   UNL     1       1.685   9.396  18.514  0.00  0.00    +0.000 A 
BRANCH  23  24
ATOM     24  O   UNL     1       2.047  10.008  17.337  0.00  0.00    +0.000 OA
ATOM     25  H   UNL     1       1.291  10.588  17.079  0.00  0.00    +0.000 HD
ENDBRANCH  23  24
ENDBRANCH   1  16
BRANCH   1  26
ATOM     26  C   UNL     1      -1.274  11.061  18.756  0.00  0.00    +0.000 A 
ATOM     27  C   UNL     1      -2.445  11.726  19.171  0.00  0.00    +0.000 A 
ATOM     28  C   UNL     1      -3.635  11.577  18.457  0.00  0.00    +0.000 A 
ATOM     29  C   UNL     1      -3.698  10.709  17.372  0.00  0.00    +0.000 A 
ATOM     30  C   UNL     1      -2.560  10.006  16.974  0.00  0.00    +0.000 A 
ATOM     31  C   UNL     1      -1.354  10.204  17.648  0.00  0.00    +0.000 A 
ENDBRANCH   1  26
TORSDOF 4
ENDMDL
MODEL 7
REMARK VINA RESULT:      -7.6      7.365     12.341
REMARK  Name = 
REMARK  4 active torsions:
REMARK  status: ('A' for Active; 'I' for Inactive)
REMARK    1  A    between atoms: N_13  and  C_14
REMARK    2  A    between atoms: C_14  and  C_15
REMARK    3  A    between atoms: C_14  and  C_21
REMARK    4  A    between atoms: C_28  and  O_29
REMARK                            x       y       z     vdW  Elec       q    Type
REMARK                         _______ _______ _______ _____ _____    ______ ____
ROOT
ATOM      1  C   UNL     1      -2.974  13.985  20.853  0.00  0.00    +0.000 C 
ENDROOT
BRANCH   1  14
ATOM      2  O   UNL     1      -7.540   9.634  21.012  0.00  0.00    +0.000 OA
ATOM      3  C   UNL     1      -7.188  10.589  20.326  0.00  0.00    +0.000 A 
ATOM      4  C   UNL     1      -6.682  10.344  18.954  0.00  0.00    +0.000 A 
ATOM      5  C   UNL     1      -6.264  11.365  18.200  0.00  0.00    +0.000 A 
ATOM      6  C   UNL     1      -6.336  12.721  18.687  0.00  0.00    +0.000 A 
ATOM      7  C   UNL     1      -6.762  12.989  19.937  0.00  0.00    +0.000 A 
ATOM      8  N   UNL     1      -7.142  11.915  20.767  0.00  0.00    +0.000 N 
ATOM      9  C   UNL     1      -7.276  12.116  22.212  0.00  0.00    +0.000 C 
ATOM     10  C   UNL     1      -6.430  13.314  22.670  0.00  0.00    +0.000 C 
ATOM     11  C   UNL     1      -7.113  14.494  21.992  0.00  0.00    +0.000 C 
ATOM     12  C   UNL     1      -6.670  14.414  20.537  0.00  0.00    +0.000 C 
ATOM     13  C   UNL     1      -5.217  14.944  20.576  0.00  0.00    +0.000 C 
ATOM     14  N   UNL     1      -4.293  14.263  21.536  0.00  0.00    +0.000 NA
ATOM     15  C   UNL     1      -4.925  13.116  22.212  0.00  0.00    +0.000 C 
ENDBRANCH   1  14
BRANCH   1  16
ATOM     16  C   UNL     1      -2.107  12.797  21.322  0.00  0.00    +0.000 A 
ATOM     17  S   UNL     1      -1.582  12.651  23.051  0.00  0.00    +0.000 S 
ATOM     18  C   UNL     1      -0.790  11.159  22.692  0.00  0.00    +0.000 A 
ATOM     19  N   UNL     1      -0.176  10.242  23.380  0.00  0.00    +0.000 NA
ATOM     20  C   UNL     1       0.127   9.340  22.390  0.00  0.00    +0.000 A 
ATOM     21  N   UNL     1      -0.258   9.669  21.143  0.00  0.00    +0.000 NA
ATOM     22  N   UNL     1      -0.874  10.856  21.377  0.00  0.00    +0.000 N 
ATOM     23  C   UNL     1      -1.573  11.764  20.580  0.00  0.00    +0.000 A 
BRANCH  23  24
ATOM     24  O   UNL     1      -1.677  11.574  19.222  0.00  0.00    +0.000 OA
ATOM     25  H   UNL     1      -1.319  12.390  18.798  0.00  0.00    +0.000 HD
ENDBRANCH  23  24
ENDBRANCH   1  16
BRANCH   1  26
ATOM     26  C   UNL     1      -2.138  15.287  20.894  0.00  0.00    +0.000 A 
ATOM     27  C   UNL     1      -2.351  16.272  21.880  0.00  0.00    +0.000 A 
ATOM     28  C   UNL     1      -1.570  17.429  21.906  0.00  0.00    +0.000 A 
ATOM     29  C   UNL     1      -0.624  17.659  20.913  0.00  0.00    +0.000 A 
ATOM     30  C   UNL     1      -0.430  16.717  19.902  0.00  0.00    +0.000 A 
ATOM     31  C   UNL     1      -1.165  15.531  19.912  0.00  0.00    +0.000 A 
ENDBRANCH   1  26
TORSDOF 4
ENDMDL
MODEL 8
REMARK VINA RESULT:      -7.6      6.892     11.880
REMARK  Name = 
REMARK  4 active torsions:
REMARK  status: ('A' for Active; 'I' for Inactive)
REMARK    1  A    between atoms: N_13  and  C_14
REMARK    2  A    between atoms: C_14  and  C_15
REMARK    3  A    between atoms: C_14  and  C_21
REMARK    4  A    between atoms: C_28  and  O_29
REMARK                            x       y       z     vdW  Elec       q    Type
REMARK                         _______ _______ _______ _____ _____    ______ ____
ROOT
ATOM      1  C   UNL     1      -2.277  13.516  20.578  0.00  0.00    +0.000 C 
ENDROOT
BRANCH   1  14
ATOM      2  O   UNL     1      -7.463   9.935  20.836  0.00  0.00    +0.000 OA
ATOM      3  C   UNL     1      -7.024  10.892  20.206  0.00  0.00    +0.000 A 
ATOM      4  C   UNL     1      -6.695  10.719  18.771  0.00  0.00    +0.000 A 
ATOM      5  C   UNL     1      -6.185  11.738  18.072  0.00  0.00    +0.000 A 
ATOM      6  C   UNL     1      -5.987  13.029  18.685  0.00  0.00    +0.000 A 
ATOM      7  C   UNL     1      -6.246  13.225  19.993  0.00  0.00    +0.000 A 
ATOM      8  N   UNL     1      -6.719  12.139  20.758  0.00  0.00    +0.000 N 
ATOM      9  C   UNL     1      -6.683  12.203  22.222  0.00  0.00    +0.000 C 
ATOM     10  C   UNL     1      -5.612  13.198  22.691  0.00  0.00    +0.000 C 
ATOM     11  C   UNL     1      -6.151  14.536  22.202  0.00  0.00    +0.000 C 
ATOM     12  C   UNL     1      -5.864  14.545  20.706  0.00  0.00    +0.000 C 
ATOM     13  C   UNL     1      -4.346  14.836  20.635  0.00  0.00    +0.000 C 
ATOM     14  N   UNL     1      -3.462  13.921  21.422  0.00  0.00    +0.000 NA
ATOM     15  C   UNL     1      -4.209  12.820  22.057  0.00  0.00    +0.000 C 
ENDBRANCH   1  14
BRANCH   1  16
ATOM     16  C   UNL     1      -1.452  12.271  20.966  0.00  0.00    +0.000 A 
ATOM     17  S   UNL     1      -1.067  10.989  19.743  0.00  0.00    +0.000 S 
ATOM     18  C   UNL     1      -0.168  10.116  20.931  0.00  0.00    +0.000 A 
ATOM     19  N   UNL     1       0.579   9.051  20.936  0.00  0.00    +0.000 NA
ATOM     20  C   UNL     1       0.983   9.029  22.248  0.00  0.00    +0.000 A 
ATOM     21  N   UNL     1       0.512  10.013  23.035  0.00  0.00    +0.000 NA
ATOM     22  N   UNL     1      -0.223  10.720  22.139  0.00  0.00    +0.000 N 
ATOM     23  C   UNL     1      -0.957  11.906  22.200  0.00  0.00    +0.000 A 
BRANCH  23  24
ATOM     24  O   UNL     1      -1.114  12.575  23.391  0.00  0.00    +0.000 OA
ATOM     25  H   UNL     1      -2.086  12.635  23.552  0.00  0.00    +0.000 HD
ENDBRANCH  23  24
ENDBRANCH   1  16
BRANCH   1  26
ATOM     26  C   UNL     1      -1.340  14.744  20.461  0.00  0.00    +0.000 A 
ATOM     27  C   UNL     1      -0.615  15.011  19.283  0.00  0.00    +0.000 A 
ATOM     28  C   UNL     1       0.208  16.135  19.197  0.00  0.00    +0.000 A 
ATOM     29  C   UNL     1       0.383  16.962  20.301  0.00  0.00    +0.000 A 
ATOM     30  C   UNL     1      -0.291  16.688  21.492  0.00  0.00    +0.000 A 
ATOM     31  C   UNL     1      -1.163  15.601  21.558  0.00  0.00    +0.000 A 
ENDBRANCH   1  26
TORSDOF 4
ENDMDL
MODEL 9
REMARK VINA RESULT:      -7.6      7.697     12.742
REMARK  Name = 
REMARK  4 active torsions:
REMARK  status: ('A' for Active; 'I' for Inactive)
REMARK    1  A    between atoms: N_13  and  C_14
REMARK    2  A    between atoms: C_14  and  C_15
REMARK    3  A    between atoms: C_14  and  C_21
REMARK    4  A    between atoms: C_28  and  O_29
REMARK                            x       y       z     vdW  Elec       q    Type
REMARK                         _______ _______ _______ _____ _____    ______ ____
ROOT
ATOM      1  C   UNL     1      -3.654  14.290  21.070  0.00  0.00    +0.000 C 
ENDROOT
BRANCH   1  14
ATOM      2  O   UNL     1      -7.519   9.306  20.910  0.00  0.00    +0.000 OA
ATOM      3  C   UNL     1      -7.303  10.337  20.279  0.00  0.00    +0.000 A 
ATOM      4  C   UNL     1      -6.741  10.238  18.909  0.00  0.00    +0.000 A 
ATOM      5  C   UNL     1      -6.468  11.348  18.216  0.00  0.00    +0.000 A 
ATOM      6  C   UNL     1      -6.750  12.651  18.764  0.00  0.00    +0.000 A 
ATOM      7  C   UNL     1      -7.234  12.790  20.014  0.00  0.00    +0.000 A 
ATOM      8  N   UNL     1      -7.463  11.630  20.782  0.00  0.00    +0.000 N 
ATOM      9  C   UNL     1      -7.650  11.737  22.232  0.00  0.00    +0.000 C 
ATOM     10  C   UNL     1      -7.001  13.022  22.766  0.00  0.00    +0.000 C 
ATOM     11  C   UNL     1      -7.842  14.120  22.129  0.00  0.00    +0.000 C 
ATOM     12  C   UNL     1      -7.366  14.180  20.683  0.00  0.00    +0.000 C 
ATOM     13  C   UNL     1      -6.010  14.917  20.783  0.00  0.00    +0.000 C 
ATOM     14  N   UNL     1      -5.011  14.334  21.732  0.00  0.00    +0.000 NA
ATOM     15  C   UNL     1      -5.476  13.073  22.338  0.00  0.00    +0.000 C 
ENDBRANCH   1  14
BRANCH   1  16
ATOM     16  C   UNL     1      -2.660  13.168  21.439  0.00  0.00    +0.000 A 
ATOM     17  S   UNL     1      -2.073  12.965  23.141  0.00  0.00    +0.000 S 
ATOM     18  C   UNL     1      -1.148  11.586  22.666  0.00  0.00    +0.000 A 
ATOM     19  N   UNL     1      -0.427  10.693  23.277  0.00  0.00    +0.000 NA
ATOM     20  C   UNL     1      -0.066   9.892  22.223  0.00  0.00    +0.000 A 
ATOM     21  N   UNL     1      -0.517  10.259  21.010  0.00  0.00    +0.000 NA
ATOM     22  N   UNL     1      -1.241  11.361  21.336  0.00  0.00    +0.000 N 
ATOM     23  C   UNL     1      -2.049  12.243  20.618  0.00  0.00    +0.000 A 
BRANCH  23  24
ATOM     24  O   UNL     1      -2.174  12.131  19.253  0.00  0.00    +0.000 OA
ATOM     25  H   UNL     1      -1.302  11.810  18.918  0.00  0.00    +0.000 HD
ENDBRANCH  23  24
ENDBRANCH   1  16
BRANCH   1  26
ATOM     26  C   UNL     1      -2.982  15.669  21.279  0.00  0.00    +0.000 A 
ATOM     27  C   UNL     1      -2.031  16.173  20.369  0.00  0.00    +0.000 A 
ATOM     28  C   UNL     1      -1.454  17.428  20.571  0.00  0.00    +0.000 A 
ATOM     29  C   UNL     1      -1.753  18.162  21.714  0.00  0.00    +0.000 A 
ATOM     30  C   UNL     1      -2.657  17.659  22.650  0.00  0.00    +0.000 A 
ATOM     31  C   UNL     1      -3.283  16.434  22.417  0.00  0.00    +0.000 A 
ENDBRANCH   1  26
TORSDOF 4
ENDMDL
