MODEL 1
REMARK VINA RESULT:      -8.7      0.000      0.000
REMARK  Name = 
REMARK  8 active torsions:
REMARK  status: ('A' for Active; 'I' for Inactive)
REMARK    1  A    between atoms: C_1  and  C_2
REMARK    2  A    between atoms: C_5  and  S_6
REMARK    3  A    between atoms: S_6  and  O_9
REMARK    4  A    between atoms: O_9  and  C_10
REMARK    5  A    between atoms: C_13  and  C_14
REMARK    6  A    between atoms: N_15  and  N_16
REMARK    7  A    between atoms: C_17  and  C_19
REMARK    8  A    between atoms: N_24  and  C_25
REMARK                            x       y       z     vdW  Elec       q    Type
REMARK                         _______ _______ _______ _____ _____    ______ ____
ROOT
ATOM      1  C   UNL     1       5.480   5.130  17.118  0.00  0.00    +0.000 A 
ATOM      2  C   UNL     1       6.386   4.862  18.144  0.00  0.00    +0.000 A 
ATOM      3  C   UNL     1       7.309   5.828  18.542  0.00  0.00    +0.000 A 
ATOM      4  C   UNL     1       7.350   7.073  17.913  0.00  0.00    +0.000 A 
ATOM      5  C   UNL     1       6.468   7.346  16.863  0.00  0.00    +0.000 A 
ATOM      6  C   UNL     1       5.538   6.368  16.465  0.00  0.00    +0.000 A 
ENDROOT
BRANCH   4   7
ATOM      7  C   UNL     1       8.335   8.080  18.376  0.00  0.00    +0.000 C 
ATOM      8  N   UNL     1       8.212   9.316  18.010  0.00  0.00    +0.000 NA
BRANCH   8   9
ATOM      9  N   UNL     1       9.134  10.209  18.461  0.00  0.00    +0.000 N 
ATOM     10  C   UNL     1       8.982  11.563  18.167  0.00  0.00    +0.000 C 
ATOM     11  O   UNL     1       8.055  11.994  17.482  0.00  0.00    +0.000 OA
ATOM     12  H   UNL     1       9.911   9.885  19.025  0.00  0.00    +0.000 HD
BRANCH  10  13
ATOM     13  C   UNL     1       9.989  12.442  18.731  0.00  0.00    +0.000 A 
ATOM     14  C   UNL     1      11.036  13.141  18.157  0.00  0.00    +0.000 A 
ATOM     15 CL   UNL     1      11.532  13.223  16.535  0.00  0.00    +0.000 Cl
ATOM     16  C   UNL     1      11.668  13.823  19.209  0.00  0.00    +0.000 A 
ATOM     17  N   UNL     1      11.085  13.592  20.383  0.00  0.00    +0.000 NA
ATOM     18  N   UNL     1      10.072  12.751  20.076  0.00  0.00    +0.000 N 
ATOM     19  C   UNL     1       9.240  12.264  21.156  0.00  0.00    +0.000 C 
ENDBRANCH  10  13
ENDBRANCH   8   9
ENDBRANCH   4   7
BRANCH   1  20
ATOM     20  O   UNL     1       4.539   4.227  16.675  0.00  0.00    +0.000 OA
BRANCH  20  21
ATOM     21  S   UNL     1       3.438   3.588  17.711  0.00  0.00    +0.000 S 
ATOM     22  O   UNL     1       4.144   2.753  18.663  0.00  0.00    +0.000 OA
ATOM     23  O   UNL     1       2.303   3.083  16.960  0.00  0.00    +0.000 OA
BRANCH  21  28
ATOM     24  C   UNL     1       1.463   8.385  20.864  0.00  0.00    +0.000 C 
ATOM     25  C   UNL     1       1.914   7.186  20.081  0.00  0.00    +0.000 A 
ATOM     26  C   UNL     1       1.883   5.903  20.648  0.00  0.00    +0.000 A 
ATOM     27  C   UNL     1       2.320   4.793  19.920  0.00  0.00    +0.000 A 
ATOM     28  C   UNL     1       2.793   4.973  18.621  0.00  0.00    +0.000 A 
ATOM     29  C   UNL     1       2.828   6.245  18.039  0.00  0.00    +0.000 A 
ATOM     30  C   UNL     1       2.390   7.348  18.773  0.00  0.00    +0.000 A 
ENDBRANCH  21  28
ENDBRANCH  20  21
ENDBRANCH   1  20
TORSDOF 6
ENDMDL
MODEL 2
REMARK VINA RESULT:      -8.5      0.962      1.320
REMARK  Name = 
REMARK  8 active torsions:
REMARK  status: ('A' for Active; 'I' for Inactive)
REMARK    1  A    between atoms: C_1  and  C_2
REMARK    2  A    between atoms: C_5  and  S_6
REMARK    3  A    between atoms: S_6  and  O_9
REMARK    4  A    between atoms: O_9  and  C_10
REMARK    5  A    between atoms: C_13  and  C_14
REMARK    6  A    between atoms: N_15  and  N_16
REMARK    7  A    between atoms: C_17  and  C_19
REMARK    8  A    between atoms: N_24  and  C_25
REMARK                            x       y       z     vdW  Elec       q    Type
REMARK                         _______ _______ _______ _____ _____    ______ ____
ROOT
ATOM      1  C   UNL     1       6.251   5.237  17.491  0.00  0.00    +0.000 A 
ATOM      2  C   UNL     1       6.146   6.429  16.773  0.00  0.00    +0.000 A 
ATOM      3  C   UNL     1       6.935   7.528  17.108  0.00  0.00    +0.000 A 
ATOM      4  C   UNL     1       7.834   7.459  18.173  0.00  0.00    +0.000 A 
ATOM      5  C   UNL     1       7.930   6.281  18.921  0.00  0.00    +0.000 A 
ATOM      6  C   UNL     1       7.132   5.175  18.579  0.00  0.00    +0.000 A 
ENDROOT
BRANCH   4   7
ATOM      7  C   UNL     1       8.668   8.644  18.488  0.00  0.00    +0.000 C 
ATOM      8  N   UNL     1       8.323   9.810  18.041  0.00  0.00    +0.000 NA
BRANCH   8   9
ATOM      9  N   UNL     1       9.113  10.872  18.357  0.00  0.00    +0.000 N 
ATOM     10  C   UNL     1       8.790  12.137  17.870  0.00  0.00    +0.000 C 
ATOM     11  O   UNL     1       7.825  12.340  17.134  0.00  0.00    +0.000 OA
ATOM     12  H   UNL     1       9.916  10.737  18.959  0.00  0.00    +0.000 HD
BRANCH  10  13
ATOM     13  C   UNL     1       9.663  13.213  18.299  0.00  0.00    +0.000 A 
ATOM     14  C   UNL     1      10.827  13.733  17.760  0.00  0.00    +0.000 A 
ATOM     15 CL   UNL     1      11.675  13.283  16.360  0.00  0.00    +0.000 Cl
ATOM     16  C   UNL     1      11.222  14.770  18.621  0.00  0.00    +0.000 A 
ATOM     17  N   UNL     1      10.386  14.921  19.646  0.00  0.00    +0.000 NA
ATOM     18  N   UNL     1       9.450  13.969  19.438  0.00  0.00    +0.000 N 
ATOM     19  C   UNL     1       8.387  13.833  20.411  0.00  0.00    +0.000 C 
ENDBRANCH  10  13
ENDBRANCH   8   9
ENDBRANCH   4   7
BRANCH   1  20
ATOM     20  O   UNL     1       5.508   4.111  17.215  0.00  0.00    +0.000 OA
BRANCH  20  21
ATOM     21  S   UNL     1       4.353   3.594  18.258  0.00  0.00    +0.000 S 
ATOM     22  O   UNL     1       5.007   3.125  19.463  0.00  0.00    +0.000 OA
ATOM     23  O   UNL     1       3.396   2.765  17.547  0.00  0.00    +0.000 OA
BRANCH  21  28
ATOM     24  C   UNL     1       1.435   8.699  19.762  0.00  0.00    +0.000 C 
ATOM     25  C   UNL     1       2.123   7.416  19.398  0.00  0.00    +0.000 A 
ATOM     26  C   UNL     1       2.453   6.472  20.381  0.00  0.00    +0.000 A 
ATOM     27  C   UNL     1       3.109   5.287  20.038  0.00  0.00    +0.000 A 
ATOM     28  C   UNL     1       3.437   5.052  18.703  0.00  0.00    +0.000 A 
ATOM     29  C   UNL     1       3.112   5.981  17.709  0.00  0.00    +0.000 A 
ATOM     30  C   UNL     1       2.458   7.162  18.061  0.00  0.00    +0.000 A 
ENDBRANCH  21  28
ENDBRANCH  20  21
ENDBRANCH   1  20
TORSDOF 6
ENDMDL
MODEL 3
REMARK VINA RESULT:      -8.5      1.329      1.943
REMARK  Name = 
REMARK  8 active torsions:
REMARK  status: ('A' for Active; 'I' for Inactive)
REMARK    1  A    between atoms: C_1  and  C_2
REMARK    2  A    between atoms: C_5  and  S_6
REMARK    3  A    between atoms: S_6  and  O_9
REMARK    4  A    between atoms: O_9  and  C_10
REMARK    5  A    between atoms: C_13  and  C_14
REMARK    6  A    between atoms: N_15  and  N_16
REMARK    7  A    between atoms: C_17  and  C_19
REMARK    8  A    between atoms: N_24  and  C_25
REMARK                            x       y       z     vdW  Elec       q    Type
REMARK                         _______ _______ _______ _____ _____    ______ ____
ROOT
ATOM      1  C   UNL     1       6.807   5.310  17.822  0.00  0.00    +0.000 A 
ATOM      2  C   UNL     1       6.776   6.355  16.899  0.00  0.00    +0.000 A 
ATOM      3  C   UNL     1       7.439   7.553  17.164  0.00  0.00    +0.000 A 
ATOM      4  C   UNL     1       8.134   7.729  18.361  0.00  0.00    +0.000 A 
ATOM      5  C   UNL     1       8.149   6.702  19.309  0.00  0.00    +0.000 A 
ATOM      6  C   UNL     1       7.479   5.496  19.037  0.00  0.00    +0.000 A 
ENDROOT
BRANCH   4   7
ATOM      7  C   UNL     1       8.842   9.011  18.599  0.00  0.00    +0.000 C 
ATOM      8  N   UNL     1       8.496  10.069  17.937  0.00  0.00    +0.000 NA
BRANCH   8   9
ATOM      9  N   UNL     1       9.166  11.226  18.189  0.00  0.00    +0.000 N 
ATOM     10  C   UNL     1       8.670  12.430  17.693  0.00  0.00    +0.000 C 
ATOM     11  O   UNL     1       7.654  12.496  17.002  0.00  0.00    +0.000 OA
ATOM     12  H   UNL     1      10.008  11.204  18.752  0.00  0.00    +0.000 HD
BRANCH  10  13
ATOM     13  C   UNL     1       9.427  13.613  18.053  0.00  0.00    +0.000 A 
ATOM     14  C   UNL     1      10.667  14.080  17.650  0.00  0.00    +0.000 A 
ATOM     15 CL   UNL     1      11.779  13.411  16.555  0.00  0.00    +0.000 Cl
ATOM     16  C   UNL     1      10.871  15.283  18.344  0.00  0.00    +0.000 A 
ATOM     17  N   UNL     1       9.849  15.587  19.140  0.00  0.00    +0.000 NA
ATOM     18  N   UNL     1       8.985  14.564  18.955  0.00  0.00    +0.000 N 
ATOM     19  C   UNL     1       7.754  14.564  19.717  0.00  0.00    +0.000 C 
ENDBRANCH  10  13
ENDBRANCH   8   9
ENDBRANCH   4   7
BRANCH   1  20
ATOM     20  O   UNL     1       6.179   4.100  17.627  0.00  0.00    +0.000 OA
BRANCH  20  21
ATOM     21  S   UNL     1       4.611   4.037  17.152  0.00  0.00    +0.000 S 
ATOM     22  O   UNL     1       4.099   2.714  17.455  0.00  0.00    +0.000 OA
ATOM     23  O   UNL     1       4.484   4.609  15.824  0.00  0.00    +0.000 OA
BRANCH  21  28
ATOM     24  C   UNL     1       1.479   7.807  20.733  0.00  0.00    +0.000 C 
ATOM     25  C   UNL     1       2.285   6.897  19.852  0.00  0.00    +0.000 A 
ATOM     26  C   UNL     1       2.673   7.300  18.565  0.00  0.00    +0.000 A 
ATOM     27  C   UNL     1       3.409   6.443  17.743  0.00  0.00    +0.000 A 
ATOM     28  C   UNL     1       3.753   5.176  18.214  0.00  0.00    +0.000 A 
ATOM     29  C   UNL     1       3.379   4.760  19.496  0.00  0.00    +0.000 A 
ATOM     30  C   UNL     1       2.643   5.622  20.310  0.00  0.00    +0.000 A 
ENDBRANCH  21  28
ENDBRANCH  20  21
ENDBRANCH   1  20
TORSDOF 6
ENDMDL
MODEL 4
REMARK VINA RESULT:      -8.4      1.250      1.791
REMARK  Name = 
REMARK  8 active torsions:
REMARK  status: ('A' for Active; 'I' for Inactive)
REMARK    1  A    between atoms: C_1  and  C_2
REMARK    2  A    between atoms: C_5  and  S_6
REMARK    3  A    between atoms: S_6  and  O_9
REMARK    4  A    between atoms: O_9  and  C_10
REMARK    5  A    between atoms: C_13  and  C_14
REMARK    6  A    between atoms: N_15  and  N_16
REMARK    7  A    between atoms: C_17  and  C_19
REMARK    8  A    between atoms: N_24  and  C_25
REMARK                            x       y       z     vdW  Elec       q    Type
REMARK                         _______ _______ _______ _____ _____    ______ ____
ROOT
ATOM      1  C   UNL     1       5.530   4.979  17.077  0.00  0.00    +0.000 A 
ATOM      2  C   UNL     1       5.693   6.210  16.442  0.00  0.00    +0.000 A 
ATOM      3  C   UNL     1       6.597   7.148  16.941  0.00  0.00    +0.000 A 
ATOM      4  C   UNL     1       7.343   6.875  18.088  0.00  0.00    +0.000 A 
ATOM      5  C   UNL     1       7.169   5.657  18.752  0.00  0.00    +0.000 A 
ATOM      6  C   UNL     1       6.257   4.714  18.245  0.00  0.00    +0.000 A 
ENDROOT
BRANCH   4   7
ATOM      7  C   UNL     1       8.306   7.891  18.577  0.00  0.00    +0.000 C 
ATOM      8  N   UNL     1       8.261   9.098  18.108  0.00  0.00    +0.000 NA
BRANCH   8   9
ATOM      9  N   UNL     1       9.159  10.001  18.587  0.00  0.00    +0.000 N 
ATOM     10  C   UNL     1       9.025  11.347  18.253  0.00  0.00    +0.000 C 
ATOM     11  O   UNL     1       8.137  11.762  17.510  0.00  0.00    +0.000 OA
ATOM     12  H   UNL     1       9.904   9.691  19.199  0.00  0.00    +0.000 HD
BRANCH  10  13
ATOM     13  C   UNL     1      10.001  12.240  18.849  0.00  0.00    +0.000 A 
ATOM     14  C   UNL     1      10.241  12.608  20.162  0.00  0.00    +0.000 A 
ATOM     15 CL   UNL     1       9.453  12.131  21.588  0.00  0.00    +0.000 Cl
ATOM     16  C   UNL     1      11.320  13.505  20.121  0.00  0.00    +0.000 A 
ATOM     17  N   UNL     1      11.757  13.712  18.881  0.00  0.00    +0.000 NA
ATOM     18  N   UNL     1      10.946  12.941  18.123  0.00  0.00    +0.000 N 
ATOM     19  C   UNL     1      11.132  12.961  16.688  0.00  0.00    +0.000 C 
ENDBRANCH  10  13
ENDBRANCH   8   9
ENDBRANCH   4   7
BRANCH   1  20
ATOM     20  O   UNL     1       4.661   4.004  16.640  0.00  0.00    +0.000 OA
BRANCH  20  21
ATOM     21  S   UNL     1       3.477   3.436  17.622  0.00  0.00    +0.000 S 
ATOM     22  O   UNL     1       4.083   2.557  18.602  0.00  0.00    +0.000 OA
ATOM     23  O   UNL     1       2.347   3.005  16.818  0.00  0.00    +0.000 OA
BRANCH  21  28
ATOM     24  C   UNL     1       1.667   8.382  20.640  0.00  0.00    +0.000 C 
ATOM     25  C   UNL     1       2.078   7.143  19.899  0.00  0.00    +0.000 A 
ATOM     26  C   UNL     1       2.260   5.927  20.574  0.00  0.00    +0.000 A 
ATOM     27  C   UNL     1       2.660   4.782  19.882  0.00  0.00    +0.000 A 
ATOM     28  C   UNL     1       2.880   4.859  18.506  0.00  0.00    +0.000 A 
ATOM     29  C   UNL     1       2.699   6.062  17.817  0.00  0.00    +0.000 A 
ATOM     30  C   UNL     1       2.301   7.202  18.516  0.00  0.00    +0.000 A 
ENDBRANCH  21  28
ENDBRANCH  20  21
ENDBRANCH   1  20
TORSDOF 6
ENDMDL
MODEL 5
REMARK VINA RESULT:      -8.4      5.739      7.868
REMARK  Name = 
REMARK  8 active torsions:
REMARK  status: ('A' for Active; 'I' for Inactive)
REMARK    1  A    between atoms: C_1  and  C_2
REMARK    2  A    between atoms: C_5  and  S_6
REMARK    3  A    between atoms: S_6  and  O_9
REMARK    4  A    between atoms: O_9  and  C_10
REMARK    5  A    between atoms: C_13  and  C_14
REMARK    6  A    between atoms: N_15  and  N_16
REMARK    7  A    between atoms: C_17  and  C_19
REMARK    8  A    between atoms: N_24  and  C_25
REMARK                            x       y       z     vdW  Elec       q    Type
REMARK                         _______ _______ _______ _____ _____    ______ ____
ROOT
ATOM      1  C   UNL     1       2.087   4.779  19.070  0.00  0.00    +0.000 A 
ATOM      2  C   UNL     1       1.706   4.909  20.405  0.00  0.00    +0.000 A 
ATOM      3  C   UNL     1       1.535   6.172  20.972  0.00  0.00    +0.000 A 
ATOM      4  C   UNL     1       1.753   7.325  20.215  0.00  0.00    +0.000 A 
ATOM      5  C   UNL     1       2.164   7.210  18.884  0.00  0.00    +0.000 A 
ATOM      6  C   UNL     1       2.335   5.934  18.318  0.00  0.00    +0.000 A 
ENDROOT
BRANCH   4   7
ATOM      7  C   UNL     1       1.543   8.649  20.849  0.00  0.00    +0.000 C 
ATOM      8  N   UNL     1       0.415   8.915  21.427  0.00  0.00    +0.000 NA
BRANCH   8   9
ATOM      9  N   UNL     1       0.266  10.140  22.000  0.00  0.00    +0.000 N 
ATOM     10  C   UNL     1      -0.465  11.125  21.337  0.00  0.00    +0.000 C 
ATOM     11  O   UNL     1      -0.965  10.947  20.227  0.00  0.00    +0.000 OA
ATOM     12  H   UNL     1       0.668  10.319  22.912  0.00  0.00    +0.000 HD
BRANCH  10  13
ATOM     13  C   UNL     1      -0.609  12.381  22.048  0.00  0.00    +0.000 A 
ATOM     14  C   UNL     1      -1.535  12.818  22.979  0.00  0.00    +0.000 A 
ATOM     15 CL   UNL     1      -2.875  12.015  23.643  0.00  0.00    +0.000 Cl
ATOM     16  C   UNL     1      -1.159  14.130  23.311  0.00  0.00    +0.000 A 
ATOM     17  N   UNL     1      -0.073  14.526  22.652  0.00  0.00    +0.000 NA
ATOM     18  N   UNL     1       0.246  13.457  21.888  0.00  0.00    +0.000 N 
ATOM     19  C   UNL     1       1.384  13.566  21.002  0.00  0.00    +0.000 C 
ENDBRANCH  10  13
ENDBRANCH   8   9
ENDBRANCH   4   7
BRANCH   1  20
ATOM     20  O   UNL     1       2.271   3.566  18.443  0.00  0.00    +0.000 OA
BRANCH  20  21
ATOM     21  S   UNL     1       3.719   2.798  18.514  0.00  0.00    +0.000 S 
ATOM     22  O   UNL     1       3.785   1.855  17.415  0.00  0.00    +0.000 OA
ATOM     23  O   UNL     1       3.981   2.385  19.880  0.00  0.00    +0.000 OA
BRANCH  21  28
ATOM     24  C   UNL     1       7.697   7.259  17.454  0.00  0.00    +0.000 C 
ATOM     25  C   UNL     1       6.739   6.130  17.701  0.00  0.00    +0.000 A 
ATOM     26  C   UNL     1       6.089   5.491  16.634  0.00  0.00    +0.000 A 
ATOM     27  C   UNL     1       5.185   4.452  16.871  0.00  0.00    +0.000 A 
ATOM     28  C   UNL     1       4.932   4.056  18.185  0.00  0.00    +0.000 A 
ATOM     29  C   UNL     1       5.574   4.679  19.260  0.00  0.00    +0.000 A 
ATOM     30  C   UNL     1       6.475   5.716  19.014  0.00  0.00    +0.000 A 
ENDBRANCH  21  28
ENDBRANCH  20  21
ENDBRANCH   1  20
TORSDOF 6
ENDMDL
MODEL 6
REMARK VINA RESULT:      -8.4      1.387      2.100
REMARK  Name = 
REMARK  8 active torsions:
REMARK  status: ('A' for Active; 'I' for Inactive)
REMARK    1  A    between atoms: C_1  and  C_2
REMARK    2  A    between atoms: C_5  and  S_6
REMARK    3  A    between atoms: S_6  and  O_9
REMARK    4  A    between atoms: O_9  and  C_10
REMARK    5  A    between atoms: C_13  and  C_14
REMARK    6  A    between atoms: N_15  and  N_16
REMARK    7  A    between atoms: C_17  and  C_19
REMARK    8  A    between atoms: N_24  and  C_25
REMARK                            x       y       z     vdW  Elec       q    Type
REMARK                         _______ _______ _______ _____ _____    ______ ____
ROOT
ATOM      1  C   UNL     1       6.165   5.341  17.435  0.00  0.00    +0.000 A 
ATOM      2  C   UNL     1       6.160   6.578  16.792  0.00  0.00    +0.000 A 
ATOM      3  C   UNL     1       7.015   7.597  17.212  0.00  0.00    +0.000 A 
ATOM      4  C   UNL     1       7.879   7.399  18.290  0.00  0.00    +0.000 A 
ATOM      5  C   UNL     1       7.874   6.174  18.964  0.00  0.00    +0.000 A 
ATOM      6  C   UNL     1       7.010   5.150  18.536  0.00  0.00    +0.000 A 
ENDROOT
BRANCH   4   7
ATOM      7  C   UNL     1       8.785   8.500  18.696  0.00  0.00    +0.000 C 
ATOM      8  N   UNL     1       8.587   9.697  18.241  0.00  0.00    +0.000 NA
BRANCH   8   9
ATOM      9  N   UNL     1       9.438  10.680  18.642  0.00  0.00    +0.000 N 
ATOM     10  C   UNL     1       9.216  11.992  18.228  0.00  0.00    +0.000 C 
ATOM     11  O   UNL     1       8.290  12.306  17.481  0.00  0.00    +0.000 OA
ATOM     12  H   UNL     1      10.212  10.453  19.254  0.00  0.00    +0.000 HD
BRANCH  10  13
ATOM     13  C   UNL     1      10.148  12.976  18.745  0.00  0.00    +0.000 A 
ATOM     14  C   UNL     1      10.304  13.534  20.002  0.00  0.00    +0.000 A 
ATOM     15 CL   UNL     1       9.433  13.258  21.433  0.00  0.00    +0.000 Cl
ATOM     16  C   UNL     1      11.377  14.433  19.895  0.00  0.00    +0.000 A 
ATOM     17  N   UNL     1      11.889  14.465  18.667  0.00  0.00    +0.000 NA
ATOM     18  N   UNL     1      11.130  13.580  17.982  0.00  0.00    +0.000 N 
ATOM     19  C   UNL     1      11.404  13.394  16.573  0.00  0.00    +0.000 C 
ENDBRANCH  10  13
ENDBRANCH   8   9
ENDBRANCH   4   7
BRANCH   1  20
ATOM     20  O   UNL     1       5.353   4.289  17.073  0.00  0.00    +0.000 OA
BRANCH  20  21
ATOM     21  S   UNL     1       4.219   3.711  18.108  0.00  0.00    +0.000 S 
ATOM     22  O   UNL     1       4.901   3.063  19.212  0.00  0.00    +0.000 OA
ATOM     23  O   UNL     1       3.182   3.028  17.356  0.00  0.00    +0.000 OA
BRANCH  21  28
ATOM     24  C   UNL     1       1.264   8.511  20.360  0.00  0.00    +0.000 C 
ATOM     25  C   UNL     1       2.028   7.346  19.803  0.00  0.00    +0.000 A 
ATOM     26  C   UNL     1       2.472   7.346  18.472  0.00  0.00    +0.000 A 
ATOM     27  C   UNL     1       3.167   6.251  17.953  0.00  0.00    +0.000 A 
ATOM     28  C   UNL     1       3.415   5.151  18.774  0.00  0.00    +0.000 A 
ATOM     29  C   UNL     1       2.984   5.135  20.104  0.00  0.00    +0.000 A 
ATOM     30  C   UNL     1       2.289   6.233  20.614  0.00  0.00    +0.000 A 
ENDBRANCH  21  28
ENDBRANCH  20  21
ENDBRANCH   1  20
TORSDOF 6
ENDMDL
MODEL 7
REMARK VINA RESULT:      -8.3      5.391      7.189
REMARK  Name = 
REMARK  8 active torsions:
REMARK  status: ('A' for Active; 'I' for Inactive)
REMARK    1  A    between atoms: C_1  and  C_2
REMARK    2  A    between atoms: C_5  and  S_6
REMARK    3  A    between atoms: S_6  and  O_9
REMARK    4  A    between atoms: O_9  and  C_10
REMARK    5  A    between atoms: C_13  and  C_14
REMARK    6  A    between atoms: N_15  and  N_16
REMARK    7  A    between atoms: C_17  and  C_19
REMARK    8  A    between atoms: N_24  and  C_25
REMARK                            x       y       z     vdW  Elec       q    Type
REMARK                         _______ _______ _______ _____ _____    ______ ____
ROOT
ATOM      1  C   UNL     1       2.915   6.037  18.907  0.00  0.00    +0.000 A 
ATOM      2  C   UNL     1       2.970   6.768  17.720  0.00  0.00    +0.000 A 
ATOM      3  C   UNL     1       2.453   8.061  17.662  0.00  0.00    +0.000 A 
ATOM      4  C   UNL     1       1.862   8.641  18.786  0.00  0.00    +0.000 A 
ATOM      5  C   UNL     1       1.773   7.910  19.974  0.00  0.00    +0.000 A 
ATOM      6  C   UNL     1       2.296   6.605  20.027  0.00  0.00    +0.000 A 
ENDROOT
BRANCH   4   7
ATOM      7  C   UNL     1       1.339  10.025  18.688  0.00  0.00    +0.000 C 
ATOM      8  N   UNL     1       2.113  10.978  18.275  0.00  0.00    +0.000 NA
BRANCH   8   9
ATOM      9  N   UNL     1       1.592  12.232  18.196  0.00  0.00    +0.000 N 
ATOM     10  C   UNL     1       1.758  13.114  19.263  0.00  0.00    +0.000 C 
ATOM     11  O   UNL     1       2.337  12.799  20.302  0.00  0.00    +0.000 OA
ATOM     12  H   UNL     1       1.108  12.521  17.355  0.00  0.00    +0.000 HD
BRANCH  10  13
ATOM     13  C   UNL     1       1.210  14.443  19.066  0.00  0.00    +0.000 A 
ATOM     14  C   UNL     1      -0.025  14.989  19.365  0.00  0.00    +0.000 A 
ATOM     15 CL   UNL     1      -1.385  14.278  20.091  0.00  0.00    +0.000 Cl
ATOM     16  C   UNL     1       0.030  16.326  18.939  0.00  0.00    +0.000 A 
ATOM     17  N   UNL     1       1.208  16.637  18.403  0.00  0.00    +0.000 NA
ATOM     18  N   UNL     1       1.910  15.484  18.484  0.00  0.00    +0.000 N 
ATOM     19  C   UNL     1       3.253  15.464  17.945  0.00  0.00    +0.000 C 
ENDBRANCH  10  13
ENDBRANCH   8   9
ENDBRANCH   4   7
BRANCH   1  20
ATOM     20  O   UNL     1       3.408   4.758  19.039  0.00  0.00    +0.000 OA
BRANCH  20  21
ATOM     21  S   UNL     1       5.023   4.488  19.135  0.00  0.00    +0.000 S 
ATOM     22  O   UNL     1       5.230   3.172  19.708  0.00  0.00    +0.000 OA
ATOM     23  O   UNL     1       5.678   5.662  19.684  0.00  0.00    +0.000 OA
BRANCH  21  28
ATOM     24  C   UNL     1       6.917   4.460  13.368  0.00  0.00    +0.000 C 
ATOM     25  C   UNL     1       6.448   4.427  14.793  0.00  0.00    +0.000 A 
ATOM     26  C   UNL     1       5.139   4.037  15.112  0.00  0.00    +0.000 A 
ATOM     27  C   UNL     1       4.703   4.025  16.439  0.00  0.00    +0.000 A 
ATOM     28  C   UNL     1       5.585   4.409  17.450  0.00  0.00    +0.000 A 
ATOM     29  C   UNL     1       6.895   4.797  17.150  0.00  0.00    +0.000 A 
ATOM     30  C   UNL     1       7.322   4.807  15.822  0.00  0.00    +0.000 A 
ENDBRANCH  21  28
ENDBRANCH  20  21
ENDBRANCH   1  20
TORSDOF 6
ENDMDL
MODEL 8
REMARK VINA RESULT:      -8.2      4.508      9.653
REMARK  Name = 
REMARK  8 active torsions:
REMARK  status: ('A' for Active; 'I' for Inactive)
REMARK    1  A    between atoms: C_1  and  C_2
REMARK    2  A    between atoms: C_5  and  S_6
REMARK    3  A    between atoms: S_6  and  O_9
REMARK    4  A    between atoms: O_9  and  C_10
REMARK    5  A    between atoms: C_13  and  C_14
REMARK    6  A    between atoms: N_15  and  N_16
REMARK    7  A    between atoms: C_17  and  C_19
REMARK    8  A    between atoms: N_24  and  C_25
REMARK                            x       y       z     vdW  Elec       q    Type
REMARK                         _______ _______ _______ _____ _____    ______ ____
ROOT
ATOM      1  C   UNL     1      10.717  12.300  19.687  0.00  0.00    +0.000 A 
ATOM      2  C   UNL     1      10.692  12.102  18.307  0.00  0.00    +0.000 A 
ATOM      3  C   UNL     1       9.872  11.123  17.747  0.00  0.00    +0.000 A 
ATOM      4  C   UNL     1       9.073  10.317  18.560  0.00  0.00    +0.000 A 
ATOM      5  C   UNL     1       9.110  10.483  19.947  0.00  0.00    +0.000 A 
ATOM      6  C   UNL     1       9.938  11.472  20.507  0.00  0.00    +0.000 A 
ENDROOT
BRANCH   4   7
ATOM      7  C   UNL     1       8.202   9.298  17.926  0.00  0.00    +0.000 C 
ATOM      8  N   UNL     1       8.288   8.059  18.294  0.00  0.00    +0.000 NA
BRANCH   8   9
ATOM      9  N   UNL     1       7.467   7.157  17.691  0.00  0.00    +0.000 N 
ATOM     10  C   UNL     1       7.338   5.878  18.229  0.00  0.00    +0.000 C 
ATOM     11  O   UNL     1       7.962   5.510  19.223  0.00  0.00    +0.000 OA
ATOM     12  H   UNL     1       6.942   7.429  16.869  0.00  0.00    +0.000 HD
BRANCH  10  13
ATOM     13  C   UNL     1       6.405   5.003  17.545  0.00  0.00    +0.000 A 
ATOM     14  C   UNL     1       6.344   4.554  16.237  0.00  0.00    +0.000 A 
ATOM     15 CL   UNL     1       7.372   4.877  14.925  0.00  0.00    +0.000 Cl
ATOM     16  C   UNL     1       5.211   3.728  16.165  0.00  0.00    +0.000 A 
ATOM     17  N   UNL     1       4.576   3.638  17.331  0.00  0.00    +0.000 NA
ATOM     18  N   UNL     1       5.310   4.420  18.155  0.00  0.00    +0.000 N 
ATOM     19  C   UNL     1       4.865   4.575  19.524  0.00  0.00    +0.000 C 
ENDBRANCH  10  13
ENDBRANCH   8   9
ENDBRANCH   4   7
BRANCH   1  20
ATOM     20  O   UNL     1      11.497  13.249  20.309  0.00  0.00    +0.000 OA
BRANCH  20  21
ATOM     21  S   UNL     1      11.164  14.846  20.144  0.00  0.00    +0.000 S 
ATOM     22  O   UNL     1      11.973  15.368  19.059  0.00  0.00    +0.000 OA
ATOM     23  O   UNL     1      11.158  15.477  21.451  0.00  0.00    +0.000 OA
BRANCH  21  28
ATOM     24  C   UNL     1       5.401  15.332  18.301  0.00  0.00    +0.000 C 
ATOM     25  C   UNL     1       6.821  15.173  18.761  0.00  0.00    +0.000 A 
ATOM     26  C   UNL     1       7.115  14.867  20.098  0.00  0.00    +0.000 A 
ATOM     27  C   UNL     1       8.439  14.737  20.524  0.00  0.00    +0.000 A 
ATOM     28  C   UNL     1       9.472  14.918  19.604  0.00  0.00    +0.000 A 
ATOM     29  C   UNL     1       9.197  15.219  18.266  0.00  0.00    +0.000 A 
ATOM     30  C   UNL     1       7.871  15.348  17.849  0.00  0.00    +0.000 A 
ENDBRANCH  21  28
ENDBRANCH  20  21
ENDBRANCH   1  20
TORSDOF 6
ENDMDL
MODEL 9
REMARK VINA RESULT:      -8.2      6.493      8.648
REMARK  Name = 
REMARK  8 active torsions:
REMARK  status: ('A' for Active; 'I' for Inactive)
REMARK    1  A    between atoms: C_1  and  C_2
REMARK    2  A    between atoms: C_5  and  S_6
REMARK    3  A    between atoms: S_6  and  O_9
REMARK    4  A    between atoms: O_9  and  C_10
REMARK    5  A    between atoms: C_13  and  C_14
REMARK    6  A    between atoms: N_15  and  N_16
REMARK    7  A    between atoms: C_17  and  C_19
REMARK    8  A    between atoms: N_24  and  C_25
REMARK                            x       y       z     vdW  Elec       q    Type
REMARK                         _______ _______ _______ _____ _____    ______ ____
ROOT
ATOM      1  C   UNL     1       2.594   5.890  19.226  0.00  0.00    +0.000 A 
ATOM      2  C   UNL     1       2.033   6.155  20.475  0.00  0.00    +0.000 A 
ATOM      3  C   UNL     1       1.515   7.417  20.764  0.00  0.00    +0.000 A 
ATOM      4  C   UNL     1       1.560   8.437  19.812  0.00  0.00    +0.000 A 
ATOM      5  C   UNL     1       2.145   8.195  18.566  0.00  0.00    +0.000 A 
ATOM      6  C   UNL     1       2.667   6.921  18.280  0.00  0.00    +0.000 A 
ENDROOT
BRANCH   4   7
ATOM      7  C   UNL     1       0.983   9.761  20.151  0.00  0.00    +0.000 C 
ATOM      8  N   UNL     1      -0.279   9.861  20.427  0.00  0.00    +0.000 NA
BRANCH   8   9
ATOM      9  N   UNL     1      -0.767  11.093  20.738  0.00  0.00    +0.000 N 
ATOM     10  C   UNL     1      -1.406  11.847  19.755  0.00  0.00    +0.000 C 
ATOM     11  O   UNL     1      -1.526  11.460  18.593  0.00  0.00    +0.000 OA
ATOM     12  H   UNL     1      -0.681  11.441  21.684  0.00  0.00    +0.000 HD
BRANCH  10  13
ATOM     13  C   UNL     1      -1.934  13.125  20.193  0.00  0.00    +0.000 A 
ATOM     14  C   UNL     1      -3.122  13.474  20.812  0.00  0.00    +0.000 A 
ATOM     15 CL   UNL     1      -4.426  12.500  21.295  0.00  0.00    +0.000 Cl
ATOM     16  C   UNL     1      -3.071  14.866  20.989  0.00  0.00    +0.000 A 
ATOM     17  N   UNL     1      -1.940  15.393  20.524  0.00  0.00    +0.000 NA
ATOM     18  N   UNL     1      -1.265  14.326  20.042  0.00  0.00    +0.000 N 
ATOM     19  C   UNL     1       0.021  14.557  19.420  0.00  0.00    +0.000 C 
ENDBRANCH  10  13
ENDBRANCH   8   9
ENDBRANCH   4   7
BRANCH   1  20
ATOM     20  O   UNL     1       3.121   4.669  18.869  0.00  0.00    +0.000 OA
BRANCH  20  21
ATOM     21  S   UNL     1       4.720   4.357  19.061  0.00  0.00    +0.000 S 
ATOM     22  O   UNL     1       4.866   2.975  19.472  0.00  0.00    +0.000 OA
ATOM     23  O   UNL     1       5.337   5.437  19.809  0.00  0.00    +0.000 OA
BRANCH  21  28
ATOM     24  C   UNL     1       7.106   4.553  13.483  0.00  0.00    +0.000 C 
ATOM     25  C   UNL     1       6.522   4.544  14.865  0.00  0.00    +0.000 A 
ATOM     26  C   UNL     1       7.333   4.751  15.991  0.00  0.00    +0.000 A 
ATOM     27  C   UNL     1       6.785   4.723  17.276  0.00  0.00    +0.000 A 
ATOM     28  C   UNL     1       5.420   4.485  17.431  0.00  0.00    +0.000 A 
ATOM     29  C   UNL     1       4.596   4.281  16.319  0.00  0.00    +0.000 A 
ATOM     30  C   UNL     1       5.151   4.309  15.039  0.00  0.00    +0.000 A 
ENDBRANCH  21  28
ENDBRANCH  20  21
ENDBRANCH   1  20
TORSDOF 6
ENDMDL
