MODEL 1
REMARK VINA RESULT:      -8.5      0.000      0.000
REMARK  Name = 
REMARK  7 active torsions:
REMARK  status: ('A' for Active; 'I' for Inactive)
REMARK    1  A    between atoms: C_1  and  C_2
REMARK    2  A    between atoms: C_2  and  C_3
REMARK    3  A    between atoms: C_2  and  C_4
REMARK    4  A    between atoms: C_2  and  C_5
REMARK    5  A    between atoms: C_9  and  C_10
REMARK    6  A    between atoms: C_14  and  C_15
REMARK    7  A    between atoms: N_17  and  C_18
REMARK                            x       y       z     vdW  Elec       q    Type
REMARK                         _______ _______ _______ _____ _____    ______ ____
ROOT
ATOM      1  C   UNL     1       2.201   4.811  19.425  0.00  0.00    +0.000 C 
ATOM      2  O   UNL     1       1.498   4.779  18.417  0.00  0.00    +0.000 OA
ATOM      3  N   UNL     1       2.516   5.949  20.143  0.00  0.00    +0.000 N 
ATOM      4  H   UNL     1       3.223   5.876  20.870  0.00  0.00    +0.000 HD
ENDROOT
BRANCH   3   5
ATOM      5  C   UNL     1       1.989   7.255  19.961  0.00  0.00    +0.000 A 
ATOM      6  C   UNL     1       1.148   7.871  20.895  0.00  0.00    +0.000 A 
ATOM      7  C   UNL     1       0.699   9.181  20.702  0.00  0.00    +0.000 A 
ATOM      8  C   UNL     1      -0.282   9.780  21.611  0.00  0.00    +0.000 A 
ATOM      9  C   UNL     1      -0.688  11.037  21.403  0.00  0.00    +0.000 A 
ATOM     10  N   UNL     1      -0.163  11.797  20.388  0.00  0.00    +0.000 N 
ATOM     11  C   UNL     1       0.773  11.345  19.484  0.00  0.00    +0.000 A 
ATOM     12  O   UNL     1       1.269  12.079  18.636  0.00  0.00    +0.000 OA
ATOM     13  C   UNL     1       1.158   9.915  19.600  0.00  0.00    +0.000 A 
ATOM     14  C   UNL     1       1.958   9.310  18.628  0.00  0.00    +0.000 A 
ATOM     15  C   UNL     1       2.344   7.977  18.801  0.00  0.00    +0.000 A 
ATOM     16 CL   UNL     1       3.250   7.224  17.532  0.00  0.00    +0.000 Cl
ATOM     17  H   UNL     1      -0.442  12.766  20.287  0.00  0.00    +0.000 HD
ENDBRANCH   3   5
BRANCH   1  22
ATOM     18  C   UNL     1       4.011   2.954  19.205  0.00  0.00    +0.000 C 
ATOM     19  C   UNL     1       3.401   1.904  18.276  0.00  0.00    +0.000 C 
ATOM     20  N   UNL     1       2.314   1.295  19.059  0.00  0.00    +0.000 NA
ATOM     21  C   UNL     1       1.769   2.360  19.921  0.00  0.00    +0.000 C 
ATOM     22  C   UNL     1       2.785   3.501  19.948  0.00  0.00    +0.000 C 
ATOM     23  H   UNL     1       2.717   0.568  19.655  0.00  0.00    +0.000 HD
BRANCH  18  28
ATOM     24  C   UNL     1       5.875   5.051  16.582  0.00  0.00    +0.000 A 
ATOM     25  C   UNL     1       6.659   5.860  17.419  0.00  0.00    +0.000 A 
ATOM     26  C   UNL     1       6.606   5.738  18.807  0.00  0.00    +0.000 A 
ATOM     27  C   UNL     1       5.773   4.791  19.398  0.00  0.00    +0.000 A 
ATOM     28  C   UNL     1       4.997   3.935  18.609  0.00  0.00    +0.000 A 
ATOM     29  C   UNL     1       5.076   4.070  17.208  0.00  0.00    +0.000 A 
BRANCH  24  31
ATOM     30  C   UNL     1       5.275   6.557  14.677  0.00  0.00    +0.000 C 
ATOM     31  C   UNL     1       5.926   5.211  15.049  0.00  0.00    +0.000 C 
ATOM     32  C   UNL     1       5.179   4.072  14.310  0.00  0.00    +0.000 C 
ATOM     33  C   UNL     1       7.369   5.190  14.494  0.00  0.00    +0.000 C 
ENDBRANCH  24  31
ENDBRANCH  18  28
ENDBRANCH   1  22
TORSDOF 4
ENDMDL
MODEL 2
REMARK VINA RESULT:      -8.4      1.209      2.055
REMARK  Name = 
REMARK  7 active torsions:
REMARK  status: ('A' for Active; 'I' for Inactive)
REMARK    1  A    between atoms: C_1  and  C_2
REMARK    2  A    between atoms: C_2  and  C_3
REMARK    3  A    between atoms: C_2  and  C_4
REMARK    4  A    between atoms: C_2  and  C_5
REMARK    5  A    between atoms: C_9  and  C_10
REMARK    6  A    between atoms: C_14  and  C_15
REMARK    7  A    between atoms: N_17  and  C_18
REMARK                            x       y       z     vdW  Elec       q    Type
REMARK                         _______ _______ _______ _____ _____    ______ ____
ROOT
ATOM      1  C   UNL     1       1.827   5.279  20.559  0.00  0.00    +0.000 C 
ATOM      2  O   UNL     1       0.726   5.015  20.079  0.00  0.00    +0.000 OA
ATOM      3  N   UNL     1       2.378   6.543  20.644  0.00  0.00    +0.000 N 
ATOM      4  H   UNL     1       3.351   6.623  20.924  0.00  0.00    +0.000 HD
ENDROOT
BRANCH   3   5
ATOM      5  C   UNL     1       1.747   7.780  20.344  0.00  0.00    +0.000 A 
ATOM      6  C   UNL     1       0.986   8.491  21.278  0.00  0.00    +0.000 A 
ATOM      7  C   UNL     1       0.432   9.734  20.956  0.00  0.00    +0.000 A 
ATOM      8  C   UNL     1      -0.470  10.417  21.888  0.00  0.00    +0.000 A 
ATOM      9  C   UNL     1      -0.980  11.608  21.552  0.00  0.00    +0.000 A 
ATOM     10  N   UNL     1      -0.633  12.227  20.378  0.00  0.00    +0.000 N 
ATOM     11  C   UNL     1       0.214  11.686  19.436  0.00  0.00    +0.000 A 
ATOM     12  O   UNL     1       0.554  12.304  18.433  0.00  0.00    +0.000 OA
ATOM     13  C   UNL     1       0.704  10.311  19.708  0.00  0.00    +0.000 A 
ATOM     14  C   UNL     1       1.418   9.602  18.741  0.00  0.00    +0.000 A 
ATOM     15  C   UNL     1       1.910   8.331  19.055  0.00  0.00    +0.000 A 
ATOM     16 CL   UNL     1       2.703   7.436  17.802  0.00  0.00    +0.000 Cl
ATOM     17  H   UNL     1      -0.986  13.155  20.174  0.00  0.00    +0.000 HD
ENDBRANCH   3   5
BRANCH   1  22
ATOM     18  C   UNL     1       3.291   3.181  20.085  0.00  0.00    +0.000 C 
ATOM     19  C   UNL     1       2.320   2.000  20.095  0.00  0.00    +0.000 C 
ATOM     20  N   UNL     1       1.900   1.871  21.498  0.00  0.00    +0.000 NA
ATOM     21  C   UNL     1       1.882   3.234  22.060  0.00  0.00    +0.000 C 
ATOM     22  C   UNL     1       2.673   4.136  21.114  0.00  0.00    +0.000 C 
ATOM     23  H   UNL     1       2.607   1.323  21.996  0.00  0.00    +0.000 HD
BRANCH  18  28
ATOM     24  C   UNL     1       5.436   4.910  17.408  0.00  0.00    +0.000 A 
ATOM     25  C   UNL     1       4.673   4.638  16.262  0.00  0.00    +0.000 A 
ATOM     26  C   UNL     1       3.481   3.918  16.335  0.00  0.00    +0.000 A 
ATOM     27  C   UNL     1       3.011   3.460  17.563  0.00  0.00    +0.000 A 
ATOM     28  C   UNL     1       3.714   3.735  18.742  0.00  0.00    +0.000 A 
ATOM     29  C   UNL     1       4.911   4.473  18.643  0.00  0.00    +0.000 A 
BRANCH  24  31
ATOM     30  C   UNL     1       7.465   5.294  15.996  0.00  0.00    +0.000 C 
ATOM     31  C   UNL     1       6.764   5.688  17.311  0.00  0.00    +0.000 C 
ATOM     32  C   UNL     1       7.714   5.384  18.496  0.00  0.00    +0.000 C 
ATOM     33  C   UNL     1       6.561   7.221  17.322  0.00  0.00    +0.000 C 
ENDBRANCH  24  31
ENDBRANCH  18  28
ENDBRANCH   1  22
TORSDOF 4
ENDMDL
MODEL 3
REMARK VINA RESULT:      -8.0      3.126      8.917
REMARK  Name = 
REMARK  7 active torsions:
REMARK  status: ('A' for Active; 'I' for Inactive)
REMARK    1  A    between atoms: C_1  and  C_2
REMARK    2  A    between atoms: C_2  and  C_3
REMARK    3  A    between atoms: C_2  and  C_4
REMARK    4  A    between atoms: C_2  and  C_5
REMARK    5  A    between atoms: C_9  and  C_10
REMARK    6  A    between atoms: C_14  and  C_15
REMARK    7  A    between atoms: N_17  and  C_18
REMARK                            x       y       z     vdW  Elec       q    Type
REMARK                         _______ _______ _______ _____ _____    ______ ____
ROOT
ATOM      1  C   UNL     1       0.313   9.576  20.740  0.00  0.00    +0.000 C 
ATOM      2  O   UNL     1      -0.671   8.889  21.011  0.00  0.00    +0.000 OA
ATOM      3  N   UNL     1       1.523   9.089  20.283  0.00  0.00    +0.000 N 
ATOM      4  H   UNL     1       2.308   9.732  20.232  0.00  0.00    +0.000 HD
ENDROOT
BRANCH   3   5
ATOM      5  C   UNL     1       1.825   7.756  19.900  0.00  0.00    +0.000 A 
ATOM      6  C   UNL     1       1.755   6.677  20.787  0.00  0.00    +0.000 A 
ATOM      7  C   UNL     1       2.005   5.371  20.351  0.00  0.00    +0.000 A 
ATOM      8  C   UNL     1       2.059   4.259  21.305  0.00  0.00    +0.000 A 
ATOM      9  C   UNL     1       2.295   3.021  20.856  0.00  0.00    +0.000 A 
ATOM     10  N   UNL     1       2.433   2.763  19.516  0.00  0.00    +0.000 N 
ATOM     11  C   UNL     1       2.386   3.725  18.531  0.00  0.00    +0.000 A 
ATOM     12  O   UNL     1       2.443   3.442  17.339  0.00  0.00    +0.000 OA
ATOM     13  C   UNL     1       2.253   5.130  18.993  0.00  0.00    +0.000 A 
ATOM     14  C   UNL     1       2.376   6.193  18.096  0.00  0.00    +0.000 A 
ATOM     15  C   UNL     1       2.189   7.498  18.560  0.00  0.00    +0.000 A 
ATOM     16 CL   UNL     1       2.449   8.799  17.447  0.00  0.00    +0.000 Cl
ATOM     17  H   UNL     1       2.551   1.809  19.196  0.00  0.00    +0.000 HD
ENDBRANCH   3   5
BRANCH   1  22
ATOM     18  C   UNL     1      -0.363  11.876  19.729  0.00  0.00    +0.000 C 
ATOM     19  C   UNL     1       0.892  12.390  19.022  0.00  0.00    +0.000 C 
ATOM     20  N   UNL     1       1.834  12.705  20.107  0.00  0.00    +0.000 NA
ATOM     21  C   UNL     1       1.574  11.732  21.184  0.00  0.00    +0.000 C 
ATOM     22  C   UNL     1       0.215  11.089  20.912  0.00  0.00    +0.000 C 
ATOM     23  H   UNL     1       1.619  13.642  20.457  0.00  0.00    +0.000 HD
BRANCH  18  28
ATOM     24  C   UNL     1      -3.812  11.174  18.192  0.00  0.00    +0.000 A 
ATOM     25  C   UNL     1      -3.464  10.224  17.220  0.00  0.00    +0.000 A 
ATOM     26  C   UNL     1      -2.146   9.800  17.056  0.00  0.00    +0.000 A 
ATOM     27  C   UNL     1      -1.138  10.307  17.871  0.00  0.00    +0.000 A 
ATOM     28  C   UNL     1      -1.435  11.230  18.880  0.00  0.00    +0.000 A 
ATOM     29  C   UNL     1      -2.777  11.635  19.033  0.00  0.00    +0.000 A 
BRANCH  24  31
ATOM     30  C   UNL     1      -5.339  12.619  19.547  0.00  0.00    +0.000 C 
ATOM     31  C   UNL     1      -5.269  11.652  18.349  0.00  0.00    +0.000 C 
ATOM     32  C   UNL     1      -6.253  10.481  18.594  0.00  0.00    +0.000 C 
ATOM     33  C   UNL     1      -5.797  12.384  17.093  0.00  0.00    +0.000 C 
ENDBRANCH  24  31
ENDBRANCH  18  28
ENDBRANCH   1  22
TORSDOF 4
ENDMDL
MODEL 4
REMARK VINA RESULT:      -7.4      3.415      9.399
REMARK  Name = 
REMARK  7 active torsions:
REMARK  status: ('A' for Active; 'I' for Inactive)
REMARK    1  A    between atoms: C_1  and  C_2
REMARK    2  A    between atoms: C_2  and  C_3
REMARK    3  A    between atoms: C_2  and  C_4
REMARK    4  A    between atoms: C_2  and  C_5
REMARK    5  A    between atoms: C_9  and  C_10
REMARK    6  A    between atoms: C_14  and  C_15
REMARK    7  A    between atoms: N_17  and  C_18
REMARK                            x       y       z     vdW  Elec       q    Type
REMARK                         _______ _______ _______ _____ _____    ______ ____
ROOT
ATOM      1  C   UNL     1      -0.211  10.173  20.136  0.00  0.00    +0.000 C 
ATOM      2  O   UNL     1      -1.145   9.566  19.616  0.00  0.00    +0.000 OA
ATOM      3  N   UNL     1       1.046   9.650  20.374  0.00  0.00    +0.000 N 
ATOM      4  H   UNL     1       1.691  10.194  20.940  0.00  0.00    +0.000 HD
ENDROOT
BRANCH   3   5
ATOM      5  C   UNL     1       1.551   8.394  19.945  0.00  0.00    +0.000 A 
ATOM      6  C   UNL     1       1.540   7.255  20.757  0.00  0.00    +0.000 A 
ATOM      7  C   UNL     1       1.995   6.023  20.272  0.00  0.00    +0.000 A 
ATOM      8  C   UNL     1       2.104   4.862  21.160  0.00  0.00    +0.000 A 
ATOM      9  C   UNL     1       2.537   3.697  20.665  0.00  0.00    +0.000 A 
ATOM     10  N   UNL     1       2.828   3.553  19.332  0.00  0.00    +0.000 N 
ATOM     11  C   UNL     1       2.748   4.569  18.405  0.00  0.00    +0.000 A 
ATOM     12  O   UNL     1       2.949   4.380  17.211  0.00  0.00    +0.000 OA
ATOM     13  C   UNL     1       2.394   5.911  18.934  0.00  0.00    +0.000 A 
ATOM     14  C   UNL     1       2.460   7.041  18.117  0.00  0.00    +0.000 A 
ATOM     15  C   UNL     1       2.066   8.278  18.636  0.00  0.00    +0.000 A 
ATOM     16 CL   UNL     1       2.256   9.676  17.632  0.00  0.00    +0.000 Cl
ATOM     17  H   UNL     1       3.097   2.645  18.970  0.00  0.00    +0.000 HD
ENDBRANCH   3   5
BRANCH   1  22
ATOM     18  C   UNL     1      -1.147  12.530  19.554  0.00  0.00    +0.000 C 
ATOM     19  C   UNL     1       0.010  13.270  18.883  0.00  0.00    +0.000 C 
ATOM     20  N   UNL     1       0.987  13.496  19.960  0.00  0.00    +0.000 NA
ATOM     21  C   UNL     1       0.882  12.342  20.872  0.00  0.00    +0.000 C 
ATOM     22  C   UNL     1      -0.430  11.623  20.561  0.00  0.00    +0.000 C 
ATOM     23  H   UNL     1       0.712  14.339  20.470  0.00  0.00    +0.000 HD
BRANCH  18  28
ATOM     24  C   UNL     1      -4.613  11.478  18.274  0.00  0.00    +0.000 A 
ATOM     25  C   UNL     1      -4.275  11.002  16.997  0.00  0.00    +0.000 A 
ATOM     26  C   UNL     1      -2.955  11.006  16.546  0.00  0.00    +0.000 A 
ATOM     27  C   UNL     1      -1.933  11.475  17.366  0.00  0.00    +0.000 A 
ATOM     28  C   UNL     1      -2.210  11.927  18.661  0.00  0.00    +0.000 A 
ATOM     29  C   UNL     1      -3.550  11.904  19.099  0.00  0.00    +0.000 A 
BRANCH  24  31
ATOM     30  C   UNL     1      -6.922  12.266  17.724  0.00  0.00    +0.000 C 
ATOM     31  C   UNL     1      -6.078  11.490  18.754  0.00  0.00    +0.000 C 
ATOM     32  C   UNL     1      -6.241  12.159  20.141  0.00  0.00    +0.000 C 
ATOM     33  C   UNL     1      -6.669  10.069  18.905  0.00  0.00    +0.000 C 
ENDBRANCH  24  31
ENDBRANCH  18  28
ENDBRANCH   1  22
TORSDOF 4
ENDMDL
MODEL 5
REMARK VINA RESULT:      -7.3      2.979      8.207
REMARK  Name = 
REMARK  7 active torsions:
REMARK  status: ('A' for Active; 'I' for Inactive)
REMARK    1  A    between atoms: C_1  and  C_2
REMARK    2  A    between atoms: C_2  and  C_3
REMARK    3  A    between atoms: C_2  and  C_4
REMARK    4  A    between atoms: C_2  and  C_5
REMARK    5  A    between atoms: C_9  and  C_10
REMARK    6  A    between atoms: C_14  and  C_15
REMARK    7  A    between atoms: N_17  and  C_18
REMARK                            x       y       z     vdW  Elec       q    Type
REMARK                         _______ _______ _______ _____ _____    ______ ____
ROOT
ATOM      1  C   UNL     1       0.970   9.130  20.939  0.00  0.00    +0.000 C 
ATOM      2  O   UNL     1       1.913   9.886  21.166  0.00  0.00    +0.000 OA
ATOM      3  N   UNL     1       0.977   8.102  20.014  0.00  0.00    +0.000 N 
ATOM      4  H   UNL     1       0.096   7.639  19.808  0.00  0.00    +0.000 HD
ENDROOT
BRANCH   3   5
ATOM      5  C   UNL     1       2.085   7.624  19.267  0.00  0.00    +0.000 A 
ATOM      6  C   UNL     1       2.796   6.471  19.616  0.00  0.00    +0.000 A 
ATOM      7  C   UNL     1       3.844   6.003  18.817  0.00  0.00    +0.000 A 
ATOM      8  C   UNL     1       4.670   4.872  19.249  0.00  0.00    +0.000 A 
ATOM      9  C   UNL     1       5.663   4.446  18.459  0.00  0.00    +0.000 A 
ATOM     10  N   UNL     1       5.888   5.010  17.230  0.00  0.00    +0.000 N 
ATOM     11  C   UNL     1       5.167   6.066  16.716  0.00  0.00    +0.000 A 
ATOM     12  O   UNL     1       5.355   6.494  15.583  0.00  0.00    +0.000 OA
ATOM     13  C   UNL     1       4.138   6.654  17.611  0.00  0.00    +0.000 A 
ATOM     14  C   UNL     1       3.478   7.834  17.263  0.00  0.00    +0.000 A 
ATOM     15  C   UNL     1       2.477   8.325  18.106  0.00  0.00    +0.000 A 
ATOM     16 CL   UNL     1       1.748   9.843  17.700  0.00  0.00    +0.000 Cl
ATOM     17  H   UNL     1       6.607   4.631  16.625  0.00  0.00    +0.000 HD
ENDBRANCH   3   5
BRANCH   1  22
ATOM     18  C   UNL     1      -1.120  10.597  21.437  0.00  0.00    +0.000 C 
ATOM     19  C   UNL     1      -0.701  11.522  22.580  0.00  0.00    +0.000 C 
ATOM     20  N   UNL     1      -0.559  10.638  23.748  0.00  0.00    +0.000 NA
ATOM     21  C   UNL     1      -0.085   9.339  23.237  0.00  0.00    +0.000 C 
ATOM     22  C   UNL     1      -0.323   9.319  21.727  0.00  0.00    +0.000 C 
ATOM     23  H   UNL     1      -1.485  10.506  24.164  0.00  0.00    +0.000 HD
BRANCH  18  28
ATOM     24  C   UNL     1      -2.169  11.247  17.800  0.00  0.00    +0.000 A 
ATOM     25  C   UNL     1      -1.278  12.278  17.463  0.00  0.00    +0.000 A 
ATOM     26  C   UNL     1      -0.343  12.760  18.379  0.00  0.00    +0.000 A 
ATOM     27  C   UNL     1      -0.265  12.214  19.657  0.00  0.00    +0.000 A 
ATOM     28  C   UNL     1      -1.106  11.160  20.034  0.00  0.00    +0.000 A 
ATOM     29  C   UNL     1      -2.035  10.683  19.087  0.00  0.00    +0.000 A 
BRANCH  24  31
ATOM     30  C   UNL     1      -3.619   9.305  17.183  0.00  0.00    +0.000 C 
ATOM     31  C   UNL     1      -3.213  10.738  16.787  0.00  0.00    +0.000 C 
ATOM     32  C   UNL     1      -2.670  10.721  15.336  0.00  0.00    +0.000 C 
ATOM     33  C   UNL     1      -4.485  11.617  16.745  0.00  0.00    +0.000 C 
ENDBRANCH  24  31
ENDBRANCH  18  28
ENDBRANCH   1  22
TORSDOF 4
ENDMDL
MODEL 6
REMARK VINA RESULT:      -7.3      2.864      7.447
REMARK  Name = 
REMARK  7 active torsions:
REMARK  status: ('A' for Active; 'I' for Inactive)
REMARK    1  A    between atoms: C_1  and  C_2
REMARK    2  A    between atoms: C_2  and  C_3
REMARK    3  A    between atoms: C_2  and  C_4
REMARK    4  A    between atoms: C_2  and  C_5
REMARK    5  A    between atoms: C_9  and  C_10
REMARK    6  A    between atoms: C_14  and  C_15
REMARK    7  A    between atoms: N_17  and  C_18
REMARK                            x       y       z     vdW  Elec       q    Type
REMARK                         _______ _______ _______ _____ _____    ______ ____
ROOT
ATOM      1  C   UNL     1       2.801   3.749  17.472  0.00  0.00    +0.000 C 
ATOM      2  O   UNL     1       2.184   3.634  16.414  0.00  0.00    +0.000 OA
ATOM      3  N   UNL     1       4.169   3.907  17.584  0.00  0.00    +0.000 N 
ATOM      4  H   UNL     1       4.583   3.844  18.510  0.00  0.00    +0.000 HD
ENDROOT
BRANCH   3   5
ATOM      5  C   UNL     1       5.101   4.114  16.533  0.00  0.00    +0.000 A 
ATOM      6  C   UNL     1       4.882   3.665  15.226  0.00  0.00    +0.000 A 
ATOM      7  C   UNL     1       5.802   3.943  14.208  0.00  0.00    +0.000 A 
ATOM      8  C   UNL     1       5.638   3.364  12.871  0.00  0.00    +0.000 A 
ATOM      9  C   UNL     1       6.532   3.653  11.919  0.00  0.00    +0.000 A 
ATOM     10  N   UNL     1       7.566   4.523  12.152  0.00  0.00    +0.000 N 
ATOM     11  C   UNL     1       7.809   5.136  13.361  0.00  0.00    +0.000 A 
ATOM     12  O   UNL     1       8.703   5.962  13.507  0.00  0.00    +0.000 OA
ATOM     13  C   UNL     1       6.917   4.746  14.483  0.00  0.00    +0.000 A 
ATOM     14  C   UNL     1       7.183   5.165  15.787  0.00  0.00    +0.000 A 
ATOM     15  C   UNL     1       6.290   4.824  16.807  0.00  0.00    +0.000 A 
ATOM     16 CL   UNL     1       6.700   5.272  18.429  0.00  0.00    +0.000 Cl
ATOM     17  H   UNL     1       8.195   4.772  11.397  0.00  0.00    +0.000 HD
ENDBRANCH   3   5
BRANCH   1  22
ATOM     18  C   UNL     1       2.103   4.975  19.659  0.00  0.00    +0.000 C 
ATOM     19  C   UNL     1       3.160   4.588  20.693  0.00  0.00    +0.000 C 
ATOM     20  N   UNL     1       2.925   3.160  20.956  0.00  0.00    +0.000 NA
ATOM     21  C   UNL     1       2.446   2.572  19.691  0.00  0.00    +0.000 C 
ATOM     22  C   UNL     1       2.015   3.720  18.780  0.00  0.00    +0.000 C 
ATOM     23  H   UNL     1       2.180   3.081  21.654  0.00  0.00    +0.000 HD
BRANCH  18  28
ATOM     24  C   UNL     1       1.532   8.696  18.898  0.00  0.00    +0.000 A 
ATOM     25  C   UNL     1       2.530   8.911  17.935  0.00  0.00    +0.000 A 
ATOM     26  C   UNL     1       3.375   7.881  17.521  0.00  0.00    +0.000 A 
ATOM     27  C   UNL     1       3.236   6.601  18.051  0.00  0.00    +0.000 A 
ATOM     28  C   UNL     1       2.234   6.324  18.988  0.00  0.00    +0.000 A 
ATOM     29  C   UNL     1       1.386   7.379  19.383  0.00  0.00    +0.000 A 
BRANCH  24  31
ATOM     30  C   UNL     1       0.186   9.568  20.817  0.00  0.00    +0.000 C 
ATOM     31  C   UNL     1       0.619   9.847  19.365  0.00  0.00    +0.000 C 
ATOM     32  C   UNL     1      -0.647   9.993  18.484  0.00  0.00    +0.000 C 
ATOM     33  C   UNL     1       1.321  11.225  19.316  0.00  0.00    +0.000 C 
ENDBRANCH  24  31
ENDBRANCH  18  28
ENDBRANCH   1  22
TORSDOF 4
ENDMDL
MODEL 7
REMARK VINA RESULT:      -7.0      7.305     10.193
REMARK  Name = 
REMARK  7 active torsions:
REMARK  status: ('A' for Active; 'I' for Inactive)
REMARK    1  A    between atoms: C_1  and  C_2
REMARK    2  A    between atoms: C_2  and  C_3
REMARK    3  A    between atoms: C_2  and  C_4
REMARK    4  A    between atoms: C_2  and  C_5
REMARK    5  A    between atoms: C_9  and  C_10
REMARK    6  A    between atoms: C_14  and  C_15
REMARK    7  A    between atoms: N_17  and  C_18
REMARK                            x       y       z     vdW  Elec       q    Type
REMARK                         _______ _______ _______ _____ _____    ______ ____
ROOT
ATOM      1  C   UNL     1      -1.073  15.082  20.452  0.00  0.00    +0.000 C 
ATOM      2  O   UNL     1      -0.526  15.253  21.540  0.00  0.00    +0.000 OA
ATOM      3  N   UNL     1      -2.325  14.528  20.268  0.00  0.00    +0.000 N 
ATOM      4  H   UNL     1      -2.613  14.301  19.320  0.00  0.00    +0.000 HD
ENDROOT
BRANCH   3   5
ATOM      5  C   UNL     1      -3.273  14.190  21.270  0.00  0.00    +0.000 A 
ATOM      6  C   UNL     1      -4.351  15.016  21.605  0.00  0.00    +0.000 A 
ATOM      7  C   UNL     1      -5.294  14.616  22.557  0.00  0.00    +0.000 A 
ATOM      8  C   UNL     1      -6.347  15.533  23.001  0.00  0.00    +0.000 A 
ATOM      9  C   UNL     1      -7.237  15.118  23.910  0.00  0.00    +0.000 A 
ATOM     10  N   UNL     1      -7.217  13.834  24.394  0.00  0.00    +0.000 N 
ATOM     11  C   UNL     1      -6.285  12.885  24.037  0.00  0.00    +0.000 A 
ATOM     12  O   UNL     1      -6.345  11.728  24.439  0.00  0.00    +0.000 OA
ATOM     13  C   UNL     1      -5.202  13.339  23.128  0.00  0.00    +0.000 A 
ATOM     14  C   UNL     1      -4.111  12.514  22.848  0.00  0.00    +0.000 A 
ATOM     15  C   UNL     1      -3.141  12.956  21.943  0.00  0.00    +0.000 A 
ATOM     16 CL   UNL     1      -1.749  11.956  21.694  0.00  0.00    +0.000 Cl
ATOM     17  H   UNL     1      -7.938  13.526  25.036  0.00  0.00    +0.000 HD
ENDBRANCH   3   5
BRANCH   1  22
ATOM     18  C   UNL     1       0.557  14.449  18.525  0.00  0.00    +0.000 C 
ATOM     19  C   UNL     1       1.951  14.807  19.041  0.00  0.00    +0.000 C 
ATOM     20  N   UNL     1       1.966  16.277  19.095  0.00  0.00    +0.000 NA
ATOM     21  C   UNL     1       0.594  16.700  19.432  0.00  0.00    +0.000 C 
ATOM     22  C   UNL     1      -0.331  15.509  19.188  0.00  0.00    +0.000 C 
ATOM     23  H   UNL     1       2.195  16.630  18.162  0.00  0.00    +0.000 HD
BRANCH  18  28
ATOM     24  C   UNL     1      -1.517  11.267  17.953  0.00  0.00    +0.000 A 
ATOM     25  C   UNL     1      -0.657  10.305  18.504  0.00  0.00    +0.000 A 
ATOM     26  C   UNL     1       0.571  10.661  19.061  0.00  0.00    +0.000 A 
ATOM     27  C   UNL     1       0.967  11.995  19.096  0.00  0.00    +0.000 A 
ATOM     28  C   UNL     1       0.131  12.999  18.593  0.00  0.00    +0.000 A 
ATOM     29  C   UNL     1      -1.109  12.615  18.044  0.00  0.00    +0.000 A 
BRANCH  24  31
ATOM     30  C   UNL     1      -2.724  10.944  15.786  0.00  0.00    +0.000 C 
ATOM     31  C   UNL     1      -2.862  10.859  17.319  0.00  0.00    +0.000 C 
ATOM     32  C   UNL     1      -4.030  11.772  17.769  0.00  0.00    +0.000 C 
ATOM     33  C   UNL     1      -3.289   9.421  17.697  0.00  0.00    +0.000 C 
ENDBRANCH  24  31
ENDBRANCH  18  28
ENDBRANCH   1  22
TORSDOF 4
ENDMDL
MODEL 8
REMARK VINA RESULT:      -7.0      8.869     10.775
REMARK  Name = 
REMARK  7 active torsions:
REMARK  status: ('A' for Active; 'I' for Inactive)
REMARK    1  A    between atoms: C_1  and  C_2
REMARK    2  A    between atoms: C_2  and  C_3
REMARK    3  A    between atoms: C_2  and  C_4
REMARK    4  A    between atoms: C_2  and  C_5
REMARK    5  A    between atoms: C_9  and  C_10
REMARK    6  A    between atoms: C_14  and  C_15
REMARK    7  A    between atoms: N_17  and  C_18
REMARK                            x       y       z     vdW  Elec       q    Type
REMARK                         _______ _______ _______ _____ _____    ______ ____
ROOT
ATOM      1  C   UNL     1       8.945  13.181  17.563  0.00  0.00    +0.000 C 
ATOM      2  O   UNL     1       8.060  12.368  17.298  0.00  0.00    +0.000 OA
ATOM      3  N   UNL     1       8.737  14.508  17.888  0.00  0.00    +0.000 N 
ATOM      4  H   UNL     1       9.547  15.119  17.942  0.00  0.00    +0.000 HD
ENDROOT
BRANCH   3   5
ATOM      5  C   UNL     1       7.493  15.152  18.124  0.00  0.00    +0.000 A 
ATOM      6  C   UNL     1       6.261  14.537  17.879  0.00  0.00    +0.000 A 
ATOM      7  C   UNL     1       5.061  15.188  18.182  0.00  0.00    +0.000 A 
ATOM      8  C   UNL     1       3.772  14.598  17.807  0.00  0.00    +0.000 A 
ATOM      9  C   UNL     1       2.642  15.243  18.116  0.00  0.00    +0.000 A 
ATOM     10  N   UNL     1       2.662  16.418  18.824  0.00  0.00    +0.000 N 
ATOM     11  C   UNL     1       3.810  17.055  19.240  0.00  0.00    +0.000 A 
ATOM     12  O   UNL     1       3.781  18.066  19.932  0.00  0.00    +0.000 OA
ATOM     13  C   UNL     1       5.092  16.440  18.809  0.00  0.00    +0.000 A 
ATOM     14  C   UNL     1       6.306  17.097  19.020  0.00  0.00    +0.000 A 
ATOM     15  C   UNL     1       7.495  16.461  18.651  0.00  0.00    +0.000 A 
ATOM     16 CL   UNL     1       8.975  17.342  18.831  0.00  0.00    +0.000 Cl
ATOM     17  H   UNL     1       1.790  16.857  19.097  0.00  0.00    +0.000 HD
ENDBRANCH   3   5
BRANCH   1  22
ATOM     18  C   UNL     1      11.189  12.872  18.842  0.00  0.00    +0.000 C 
ATOM     19  C   UNL     1      11.971  14.164  18.604  0.00  0.00    +0.000 C 
ATOM     20  N   UNL     1      12.329  14.129  17.178  0.00  0.00    +0.000 NA
ATOM     21  C   UNL     1      11.226  13.441  16.483  0.00  0.00    +0.000 C 
ATOM     22  C   UNL     1      10.397  12.711  17.539  0.00  0.00    +0.000 C 
ATOM     23  H   UNL     1      13.179  13.569  17.074  0.00  0.00    +0.000 HD
BRANCH  18  28
ATOM     24  C   UNL     1       9.420  13.827  22.115  0.00  0.00    +0.000 A 
ATOM     25  C   UNL     1       8.951  12.568  22.523  0.00  0.00    +0.000 A 
ATOM     26  C   UNL     1       9.200  11.420  21.771  0.00  0.00    +0.000 A 
ATOM     27  C   UNL     1       9.939  11.498  20.593  0.00  0.00    +0.000 A 
ATOM     28  C   UNL     1      10.460  12.722  20.159  0.00  0.00    +0.000 A 
ATOM     29  C   UNL     1      10.204  13.866  20.942  0.00  0.00    +0.000 A 
BRANCH  24  31
ATOM     30  C   UNL     1       8.725  14.660  24.369  0.00  0.00    +0.000 C 
ATOM     31  C   UNL     1       9.119  15.092  22.943  0.00  0.00    +0.000 C 
ATOM     32  C   UNL     1       7.968  15.935  22.339  0.00  0.00    +0.000 C 
ATOM     33  C   UNL     1      10.332  16.048  23.035  0.00  0.00    +0.000 C 
ENDBRANCH  24  31
ENDBRANCH  18  28
ENDBRANCH   1  22
TORSDOF 4
ENDMDL
MODEL 9
REMARK VINA RESULT:      -7.0      7.088      9.960
REMARK  Name = 
REMARK  7 active torsions:
REMARK  status: ('A' for Active; 'I' for Inactive)
REMARK    1  A    between atoms: C_1  and  C_2
REMARK    2  A    between atoms: C_2  and  C_3
REMARK    3  A    between atoms: C_2  and  C_4
REMARK    4  A    between atoms: C_2  and  C_5
REMARK    5  A    between atoms: C_9  and  C_10
REMARK    6  A    between atoms: C_14  and  C_15
REMARK    7  A    between atoms: N_17  and  C_18
REMARK                            x       y       z     vdW  Elec       q    Type
REMARK                         _______ _______ _______ _____ _____    ______ ____
ROOT
ATOM      1  C   UNL     1      -0.494  12.521  18.633  0.00  0.00    +0.000 C 
ATOM      2  O   UNL     1      -0.640  13.662  18.198  0.00  0.00    +0.000 OA
ATOM      3  N   UNL     1      -1.520  11.652  18.950  0.00  0.00    +0.000 N 
ATOM      4  H   UNL     1      -1.285  10.792  19.439  0.00  0.00    +0.000 HD
ENDROOT
BRANCH   3   5
ATOM      5  C   UNL     1      -2.908  11.832  18.708  0.00  0.00    +0.000 A 
ATOM      6  C   UNL     1      -3.795  12.300  19.683  0.00  0.00    +0.000 A 
ATOM      7  C   UNL     1      -5.143  12.519  19.382  0.00  0.00    +0.000 A 
ATOM      8  C   UNL     1      -6.097  12.884  20.434  0.00  0.00    +0.000 A 
ATOM      9  C   UNL     1      -7.379  13.091  20.112  0.00  0.00    +0.000 A 
ATOM     10  N   UNL     1      -7.808  13.022  18.811  0.00  0.00    +0.000 N 
ATOM     11  C   UNL     1      -7.000  12.703  17.743  0.00  0.00    +0.000 A 
ATOM     12  O   UNL     1      -7.408  12.722  16.587  0.00  0.00    +0.000 OA
ATOM     13  C   UNL     1      -5.597  12.341  18.068  0.00  0.00    +0.000 A 
ATOM     14  C   UNL     1      -4.745  11.828  17.088  0.00  0.00    +0.000 A 
ATOM     15  C   UNL     1      -3.415  11.552  17.421  0.00  0.00    +0.000 A 
ATOM     16 CL   UNL     1      -2.412  10.823  16.212  0.00  0.00    +0.000 Cl
ATOM     17  H   UNL     1      -8.772  13.242  18.586  0.00  0.00    +0.000 HD
ENDBRANCH   3   5
BRANCH   1  22
ATOM     18  C   UNL     1       1.429  11.966  20.294  0.00  0.00    +0.000 C 
ATOM     19  C   UNL     1       2.264  13.244  20.388  0.00  0.00    +0.000 C 
ATOM     20  N   UNL     1       2.911  13.369  19.073  0.00  0.00    +0.000 NA
ATOM     21  C   UNL     1       1.966  12.816  18.085  0.00  0.00    +0.000 C 
ATOM     22  C   UNL     1       0.924  11.998  18.847  0.00  0.00    +0.000 C 
ATOM     23  H   UNL     1       3.755  12.790  19.075  0.00  0.00    +0.000 HD
BRANCH  18  28
ATOM     24  C   UNL     1      -1.385  12.536  22.845  0.00  0.00    +0.000 A 
ATOM     25  C   UNL     1      -1.553  11.229  23.329  0.00  0.00    +0.000 A 
ATOM     26  C   UNL     1      -0.775  10.173  22.857  0.00  0.00    +0.000 A 
ATOM     27  C   UNL     1       0.206  10.398  21.894  0.00  0.00    +0.000 A 
ATOM     28  C   UNL     1       0.440  11.688  21.404  0.00  0.00    +0.000 A 
ATOM     29  C   UNL     1      -0.353  12.741  21.905  0.00  0.00    +0.000 A 
BRANCH  24  31
ATOM     30  C   UNL     1      -3.522  13.091  24.020  0.00  0.00    +0.000 C 
ATOM     31  C   UNL     1      -2.267  13.692  23.358  0.00  0.00    +0.000 C 
ATOM     32  C   UNL     1      -2.709  14.648  22.223  0.00  0.00    +0.000 C 
ATOM     33  C   UNL     1      -1.542  14.583  24.395  0.00  0.00    +0.000 C 
ENDBRANCH  24  31
ENDBRANCH  18  28
ENDBRANCH   1  22
TORSDOF 4
ENDMDL
