MODEL 1
REMARK VINA RESULT:      -7.5      0.000      0.000
REMARK  Name = 
REMARK  12 active torsions:
REMARK  status: ('A' for Active; 'I' for Inactive)
REMARK    1  A    between atoms: S_2  and  O_4
REMARK    2  A    between atoms: S_2  and  O_5
REMARK    3  A    between atoms: O_5  and  N_6
REMARK    4  A    between atoms: C_7  and  C_8
REMARK    5  A    between atoms: C_7  and  S_16
REMARK    6  A    between atoms: C_9  and  C_10
REMARK    7  A    between atoms: S_16  and  C_17
REMARK    8  A    between atoms: C_19  and  C_20
REMARK    9  A    between atoms: C_20  and  O_21
REMARK   10  A    between atoms: C_22  and  O_23
REMARK   11  A    between atoms: C_24  and  O_25
REMARK   12  A    between atoms: C_26  and  O_27
REMARK                            x       y       z     vdW  Elec       q    Type
REMARK                         _______ _______ _______ _____ _____    ______ ____
ROOT
ATOM      1  N   UNL     1       7.795   6.604  16.274  0.00  0.00    +0.000 NA
ATOM      2  C   UNL     1       7.620   6.985  17.505  0.00  0.00    +0.000 C 
ENDROOT
BRANCH   2   3
ATOM      3  C   UNL     1       7.741   8.422  17.865  0.00  0.00    +0.000 C 
ATOM      4  C   UNL     1       8.818   8.852  18.539  0.00  0.00    +0.000 C 
BRANCH   4   5
ATOM      5  C   UNL     1       9.044  10.238  18.965  0.00  0.00    +0.000 A 
ATOM      6  C   UNL     1       8.890  11.250  18.009  0.00  0.00    +0.000 A 
ATOM      7  C   UNL     1       9.091  12.587  18.350  0.00  0.00    +0.000 A 
ATOM      8  C   UNL     1       9.435  12.929  19.658  0.00  0.00    +0.000 A 
ATOM      9  C   UNL     1       9.564  11.932  20.623  0.00  0.00    +0.000 A 
ATOM     10  C   UNL     1       9.365  10.592  20.281  0.00  0.00    +0.000 A 
ENDBRANCH   4   5
ENDBRANCH   2   3
BRANCH   1  11
ATOM     11  O   UNL     1       7.513   5.236  16.051  0.00  0.00    +0.000 OA
BRANCH  11  13
ATOM     12  O   UNL     1       5.476   5.898  14.715  0.00  0.00    +0.000 OA
ATOM     13  S   UNL     1       6.569   4.951  14.733  0.00  0.00    +0.000 S 
ATOM     14  O   UNL     1       6.305   3.527  14.608  0.00  0.00    +0.000 OA
BRANCH  13  15
ATOM     15  O   UNL     1       7.493   5.343  13.465  0.00  0.00    +0.000 OA
ATOM     16  H   UNL     1       7.377   6.300  13.310  0.00  0.00    +0.000 HD
ENDBRANCH  13  15
ENDBRANCH  11  13
ENDBRANCH   1  11
BRANCH   2  17
ATOM     17  S   UNL     1       7.073   5.952  18.800  0.00  0.00    +0.000 S 
BRANCH  17  18
ATOM     18  C   UNL     1       5.328   5.594  18.442  0.00  0.00    +0.000 C 
ATOM     19  O   UNL     1       4.404   6.212  19.348  0.00  0.00    +0.000 OA
ATOM     20  C   UNL     1       3.084   6.314  18.777  0.00  0.00    +0.000 C 
ATOM     21  C   UNL     1       2.517   4.918  18.467  0.00  0.00    +0.000 C 
ATOM     22  C   UNL     1       3.514   4.110  17.613  0.00  0.00    +0.000 C 
ATOM     23  C   UNL     1       4.934   4.115  18.237  0.00  0.00    +0.000 C 
BRANCH  21  24
ATOM     24  O   UNL     1       1.254   5.038  17.802  0.00  0.00    +0.000 OA
ATOM     25  H   UNL     1       0.990   5.975  17.790  0.00  0.00    +0.000 HD
ENDBRANCH  21  24
BRANCH  22  26
ATOM     26  O   UNL     1       3.036   2.780  17.392  0.00  0.00    +0.000 OA
ATOM     27  H   UNL     1       2.276   2.616  17.977  0.00  0.00    +0.000 HD
ENDBRANCH  22  26
BRANCH  23  28
ATOM     28  O   UNL     1       5.846   3.413  17.389  0.00  0.00    +0.000 OA
ATOM     29  H   UNL     1       6.689   3.897  17.354  0.00  0.00    +0.000 HD
ENDBRANCH  23  28
BRANCH  20  30
ATOM     30  C   UNL     1       2.148   7.081  19.725  0.00  0.00    +0.000 C 
BRANCH  30  31
ATOM     31  O   UNL     1       1.969   6.338  20.933  0.00  0.00    +0.000 OA
ATOM     32  H   UNL     1       2.411   6.841  21.640  0.00  0.00    +0.000 HD
ENDBRANCH  30  31
ENDBRANCH  20  30
ENDBRANCH  17  18
ENDBRANCH   2  17
TORSDOF 12
ENDMDL
MODEL 2
REMARK VINA RESULT:      -7.5      4.172      5.729
REMARK  Name = 
REMARK  12 active torsions:
REMARK  status: ('A' for Active; 'I' for Inactive)
REMARK    1  A    between atoms: S_2  and  O_4
REMARK    2  A    between atoms: S_2  and  O_5
REMARK    3  A    between atoms: O_5  and  N_6
REMARK    4  A    between atoms: C_7  and  C_8
REMARK    5  A    between atoms: C_7  and  S_16
REMARK    6  A    between atoms: C_9  and  C_10
REMARK    7  A    between atoms: S_16  and  C_17
REMARK    8  A    between atoms: C_19  and  C_20
REMARK    9  A    between atoms: C_20  and  O_21
REMARK   10  A    between atoms: C_22  and  O_23
REMARK   11  A    between atoms: C_24  and  O_25
REMARK   12  A    between atoms: C_26  and  O_27
REMARK                            x       y       z     vdW  Elec       q    Type
REMARK                         _______ _______ _______ _____ _____    ______ ____
ROOT
ATOM      1  N   UNL     1       5.697   7.001  17.482  0.00  0.00    +0.000 NA
ATOM      2  C   UNL     1       4.477   6.579  17.328  0.00  0.00    +0.000 C 
ENDROOT
BRANCH   2   3
ATOM      3  C   UNL     1       3.337   7.519  17.484  0.00  0.00    +0.000 C 
ATOM      4  C   UNL     1       2.773   7.689  18.690  0.00  0.00    +0.000 C 
BRANCH   4   5
ATOM      5  C   UNL     1       1.635   8.573  18.967  0.00  0.00    +0.000 A 
ATOM      6  C   UNL     1       1.186   8.667  20.291  0.00  0.00    +0.000 A 
ATOM      7  C   UNL     1       0.109   9.489  20.620  0.00  0.00    +0.000 A 
ATOM      8  C   UNL     1      -0.524  10.240  19.629  0.00  0.00    +0.000 A 
ATOM      9  C   UNL     1      -0.068  10.174  18.313  0.00  0.00    +0.000 A 
ATOM     10  C   UNL     1       1.010   9.349  17.983  0.00  0.00    +0.000 A 
ENDBRANCH   4   5
ENDBRANCH   2   3
BRANCH   1  11
ATOM     11  O   UNL     1       6.682   6.035  17.167  0.00  0.00    +0.000 OA
BRANCH  11  13
ATOM     12  O   UNL     1       8.281   6.612  19.034  0.00  0.00    +0.000 OA
ATOM     13  S   UNL     1       7.542   5.505  18.467  0.00  0.00    +0.000 S 
ATOM     14  O   UNL     1       8.223   4.263  18.140  0.00  0.00    +0.000 OA
BRANCH  13  15
ATOM     15  O   UNL     1       6.430   5.121  19.575  0.00  0.00    +0.000 OA
ATOM     16  H   UNL     1       6.900   4.698  20.319  0.00  0.00    +0.000 HD
ENDBRANCH  13  15
ENDBRANCH  11  13
ENDBRANCH   1  11
BRANCH   2  17
ATOM     17  S   UNL     1       4.036   4.986  16.771  0.00  0.00    +0.000 S 
BRANCH  17  18
ATOM     18  C   UNL     1       3.248   4.167  18.189  0.00  0.00    +0.000 C 
ATOM     19  O   UNL     1       4.088   3.220  18.862  0.00  0.00    +0.000 OA
ATOM     20  C   UNL     1       3.635   2.967  20.207  0.00  0.00    +0.000 C 
ATOM     21  C   UNL     1       2.221   2.361  20.200  0.00  0.00    +0.000 C 
ATOM     22  C   UNL     1       1.265   3.238  19.365  0.00  0.00    +0.000 C 
ATOM     23  C   UNL     1       1.851   3.546  17.964  0.00  0.00    +0.000 C 
BRANCH  21  24
ATOM     24  O   UNL     1       1.741   2.217  21.541  0.00  0.00    +0.000 OA
ATOM     25  H   UNL     1       2.244   2.814  22.123  0.00  0.00    +0.000 HD
ENDBRANCH  21  24
BRANCH  22  26
ATOM     26  O   UNL     1      -0.032   2.640  19.279  0.00  0.00    +0.000 OA
ATOM     27  H   UNL     1      -0.572   2.948  20.028  0.00  0.00    +0.000 HD
ENDBRANCH  22  26
BRANCH  23  28
ATOM     28  O   UNL     1       0.972   4.412  17.242  0.00  0.00    +0.000 OA
ATOM     29  H   UNL     1       0.929   4.124  16.314  0.00  0.00    +0.000 HD
ENDBRANCH  23  28
BRANCH  20  30
ATOM     30  C   UNL     1       4.618   2.037  20.937  0.00  0.00    +0.000 C 
BRANCH  30  31
ATOM     31  O   UNL     1       5.230   1.149  20.001  0.00  0.00    +0.000 OA
ATOM     32  H   UNL     1       6.190   1.187  20.163  0.00  0.00    +0.000 HD
ENDBRANCH  30  31
ENDBRANCH  20  30
ENDBRANCH  17  18
ENDBRANCH   2  17
TORSDOF 12
ENDMDL
MODEL 3
REMARK VINA RESULT:      -7.4      0.828      1.243
REMARK  Name = 
REMARK  12 active torsions:
REMARK  status: ('A' for Active; 'I' for Inactive)
REMARK    1  A    between atoms: S_2  and  O_4
REMARK    2  A    between atoms: S_2  and  O_5
REMARK    3  A    between atoms: O_5  and  N_6
REMARK    4  A    between atoms: C_7  and  C_8
REMARK    5  A    between atoms: C_7  and  S_16
REMARK    6  A    between atoms: C_9  and  C_10
REMARK    7  A    between atoms: S_16  and  C_17
REMARK    8  A    between atoms: C_19  and  C_20
REMARK    9  A    between atoms: C_20  and  O_21
REMARK   10  A    between atoms: C_22  and  O_23
REMARK   11  A    between atoms: C_24  and  O_25
REMARK   12  A    between atoms: C_26  and  O_27
REMARK                            x       y       z     vdW  Elec       q    Type
REMARK                         _______ _______ _______ _____ _____    ______ ____
ROOT
ATOM      1  N   UNL     1       7.750   6.491  16.281  0.00  0.00    +0.000 NA
ATOM      2  C   UNL     1       7.570   6.925  17.493  0.00  0.00    +0.000 C 
ENDROOT
BRANCH   2   3
ATOM      3  C   UNL     1       7.665   8.378  17.787  0.00  0.00    +0.000 C 
ATOM      4  C   UNL     1       8.747   8.861  18.416  0.00  0.00    +0.000 C 
BRANCH   4   5
ATOM      5  C   UNL     1       8.950  10.270  18.775  0.00  0.00    +0.000 A 
ATOM      6  C   UNL     1       9.385  10.557  20.075  0.00  0.00    +0.000 A 
ATOM      7  C   UNL     1       9.595  11.876  20.479  0.00  0.00    +0.000 A 
ATOM      8  C   UNL     1       9.386  12.922  19.581  0.00  0.00    +0.000 A 
ATOM      9  C   UNL     1       8.979  12.645  18.277  0.00  0.00    +0.000 A 
ATOM     10  C   UNL     1       8.766  11.325  17.873  0.00  0.00    +0.000 A 
ENDBRANCH   4   5
ENDBRANCH   2   3
BRANCH   1  11
ATOM     11  O   UNL     1       7.492   5.109  16.121  0.00  0.00    +0.000 OA
BRANCH  11  13
ATOM     12  O   UNL     1       5.343   5.812  14.999  0.00  0.00    +0.000 OA
ATOM     13  S   UNL     1       6.342   4.767  14.994  0.00  0.00    +0.000 S 
ATOM     14  O   UNL     1       5.942   3.373  15.099  0.00  0.00    +0.000 OA
BRANCH  13  15
ATOM     15  O   UNL     1       7.098   4.905  13.571  0.00  0.00    +0.000 OA
ATOM     16  H   UNL     1       6.407   4.930  12.881  0.00  0.00    +0.000 HD
ENDBRANCH  13  15
ENDBRANCH  11  13
ENDBRANCH   1  11
BRANCH   2  17
ATOM     17  S   UNL     1       7.042   5.942  18.835  0.00  0.00    +0.000 S 
BRANCH  17  18
ATOM     18  C   UNL     1       5.311   5.513  18.480  0.00  0.00    +0.000 C 
ATOM     19  O   UNL     1       4.392   6.601  18.640  0.00  0.00    +0.000 OA
ATOM     20  C   UNL     1       3.167   6.376  17.912  0.00  0.00    +0.000 C 
ATOM     21  C   UNL     1       2.447   5.122  18.435  0.00  0.00    +0.000 C 
ATOM     22  C   UNL     1       3.407   3.916  18.445  0.00  0.00    +0.000 C 
ATOM     23  C   UNL     1       4.739   4.252  19.165  0.00  0.00    +0.000 C 
BRANCH  21  24
ATOM     24  O   UNL     1       1.292   4.849  17.634  0.00  0.00    +0.000 OA
ATOM     25  H   UNL     1       0.572   4.541  18.211  0.00  0.00    +0.000 HD
ENDBRANCH  21  24
BRANCH  22  26
ATOM     26  O   UNL     1       2.774   2.763  19.011  0.00  0.00    +0.000 OA
ATOM     27  H   UNL     1       2.183   3.049  19.729  0.00  0.00    +0.000 HD
ENDBRANCH  22  26
BRANCH  23  28
ATOM     28  O   UNL     1       5.630   3.135  19.100  0.00  0.00    +0.000 OA
ATOM     29  H   UNL     1       5.932   3.020  18.183  0.00  0.00    +0.000 HD
ENDBRANCH  23  28
BRANCH  20  30
ATOM     30  C   UNL     1       2.252   7.607  18.011  0.00  0.00    +0.000 C 
BRANCH  30  31
ATOM     31  O   UNL     1       2.074   7.969  19.381  0.00  0.00    +0.000 OA
ATOM     32  H   UNL     1       2.760   8.629  19.588  0.00  0.00    +0.000 HD
ENDBRANCH  30  31
ENDBRANCH  20  30
ENDBRANCH  17  18
ENDBRANCH   2  17
TORSDOF 12
ENDMDL
MODEL 4
REMARK VINA RESULT:      -7.4      3.915      5.033
REMARK  Name = 
REMARK  12 active torsions:
REMARK  status: ('A' for Active; 'I' for Inactive)
REMARK    1  A    between atoms: S_2  and  O_4
REMARK    2  A    between atoms: S_2  and  O_5
REMARK    3  A    between atoms: O_5  and  N_6
REMARK    4  A    between atoms: C_7  and  C_8
REMARK    5  A    between atoms: C_7  and  S_16
REMARK    6  A    between atoms: C_9  and  C_10
REMARK    7  A    between atoms: S_16  and  C_17
REMARK    8  A    between atoms: C_19  and  C_20
REMARK    9  A    between atoms: C_20  and  O_21
REMARK   10  A    between atoms: C_22  and  O_23
REMARK   11  A    between atoms: C_24  and  O_25
REMARK   12  A    between atoms: C_26  and  O_27
REMARK                            x       y       z     vdW  Elec       q    Type
REMARK                         _______ _______ _______ _____ _____    ______ ____
ROOT
ATOM      1  N   UNL     1       4.761   6.503  16.189  0.00  0.00    +0.000 NA
ATOM      2  C   UNL     1       4.460   6.787  17.422  0.00  0.00    +0.000 C 
ENDROOT
BRANCH   2   3
ATOM      3  C   UNL     1       3.511   7.889  17.724  0.00  0.00    +0.000 C 
ATOM      4  C   UNL     1       2.529   7.697  18.618  0.00  0.00    +0.000 C 
BRANCH   4   5
ATOM      5  C   UNL     1       1.522   8.699  18.988  0.00  0.00    +0.000 A 
ATOM      6  C   UNL     1       0.902   9.415  17.956  0.00  0.00    +0.000 A 
ATOM      7  C   UNL     1      -0.062  10.382  18.242  0.00  0.00    +0.000 A 
ATOM      8  C   UNL     1      -0.426  10.633  19.565  0.00  0.00    +0.000 A 
ATOM      9  C   UNL     1       0.166   9.907  20.596  0.00  0.00    +0.000 A 
ATOM     10  C   UNL     1       1.133   8.941  20.311  0.00  0.00    +0.000 A 
ENDBRANCH   4   5
ENDBRANCH   2   3
BRANCH   1  11
ATOM     11  O   UNL     1       5.563   5.346  16.045  0.00  0.00    +0.000 OA
BRANCH  11  13
ATOM     12  O   UNL     1       7.498   6.895  16.525  0.00  0.00    +0.000 OA
ATOM     13  S   UNL     1       7.166   5.662  15.845  0.00  0.00    +0.000 S 
ATOM     14  O   UNL     1       7.541   5.471  14.454  0.00  0.00    +0.000 OA
BRANCH  13  15
ATOM     15  O   UNL     1       7.927   4.500  16.672  0.00  0.00    +0.000 OA
ATOM     16  H   UNL     1       7.833   3.674  16.159  0.00  0.00    +0.000 HD
ENDBRANCH  13  15
ENDBRANCH  11  13
ENDBRANCH   1  11
BRANCH   2  17
ATOM     17  S   UNL     1       4.958   5.852  18.809  0.00  0.00    +0.000 S 
BRANCH  17  18
ATOM     18  C   UNL     1       3.878   4.390  18.832  0.00  0.00    +0.000 C 
ATOM     19  O   UNL     1       3.043   4.296  19.994  0.00  0.00    +0.000 OA
ATOM     20  C   UNL     1       1.903   3.442  19.764  0.00  0.00    +0.000 C 
ATOM     21  C   UNL     1       2.355   2.009  19.438  0.00  0.00    +0.000 C 
ATOM     22  C   UNL     1       3.381   2.017  18.288  0.00  0.00    +0.000 C 
ATOM     23  C   UNL     1       4.533   3.019  18.557  0.00  0.00    +0.000 C 
BRANCH  21  24
ATOM     24  O   UNL     1       1.221   1.200  19.106  0.00  0.00    +0.000 OA
ATOM     25  H   UNL     1       1.527   0.406  18.632  0.00  0.00    +0.000 HD
ENDBRANCH  21  24
BRANCH  22  26
ATOM     26  O   UNL     1       3.874   0.697  18.034  0.00  0.00    +0.000 OA
ATOM     27  H   UNL     1       4.538   0.740  17.323  0.00  0.00    +0.000 HD
ENDBRANCH  22  26
BRANCH  23  28
ATOM     28  O   UNL     1       5.431   3.049  17.445  0.00  0.00    +0.000 OA
ATOM     29  H   UNL     1       5.986   2.250  17.459  0.00  0.00    +0.000 HD
ENDBRANCH  23  28
BRANCH  20  30
ATOM     30  C   UNL     1       0.971   3.452  20.986  0.00  0.00    +0.000 C 
BRANCH  30  31
ATOM     31  O   UNL     1       1.467   2.553  21.979  0.00  0.00    +0.000 OA
ATOM     32  H   UNL     1       0.934   2.698  22.781  0.00  0.00    +0.000 HD
ENDBRANCH  30  31
ENDBRANCH  20  30
ENDBRANCH  17  18
ENDBRANCH   2  17
TORSDOF 12
ENDMDL
MODEL 5
REMARK VINA RESULT:      -7.4      1.189      1.725
REMARK  Name = 
REMARK  12 active torsions:
REMARK  status: ('A' for Active; 'I' for Inactive)
REMARK    1  A    between atoms: S_2  and  O_4
REMARK    2  A    between atoms: S_2  and  O_5
REMARK    3  A    between atoms: O_5  and  N_6
REMARK    4  A    between atoms: C_7  and  C_8
REMARK    5  A    between atoms: C_7  and  S_16
REMARK    6  A    between atoms: C_9  and  C_10
REMARK    7  A    between atoms: S_16  and  C_17
REMARK    8  A    between atoms: C_19  and  C_20
REMARK    9  A    between atoms: C_20  and  O_21
REMARK   10  A    between atoms: C_22  and  O_23
REMARK   11  A    between atoms: C_24  and  O_25
REMARK   12  A    between atoms: C_26  and  O_27
REMARK                            x       y       z     vdW  Elec       q    Type
REMARK                         _______ _______ _______ _____ _____    ______ ____
ROOT
ATOM      1  N   UNL     1       7.170   6.976  16.758  0.00  0.00    +0.000 NA
ATOM      2  C   UNL     1       7.543   6.906  18.002  0.00  0.00    +0.000 C 
ENDROOT
BRANCH   2   3
ATOM      3  C   UNL     1       8.392   7.975  18.588  0.00  0.00    +0.000 C 
ATOM      4  C   UNL     1       8.300   9.230  18.122  0.00  0.00    +0.000 C 
BRANCH   4   5
ATOM      5  C   UNL     1       9.094  10.366  18.606  0.00  0.00    +0.000 A 
ATOM      6  C   UNL     1       9.360  10.440  19.980  0.00  0.00    +0.000 A 
ATOM      7  C   UNL     1      10.108  11.495  20.502  0.00  0.00    +0.000 A 
ATOM      8  C   UNL     1      10.611  12.481  19.654  0.00  0.00    +0.000 A 
ATOM      9  C   UNL     1      10.374  12.401  18.283  0.00  0.00    +0.000 A 
ATOM     10  C   UNL     1       9.624  11.347  17.759  0.00  0.00    +0.000 A 
ENDBRANCH   4   5
ENDBRANCH   2   3
BRANCH   1  11
ATOM     11  O   UNL     1       6.253   5.969  16.376  0.00  0.00    +0.000 OA
BRANCH  11  13
ATOM     12  O   UNL     1       7.770   5.403  14.439  0.00  0.00    +0.000 OA
ATOM     13  S   UNL     1       6.905   4.793  15.426  0.00  0.00    +0.000 S 
ATOM     14  O   UNL     1       5.874   3.856  15.014  0.00  0.00    +0.000 OA
BRANCH  13  15
ATOM     15  O   UNL     1       7.891   3.965  16.404  0.00  0.00    +0.000 OA
ATOM     16  H   UNL     1       8.482   4.614  16.832  0.00  0.00    +0.000 HD
ENDBRANCH  13  15
ENDBRANCH  11  13
ENDBRANCH   1  11
BRANCH   2  17
ATOM     17  S   UNL     1       6.984   5.711  19.144  0.00  0.00    +0.000 S 
BRANCH  17  18
ATOM     18  C   UNL     1       5.261   5.358  18.685  0.00  0.00    +0.000 C 
ATOM     19  O   UNL     1       4.369   6.468  18.856  0.00  0.00    +0.000 OA
ATOM     20  C   UNL     1       3.176   6.322  18.059  0.00  0.00    +0.000 C 
ATOM     21  C   UNL     1       2.391   5.068  18.482  0.00  0.00    +0.000 C 
ATOM     22  C   UNL     1       3.312   3.831  18.476  0.00  0.00    +0.000 C 
ATOM     23  C   UNL     1       4.615   4.085  19.275  0.00  0.00    +0.000 C 
BRANCH  21  24
ATOM     24  O   UNL     1       1.270   4.874  17.613  0.00  0.00    +0.000 OA
ATOM     25  H   UNL     1       1.080   3.922  17.548  0.00  0.00    +0.000 HD
ENDBRANCH  21  24
BRANCH  22  26
ATOM     26  O   UNL     1       2.615   2.674  18.951  0.00  0.00    +0.000 OA
ATOM     27  H   UNL     1       2.308   2.842  19.859  0.00  0.00    +0.000 HD
ENDBRANCH  22  26
BRANCH  23  28
ATOM     28  O   UNL     1       5.473   2.944  19.196  0.00  0.00    +0.000 OA
ATOM     29  H   UNL     1       5.566   2.677  18.266  0.00  0.00    +0.000 HD
ENDBRANCH  23  28
BRANCH  20  30
ATOM     30  C   UNL     1       2.295   7.576  18.177  0.00  0.00    +0.000 C 
BRANCH  30  31
ATOM     31  O   UNL     1       2.755   8.576  17.266  0.00  0.00    +0.000 OA
ATOM     32  H   UNL     1       3.303   8.121  16.602  0.00  0.00    +0.000 HD
ENDBRANCH  30  31
ENDBRANCH  20  30
ENDBRANCH  17  18
ENDBRANCH   2  17
TORSDOF 12
ENDMDL
MODEL 6
REMARK VINA RESULT:      -7.4      1.620      2.831
REMARK  Name = 
REMARK  12 active torsions:
REMARK  status: ('A' for Active; 'I' for Inactive)
REMARK    1  A    between atoms: S_2  and  O_4
REMARK    2  A    between atoms: S_2  and  O_5
REMARK    3  A    between atoms: O_5  and  N_6
REMARK    4  A    between atoms: C_7  and  C_8
REMARK    5  A    between atoms: C_7  and  S_16
REMARK    6  A    between atoms: C_9  and  C_10
REMARK    7  A    between atoms: S_16  and  C_17
REMARK    8  A    between atoms: C_19  and  C_20
REMARK    9  A    between atoms: C_20  and  O_21
REMARK   10  A    between atoms: C_22  and  O_23
REMARK   11  A    between atoms: C_24  and  O_25
REMARK   12  A    between atoms: C_26  and  O_27
REMARK                            x       y       z     vdW  Elec       q    Type
REMARK                         _______ _______ _______ _____ _____    ______ ____
ROOT
ATOM      1  N   UNL     1       7.534   5.224  16.913  0.00  0.00    +0.000 NA
ATOM      2  C   UNL     1       6.887   6.217  17.447  0.00  0.00    +0.000 C 
ENDROOT
BRANCH   2   3
ATOM      3  C   UNL     1       7.626   7.302  18.143  0.00  0.00    +0.000 C 
ATOM      4  C   UNL     1       7.724   8.513  17.575  0.00  0.00    +0.000 C 
BRANCH   4   5
ATOM      5  C   UNL     1       8.439   9.657  18.154  0.00  0.00    +0.000 A 
ATOM      6  C   UNL     1       8.319  10.896  17.512  0.00  0.00    +0.000 A 
ATOM      7  C   UNL     1       8.975  12.022  18.012  0.00  0.00    +0.000 A 
ATOM      8  C   UNL     1       9.747  11.922  19.170  0.00  0.00    +0.000 A 
ATOM      9  C   UNL     1       9.850  10.700  19.830  0.00  0.00    +0.000 A 
ATOM     10  C   UNL     1       9.196   9.572  19.329  0.00  0.00    +0.000 A 
ENDBRANCH   4   5
ENDBRANCH   2   3
BRANCH   1  11
ATOM     11  O   UNL     1       6.719   4.343  16.165  0.00  0.00    +0.000 OA
BRANCH  11  13
ATOM     12  O   UNL     1       7.869   5.304  14.133  0.00  0.00    +0.000 OA
ATOM     13  S   UNL     1       6.620   4.716  14.564  0.00  0.00    +0.000 S 
ATOM     14  O   UNL     1       5.362   5.388  14.287  0.00  0.00    +0.000 OA
BRANCH  13  15
ATOM     15  O   UNL     1       6.535   3.289  13.808  0.00  0.00    +0.000 OA
ATOM     16  H   UNL     1       5.595   3.027  13.794  0.00  0.00    +0.000 HD
ENDBRANCH  13  15
ENDBRANCH  11  13
ENDBRANCH   1  11
BRANCH   2  17
ATOM     17  S   UNL     1       5.173   6.497  17.275  0.00  0.00    +0.000 S 
BRANCH  17  18
ATOM     18  C   UNL     1       4.378   5.490  18.561  0.00  0.00    +0.000 C 
ATOM     19  O   UNL     1       4.445   4.077  18.326  0.00  0.00    +0.000 OA
ATOM     20  C   UNL     1       4.256   3.324  19.542  0.00  0.00    +0.000 C 
ATOM     21  C   UNL     1       2.865   3.597  20.139  0.00  0.00    +0.000 C 
ATOM     22  C   UNL     1       2.633   5.114  20.292  0.00  0.00    +0.000 C 
ATOM     23  C   UNL     1       2.940   5.873  18.975  0.00  0.00    +0.000 C 
BRANCH  21  24
ATOM     24  O   UNL     1       2.732   2.931  21.399  0.00  0.00    +0.000 OA
ATOM     25  H   UNL     1       3.588   2.534  21.639  0.00  0.00    +0.000 HD
ENDBRANCH  21  24
BRANCH  22  26
ATOM     26  O   UNL     1       1.310   5.383  20.764  0.00  0.00    +0.000 OA
ATOM     27  H   UNL     1       0.821   5.865  20.074  0.00  0.00    +0.000 HD
ENDBRANCH  22  26
BRANCH  23  28
ATOM     28  O   UNL     1       2.778   7.281  19.169  0.00  0.00    +0.000 OA
ATOM     29  H   UNL     1       2.075   7.435  19.824  0.00  0.00    +0.000 HD
ENDBRANCH  23  28
BRANCH  20  30
ATOM     30  C   UNL     1       4.446   1.822  19.278  0.00  0.00    +0.000 C 
BRANCH  30  31
ATOM     31  O   UNL     1       5.307   1.261  20.271  0.00  0.00    +0.000 OA
ATOM     32  H   UNL     1       5.606   1.999  20.832  0.00  0.00    +0.000 HD
ENDBRANCH  30  31
ENDBRANCH  20  30
ENDBRANCH  17  18
ENDBRANCH   2  17
TORSDOF 12
ENDMDL
MODEL 7
REMARK VINA RESULT:      -7.4      0.538      1.330
REMARK  Name = 
REMARK  12 active torsions:
REMARK  status: ('A' for Active; 'I' for Inactive)
REMARK    1  A    between atoms: S_2  and  O_4
REMARK    2  A    between atoms: S_2  and  O_5
REMARK    3  A    between atoms: O_5  and  N_6
REMARK    4  A    between atoms: C_7  and  C_8
REMARK    5  A    between atoms: C_7  and  S_16
REMARK    6  A    between atoms: C_9  and  C_10
REMARK    7  A    between atoms: S_16  and  C_17
REMARK    8  A    between atoms: C_19  and  C_20
REMARK    9  A    between atoms: C_20  and  O_21
REMARK   10  A    between atoms: C_22  and  O_23
REMARK   11  A    between atoms: C_24  and  O_25
REMARK   12  A    between atoms: C_26  and  O_27
REMARK                            x       y       z     vdW  Elec       q    Type
REMARK                         _______ _______ _______ _____ _____    ______ ____
ROOT
ATOM      1  N   UNL     1       7.799   6.568  16.219  0.00  0.00    +0.000 NA
ATOM      2  C   UNL     1       7.583   6.926  17.450  0.00  0.00    +0.000 C 
ENDROOT
BRANCH   2   3
ATOM      3  C   UNL     1       7.664   8.359  17.835  0.00  0.00    +0.000 C 
ATOM      4  C   UNL     1       8.793   8.841  18.376  0.00  0.00    +0.000 C 
BRANCH   4   5
ATOM      5  C   UNL     1       8.988  10.230  18.811  0.00  0.00    +0.000 A 
ATOM      6  C   UNL     1       9.381  10.450  20.137  0.00  0.00    +0.000 A 
ATOM      7  C   UNL     1       9.583  11.746  20.613  0.00  0.00    +0.000 A 
ATOM      8  C   UNL     1       9.407  12.836  19.761  0.00  0.00    +0.000 A 
ATOM      9  C   UNL     1       9.042  12.626  18.433  0.00  0.00    +0.000 A 
ATOM     10  C   UNL     1       8.838  11.329  17.957  0.00  0.00    +0.000 A 
ENDBRANCH   4   5
ENDBRANCH   2   3
BRANCH   1  11
ATOM     11  O   UNL     1       7.551   5.198  15.968  0.00  0.00    +0.000 OA
BRANCH  11  13
ATOM     12  O   UNL     1       7.424   5.238  13.447  0.00  0.00    +0.000 OA
ATOM     13  S   UNL     1       6.646   4.915  14.622  0.00  0.00    +0.000 S 
ATOM     14  O   UNL     1       5.314   5.472  14.792  0.00  0.00    +0.000 OA
BRANCH  13  15
ATOM     15  O   UNL     1       6.453   3.310  14.579  0.00  0.00    +0.000 OA
ATOM     16  H   UNL     1       5.663   3.102  15.114  0.00  0.00    +0.000 HD
ENDBRANCH  13  15
ENDBRANCH  11  13
ENDBRANCH   1  11
BRANCH   2  17
ATOM     17  S   UNL     1       7.024   5.861  18.714  0.00  0.00    +0.000 S 
BRANCH  17  18
ATOM     18  C   UNL     1       5.255   5.596  18.388  0.00  0.00    +0.000 C 
ATOM     19  O   UNL     1       4.384   6.205  19.351  0.00  0.00    +0.000 OA
ATOM     20  C   UNL     1       3.054   6.392  18.824  0.00  0.00    +0.000 C 
ATOM     21  C   UNL     1       2.419   5.039  18.460  0.00  0.00    +0.000 C 
ATOM     22  C   UNL     1       3.358   4.235  17.539  0.00  0.00    +0.000 C 
ATOM     23  C   UNL     1       4.792   4.147  18.121  0.00  0.00    +0.000 C 
BRANCH  21  24
ATOM     24  O   UNL     1       1.146   5.245  17.839  0.00  0.00    +0.000 OA
ATOM     25  H   UNL     1       1.102   4.714  17.024  0.00  0.00    +0.000 HD
ENDBRANCH  21  24
BRANCH  22  26
ATOM     26  O   UNL     1       2.816   2.939  17.264  0.00  0.00    +0.000 OA
ATOM     27  H   UNL     1       3.197   2.608  16.432  0.00  0.00    +0.000 HD
ENDBRANCH  22  26
BRANCH  23  28
ATOM     28  O   UNL     1       5.650   3.452  17.213  0.00  0.00    +0.000 OA
ATOM     29  H   UNL     1       5.110   3.010  16.536  0.00  0.00    +0.000 HD
ENDBRANCH  23  28
BRANCH  20  30
ATOM     30  C   UNL     1       2.178   7.147  19.836  0.00  0.00    +0.000 C 
BRANCH  30  31
ATOM     31  O   UNL     1       1.580   8.282  19.206  0.00  0.00    +0.000 OA
ATOM     32  H   UNL     1       2.100   8.463  18.402  0.00  0.00    +0.000 HD
ENDBRANCH  30  31
ENDBRANCH  20  30
ENDBRANCH  17  18
ENDBRANCH   2  17
TORSDOF 12
ENDMDL
MODEL 8
REMARK VINA RESULT:      -7.3      1.051      1.359
REMARK  Name = 
REMARK  12 active torsions:
REMARK  status: ('A' for Active; 'I' for Inactive)
REMARK    1  A    between atoms: S_2  and  O_4
REMARK    2  A    between atoms: S_2  and  O_5
REMARK    3  A    between atoms: O_5  and  N_6
REMARK    4  A    between atoms: C_7  and  C_8
REMARK    5  A    between atoms: C_7  and  S_16
REMARK    6  A    between atoms: C_9  and  C_10
REMARK    7  A    between atoms: S_16  and  C_17
REMARK    8  A    between atoms: C_19  and  C_20
REMARK    9  A    between atoms: C_20  and  O_21
REMARK   10  A    between atoms: C_22  and  O_23
REMARK   11  A    between atoms: C_24  and  O_25
REMARK   12  A    between atoms: C_26  and  O_27
REMARK                            x       y       z     vdW  Elec       q    Type
REMARK                         _______ _______ _______ _____ _____    ______ ____
ROOT
ATOM      1  N   UNL     1       7.118   7.087  16.637  0.00  0.00    +0.000 NA
ATOM      2  C   UNL     1       7.483   6.965  17.879  0.00  0.00    +0.000 C 
ENDROOT
BRANCH   2   3
ATOM      3  C   UNL     1       8.217   8.068  18.552  0.00  0.00    +0.000 C 
ATOM      4  C   UNL     1       8.272   9.279  17.979  0.00  0.00    +0.000 C 
BRANCH   4   5
ATOM      5  C   UNL     1       8.977  10.441  18.536  0.00  0.00    +0.000 A 
ATOM      6  C   UNL     1       8.968  11.629  17.794  0.00  0.00    +0.000 A 
ATOM      7  C   UNL     1       9.621  12.767  18.268  0.00  0.00    +0.000 A 
ATOM      8  C   UNL     1      10.278  12.733  19.497  0.00  0.00    +0.000 A 
ATOM      9  C   UNL     1      10.270  11.563  20.255  0.00  0.00    +0.000 A 
ATOM     10  C   UNL     1       9.619  10.423  19.780  0.00  0.00    +0.000 A 
ENDBRANCH   4   5
ENDBRANCH   2   3
BRANCH   1  11
ATOM     11  O   UNL     1       6.309   6.024  16.170  0.00  0.00    +0.000 OA
BRANCH  11  13
ATOM     12  O   UNL     1       7.857   4.031  16.180  0.00  0.00    +0.000 OA
ATOM     13  S   UNL     1       7.123   4.899  15.287  0.00  0.00    +0.000 S 
ATOM     14  O   UNL     1       7.800   5.538  14.170  0.00  0.00    +0.000 OA
BRANCH  13  15
ATOM     15  O   UNL     1       5.974   3.968  14.634  0.00  0.00    +0.000 OA
ATOM     16  H   UNL     1       5.735   3.297  15.302  0.00  0.00    +0.000 HD
ENDBRANCH  13  15
ENDBRANCH  11  13
ENDBRANCH   1  11
BRANCH   2  17
ATOM     17  S   UNL     1       7.032   5.644  18.925  0.00  0.00    +0.000 S 
BRANCH  17  18
ATOM     18  C   UNL     1       5.285   5.301  18.562  0.00  0.00    +0.000 C 
ATOM     19  O   UNL     1       4.424   6.441  18.690  0.00  0.00    +0.000 OA
ATOM     20  C   UNL     1       3.196   6.267  17.954  0.00  0.00    +0.000 C 
ATOM     21  C   UNL     1       2.404   5.065  18.495  0.00  0.00    +0.000 C 
ATOM     22  C   UNL     1       3.297   3.809  18.540  0.00  0.00    +0.000 C 
ATOM     23  C   UNL     1       4.638   4.088  19.267  0.00  0.00    +0.000 C 
BRANCH  21  24
ATOM     24  O   UNL     1       1.244   4.838  17.688  0.00  0.00    +0.000 OA
ATOM     25  H   UNL     1       1.355   4.002  17.201  0.00  0.00    +0.000 HD
ENDBRANCH  21  24
BRANCH  22  26
ATOM     26  O   UNL     1       2.597   2.705  19.123  0.00  0.00    +0.000 OA
ATOM     27  H   UNL     1       2.839   1.891  18.647  0.00  0.00    +0.000 HD
ENDBRANCH  22  26
BRANCH  23  28
ATOM     28  O   UNL     1       5.468   2.924  19.235  0.00  0.00    +0.000 OA
ATOM     29  H   UNL     1       5.900   2.815  20.099  0.00  0.00    +0.000 HD
ENDBRANCH  23  28
BRANCH  20  30
ATOM     30  C   UNL     1       2.348   7.547  18.017  0.00  0.00    +0.000 C 
BRANCH  30  31
ATOM     31  O   UNL     1       2.094   7.892  19.380  0.00  0.00    +0.000 OA
ATOM     32  H   UNL     1       1.948   7.056  19.859  0.00  0.00    +0.000 HD
ENDBRANCH  30  31
ENDBRANCH  20  30
ENDBRANCH  17  18
ENDBRANCH   2  17
TORSDOF 12
ENDMDL
MODEL 9
REMARK VINA RESULT:      -7.3      1.559      2.117
REMARK  Name = 
REMARK  12 active torsions:
REMARK  status: ('A' for Active; 'I' for Inactive)
REMARK    1  A    between atoms: S_2  and  O_4
REMARK    2  A    between atoms: S_2  and  O_5
REMARK    3  A    between atoms: O_5  and  N_6
REMARK    4  A    between atoms: C_7  and  C_8
REMARK    5  A    between atoms: C_7  and  S_16
REMARK    6  A    between atoms: C_9  and  C_10
REMARK    7  A    between atoms: S_16  and  C_17
REMARK    8  A    between atoms: C_19  and  C_20
REMARK    9  A    between atoms: C_20  and  O_21
REMARK   10  A    between atoms: C_22  and  O_23
REMARK   11  A    between atoms: C_24  and  O_25
REMARK   12  A    between atoms: C_26  and  O_27
REMARK                            x       y       z     vdW  Elec       q    Type
REMARK                         _______ _______ _______ _____ _____    ______ ____
ROOT
ATOM      1  N   UNL     1       7.729   5.516  16.812  0.00  0.00    +0.000 NA
ATOM      2  C   UNL     1       7.153   6.488  17.456  0.00  0.00    +0.000 C 
ENDROOT
BRANCH   2   3
ATOM      3  C   UNL     1       7.972   7.562  18.075  0.00  0.00    +0.000 C 
ATOM      4  C   UNL     1       7.767   8.841  17.727  0.00  0.00    +0.000 C 
BRANCH   4   5
ATOM      5  C   UNL     1       8.520   9.986  18.254  0.00  0.00    +0.000 A 
ATOM      6  C   UNL     1       8.399  11.212  17.587  0.00  0.00    +0.000 A 
ATOM      7  C   UNL     1       9.090  12.337  18.037  0.00  0.00    +0.000 A 
ATOM      8  C   UNL     1       9.899  12.251  19.170  0.00  0.00    +0.000 A 
ATOM      9  C   UNL     1      10.005  11.043  19.856  0.00  0.00    +0.000 A 
ATOM     10  C   UNL     1       9.316   9.915  19.404  0.00  0.00    +0.000 A 
ENDBRANCH   4   5
ENDBRANCH   2   3
BRANCH   1  11
ATOM     11  O   UNL     1       6.826   4.646  16.158  0.00  0.00    +0.000 OA
BRANCH  11  13
ATOM     12  O   UNL     1       6.320   3.626  13.905  0.00  0.00    +0.000 OA
ATOM     13  S   UNL     1       6.752   4.858  14.527  0.00  0.00    +0.000 S 
ATOM     14  O   UNL     1       7.951   5.532  14.058  0.00  0.00    +0.000 OA
BRANCH  13  15
ATOM     15  O   UNL     1       5.538   5.901  14.296  0.00  0.00    +0.000 OA
ATOM     16  H   UNL     1       5.685   6.651  14.904  0.00  0.00    +0.000 HD
ENDBRANCH  13  15
ENDBRANCH  11  13
ENDBRANCH   1  11
BRANCH   2  17
ATOM     17  S   UNL     1       5.430   6.753  17.525  0.00  0.00    +0.000 S 
BRANCH  17  18
ATOM     18  C   UNL     1       4.698   5.138  17.924  0.00  0.00    +0.000 C 
ATOM     19  O   UNL     1       3.264   5.131  17.938  0.00  0.00    +0.000 OA
ATOM     20  C   UNL     1       2.736   3.799  17.774  0.00  0.00    +0.000 C 
ATOM     21  C   UNL     1       3.184   2.891  18.932  0.00  0.00    +0.000 C 
ATOM     22  C   UNL     1       4.716   2.947  19.098  0.00  0.00    +0.000 C 
ATOM     23  C   UNL     1       5.228   4.409  19.178  0.00  0.00    +0.000 C 
BRANCH  21  24
ATOM     24  O   UNL     1       2.744   1.548  18.701  0.00  0.00    +0.000 OA
ATOM     25  H   UNL     1       3.455   0.934  18.958  0.00  0.00    +0.000 HD
ENDBRANCH  21  24
BRANCH  22  26
ATOM     26  O   UNL     1       5.136   2.175  20.226  0.00  0.00    +0.000 OA
ATOM     27  H   UNL     1       5.197   2.758  21.003  0.00  0.00    +0.000 HD
ENDBRANCH  22  26
BRANCH  23  28
ATOM     28  O   UNL     1       6.655   4.427  19.266  0.00  0.00    +0.000 OA
ATOM     29  H   UNL     1       7.018   4.882  18.487  0.00  0.00    +0.000 HD
ENDBRANCH  23  28
BRANCH  20  30
ATOM     30  C   UNL     1       1.202   3.839  17.680  0.00  0.00    +0.000 C 
BRANCH  30  31
ATOM     31  O   UNL     1       0.630   3.386  18.909  0.00  0.00    +0.000 OA
ATOM     32  H   UNL     1       1.097   3.853  19.625  0.00  0.00    +0.000 HD
ENDBRANCH  30  31
ENDBRANCH  20  30
ENDBRANCH  17  18
ENDBRANCH   2  17
TORSDOF 12
ENDMDL
