MODEL 1
REMARK VINA RESULT:      -7.1      0.000      0.000
REMARK  Name = 
REMARK  8 active torsions:
REMARK  status: ('A' for Active; 'I' for Inactive)
REMARK    1  A    between atoms: C_1  and  O_2
REMARK    2  A    between atoms: O_2  and  C_3
REMARK    3  A    between atoms: C_8  and  N_9
REMARK    4  A    between atoms: C_10  and  C_11
REMARK    5  A    between atoms: C_13  and  C_14
REMARK    6  A    between atoms: C_25  and  S_26
REMARK    7  A    between atoms: S_26  and  C_27
REMARK    8  A    between atoms: C_30  and  C_31
REMARK                            x       y       z     vdW  Elec       q    Type
REMARK                         _______ _______ _______ _____ _____    ______ ____
ROOT
ATOM      1  C   UNL     1       1.582   9.043  19.745  0.00  0.00    +0.000 C 
ATOM      2  C   UNL     1       0.526   9.852  19.509  0.00  0.00    +0.000 C 
ATOM      3  C   UNL     1       0.094  10.831  20.625  0.00  0.00    +0.000 C 
ATOM      4  N   UNL     1       0.703  10.914  21.765  0.00  0.00    +0.000 NA
ATOM      5  N   UNL     1      -1.014  11.627  20.374  0.00  0.00    +0.000 N 
ATOM      6  C   UNL     1      -1.634  11.475  19.157  0.00  0.00    +0.000 C 
ATOM      7  N   UNL     1      -1.373  10.695  18.171  0.00  0.00    +0.000 NA
ATOM      8  C   UNL     1      -0.339   9.800  18.268  0.00  0.00    +0.000 C 
ATOM      9  O   UNL     1      -0.174   8.980  17.375  0.00  0.00    +0.000 OA
ATOM     10  S   UNL     1      -3.011  12.573  19.068  0.00  0.00    +0.000 S 
ATOM     11  N   UNL     1      -2.748  13.196  20.618  0.00  0.00    +0.000 NA
ATOM     12  C   UNL     1      -1.682  12.618  21.124  0.00  0.00    +0.000 C 
ATOM     13  H   UNL     1       1.577  10.400  21.867  0.00  0.00    +0.000 HD
ENDROOT
BRANCH   1  18
ATOM     14  N   UNL     1       3.023   5.947  18.413  0.00  0.00    +0.000 N 
ATOM     15  C   UNL     1       3.577   6.896  17.550  0.00  0.00    +0.000 A 
ATOM     16  C   UNL     1       4.425   6.638  16.349  0.00  0.00    +0.000 C 
ATOM     17  C   UNL     1       3.179   8.153  17.957  0.00  0.00    +0.000 A 
ATOM     18  C   UNL     1       2.248   8.016  18.992  0.00  0.00    +0.000 A 
ATOM     19  C   UNL     1       2.155   6.654  19.283  0.00  0.00    +0.000 A 
ATOM     20  C   UNL     1       1.375   6.004  20.392  0.00  0.00    +0.000 C 
BRANCH  14  26
ATOM     21  C   UNL     1       4.385   3.942  19.078  0.00  0.00    +0.000 A 
ATOM     22  C   UNL     1       4.590   2.553  18.994  0.00  0.00    +0.000 A 
ATOM     23  C   UNL     1       3.680   1.727  18.336  0.00  0.00    +0.000 A 
ATOM     24  C   UNL     1       2.563   2.279  17.732  0.00  0.00    +0.000 A 
ATOM     25  C   UNL     1       2.381   3.664  17.746  0.00  0.00    +0.000 A 
ATOM     26  C   UNL     1       3.274   4.520  18.419  0.00  0.00    +0.000 A 
BRANCH  21  28
ATOM     27  C   UNL     1       6.363   5.302  19.276  0.00  0.00    +0.000 C 
ATOM     28  O   UNL     1       5.179   4.755  19.840  0.00  0.00    +0.000 OA
ENDBRANCH  21  28
ENDBRANCH  14  26
ENDBRANCH   1  18
BRANCH  12  29
ATOM     29  S   UNL     1      -1.176  13.088  22.758  0.00  0.00    +0.000 S 
ATOM     30  C   UNL     1      -2.322  14.384  23.181  0.00  0.00    +0.000 C 
ATOM     31  O   UNL     1      -1.278  11.953  23.643  0.00  0.00    +0.000 OA
ATOM     32  O   UNL     1       0.119  13.735  22.612  0.00  0.00    +0.000 OA
ENDBRANCH  12  29
TORSDOF 4
ENDMDL
MODEL 2
REMARK VINA RESULT:      -7.0      3.756      9.305
REMARK  Name = 
REMARK  8 active torsions:
REMARK  status: ('A' for Active; 'I' for Inactive)
REMARK    1  A    between atoms: C_1  and  O_2
REMARK    2  A    between atoms: O_2  and  C_3
REMARK    3  A    between atoms: C_8  and  N_9
REMARK    4  A    between atoms: C_10  and  C_11
REMARK    5  A    between atoms: C_13  and  C_14
REMARK    6  A    between atoms: C_25  and  S_26
REMARK    7  A    between atoms: S_26  and  C_27
REMARK    8  A    between atoms: C_30  and  C_31
REMARK                            x       y       z     vdW  Elec       q    Type
REMARK                         _______ _______ _______ _____ _____    ______ ____
ROOT
ATOM      1  C   UNL     1       2.352   8.159  19.316  0.00  0.00    +0.000 C 
ATOM      2  C   UNL     1       2.623   6.853  19.103  0.00  0.00    +0.000 C 
ATOM      3  C   UNL     1       3.670   6.492  18.024  0.00  0.00    +0.000 C 
ATOM      4  N   UNL     1       4.300   7.383  17.327  0.00  0.00    +0.000 NA
ATOM      5  N   UNL     1       3.907   5.144  17.798  0.00  0.00    +0.000 N 
ATOM      6  C   UNL     1       3.188   4.245  18.551  0.00  0.00    +0.000 C 
ATOM      7  N   UNL     1       2.296   4.429  19.455  0.00  0.00    +0.000 NA
ATOM      8  C   UNL     1       1.900   5.703  19.770  0.00  0.00    +0.000 C 
ATOM      9  O   UNL     1       0.965   5.863  20.543  0.00  0.00    +0.000 OA
ATOM     10  S   UNL     1       3.645   2.607  18.087  0.00  0.00    +0.000 S 
ATOM     11  N   UNL     1       4.753   3.132  16.922  0.00  0.00    +0.000 NA
ATOM     12  C   UNL     1       4.771   4.447  16.928  0.00  0.00    +0.000 C 
ATOM     13  H   UNL     1       4.186   8.358  17.600  0.00  0.00    +0.000 HD
ENDROOT
BRANCH   1  18
ATOM     14  N   UNL     1       0.073  10.521  20.949  0.00  0.00    +0.000 N 
ATOM     15  C   UNL     1       0.278   9.590  21.972  0.00  0.00    +0.000 A 
ATOM     16  C   UNL     1      -0.384   9.559  23.309  0.00  0.00    +0.000 C 
ATOM     17  C   UNL     1       1.182   8.644  21.538  0.00  0.00    +0.000 A 
ATOM     18  C   UNL     1       1.454   8.870  20.184  0.00  0.00    +0.000 A 
ATOM     19  C   UNL     1       0.777  10.034  19.818  0.00  0.00    +0.000 A 
ATOM     20  C   UNL     1       0.840  10.757  18.502  0.00  0.00    +0.000 C 
BRANCH  14  26
ATOM     21  C   UNL     1      -0.162  12.976  21.434  0.00  0.00    +0.000 A 
ATOM     22  C   UNL     1      -0.997  14.103  21.527  0.00  0.00    +0.000 A 
ATOM     23  C   UNL     1      -2.337  14.041  21.149  0.00  0.00    +0.000 A 
ATOM     24  C   UNL     1      -2.869  12.845  20.693  0.00  0.00    +0.000 A 
ATOM     25  C   UNL     1      -2.070  11.700  20.661  0.00  0.00    +0.000 A 
ATOM     26  C   UNL     1      -0.709  11.738  21.020  0.00  0.00    +0.000 A 
BRANCH  21  28
ATOM     27  C   UNL     1       2.029  13.627  20.671  0.00  0.00    +0.000 C 
ATOM     28  O   UNL     1       1.187  13.043  21.656  0.00  0.00    +0.000 OA
ENDBRANCH  21  28
ENDBRANCH  14  26
ENDBRANCH   1  18
BRANCH  12  29
ATOM     29  S   UNL     1       5.855   5.270  15.790  0.00  0.00    +0.000 S 
ATOM     30  C   UNL     1       6.549   3.929  14.847  0.00  0.00    +0.000 C 
ATOM     31  O   UNL     1       5.095   6.183  14.971  0.00  0.00    +0.000 OA
ATOM     32  O   UNL     1       6.950   5.803  16.586  0.00  0.00    +0.000 OA
ENDBRANCH  12  29
TORSDOF 4
ENDMDL
MODEL 3
REMARK VINA RESULT:      -6.9      3.268      9.163
REMARK  Name = 
REMARK  8 active torsions:
REMARK  status: ('A' for Active; 'I' for Inactive)
REMARK    1  A    between atoms: C_1  and  O_2
REMARK    2  A    between atoms: O_2  and  C_3
REMARK    3  A    between atoms: C_8  and  N_9
REMARK    4  A    between atoms: C_10  and  C_11
REMARK    5  A    between atoms: C_13  and  C_14
REMARK    6  A    between atoms: C_25  and  S_26
REMARK    7  A    between atoms: S_26  and  C_27
REMARK    8  A    between atoms: C_30  and  C_31
REMARK                            x       y       z     vdW  Elec       q    Type
REMARK                         _______ _______ _______ _____ _____    ______ ____
ROOT
ATOM      1  C   UNL     1       0.653   8.339  20.378  0.00  0.00    +0.000 C 
ATOM      2  C   UNL     1       1.564   7.777  19.554  0.00  0.00    +0.000 C 
ATOM      3  C   UNL     1       1.954   6.302  19.794  0.00  0.00    +0.000 C 
ATOM      4  N   UNL     1       1.442   5.582  20.741  0.00  0.00    +0.000 NA
ATOM      5  N   UNL     1       2.916   5.757  18.957  0.00  0.00    +0.000 N 
ATOM      6  C   UNL     1       3.443   6.578  17.988  0.00  0.00    +0.000 C 
ATOM      7  N   UNL     1       3.206   7.808  17.706  0.00  0.00    +0.000 NA
ATOM      8  C   UNL     1       2.316   8.519  18.469  0.00  0.00    +0.000 C 
ATOM      9  O   UNL     1       2.187   9.720  18.271  0.00  0.00    +0.000 OA
ATOM     10  S   UNL     1       4.644   5.680  17.059  0.00  0.00    +0.000 S 
ATOM     11  N   UNL     1       4.435   4.264  17.960  0.00  0.00    +0.000 NA
ATOM     12  C   UNL     1       3.506   4.479  18.864  0.00  0.00    +0.000 C 
ATOM     13  H   UNL     1       0.659   5.978  21.259  0.00  0.00    +0.000 HD
ENDROOT
BRANCH   1  18
ATOM     14  N   UNL     1      -0.907  11.483  21.434  0.00  0.00    +0.000 N 
ATOM     15  C   UNL     1      -0.902  11.637  20.045  0.00  0.00    +0.000 A 
ATOM     16  C   UNL     1      -1.322  12.840  19.268  0.00  0.00    +0.000 C 
ATOM     17  C   UNL     1      -0.394  10.489  19.473  0.00  0.00    +0.000 A 
ATOM     18  C   UNL     1       0.070   9.648  20.490  0.00  0.00    +0.000 A 
ATOM     19  C   UNL     1      -0.253  10.255  21.705  0.00  0.00    +0.000 A 
ATOM     20  C   UNL     1      -0.068   9.696  23.087  0.00  0.00    +0.000 C 
BRANCH  14  26
ATOM     21  C   UNL     1      -0.742  13.507  22.915  0.00  0.00    +0.000 A 
ATOM     22  C   UNL     1      -1.329  14.320  23.902  0.00  0.00    +0.000 A 
ATOM     23  C   UNL     1      -2.634  14.097  24.338  0.00  0.00    +0.000 A 
ATOM     24  C   UNL     1      -3.364  13.044  23.811  0.00  0.00    +0.000 A 
ATOM     25  C   UNL     1      -2.771  12.185  22.883  0.00  0.00    +0.000 A 
ATOM     26  C   UNL     1      -1.462  12.398  22.411  0.00  0.00    +0.000 A 
BRANCH  21  28
ATOM     27  C   UNL     1       0.661  15.016  21.666  0.00  0.00    +0.000 C 
ATOM     28  O   UNL     1       0.478  13.790  22.363  0.00  0.00    +0.000 OA
ENDBRANCH  21  28
ENDBRANCH  14  26
ENDBRANCH   1  18
BRANCH  12  29
ATOM     29  S   UNL     1       3.086   3.148  19.959  0.00  0.00    +0.000 S 
ATOM     30  C   UNL     1       4.207   1.853  19.473  0.00  0.00    +0.000 C 
ATOM     31  O   UNL     1       3.285   3.562  21.327  0.00  0.00    +0.000 OA
ATOM     32  O   UNL     1       1.762   2.696  19.559  0.00  0.00    +0.000 OA
ENDBRANCH  12  29
TORSDOF 4
ENDMDL
MODEL 4
REMARK VINA RESULT:      -6.9      2.160      3.264
REMARK  Name = 
REMARK  8 active torsions:
REMARK  status: ('A' for Active; 'I' for Inactive)
REMARK    1  A    between atoms: C_1  and  O_2
REMARK    2  A    between atoms: O_2  and  C_3
REMARK    3  A    between atoms: C_8  and  N_9
REMARK    4  A    between atoms: C_10  and  C_11
REMARK    5  A    between atoms: C_13  and  C_14
REMARK    6  A    between atoms: C_25  and  S_26
REMARK    7  A    between atoms: S_26  and  C_27
REMARK    8  A    between atoms: C_30  and  C_31
REMARK                            x       y       z     vdW  Elec       q    Type
REMARK                         _______ _______ _______ _____ _____    ______ ____
ROOT
ATOM      1  C   UNL     1       1.753   8.433  18.497  0.00  0.00    +0.000 C 
ATOM      2  C   UNL     1       1.105   8.931  19.574  0.00  0.00    +0.000 C 
ATOM      3  C   UNL     1       0.588  10.386  19.504  0.00  0.00    +0.000 C 
ATOM      4  N   UNL     1       0.740  11.139  18.462  0.00  0.00    +0.000 NA
ATOM      5  N   UNL     1      -0.043  10.887  20.632  0.00  0.00    +0.000 N 
ATOM      6  C   UNL     1      -0.152  10.049  21.717  0.00  0.00    +0.000 C 
ATOM      7  N   UNL     1       0.247   8.841  21.889  0.00  0.00    +0.000 NA
ATOM      8  C   UNL     1       0.938   8.205  20.891  0.00  0.00    +0.000 C 
ATOM      9  O   UNL     1       1.418   7.100  21.108  0.00  0.00    +0.000 OA
ATOM     10  S   UNL     1      -0.973  10.899  23.025  0.00  0.00    +0.000 S 
ATOM     11  N   UNL     1      -1.148  12.324  22.131  0.00  0.00    +0.000 NA
ATOM     12  C   UNL     1      -0.639  12.130  20.935  0.00  0.00    +0.000 C 
ATOM     13  H   UNL     1       1.103  10.701  17.616  0.00  0.00    +0.000 HD
ENDROOT
BRANCH   1  18
ATOM     14  N   UNL     1       3.902   5.687  17.366  0.00  0.00    +0.000 N 
ATOM     15  C   UNL     1       2.803   4.982  17.866  0.00  0.00    +0.000 A 
ATOM     16  C   UNL     1       2.659   3.502  17.988  0.00  0.00    +0.000 C 
ATOM     17  C   UNL     1       1.848   5.886  18.285  0.00  0.00    +0.000 A 
ATOM     18  C   UNL     1       2.383   7.176  18.197  0.00  0.00    +0.000 A 
ATOM     19  C   UNL     1       3.649   7.058  17.622  0.00  0.00    +0.000 A 
ATOM     20  C   UNL     1       4.578   8.167  17.214  0.00  0.00    +0.000 C 
BRANCH  14  26
ATOM     21  C   UNL     1       6.278   4.870  17.417  0.00  0.00    +0.000 A 
ATOM     22  C   UNL     1       7.391   4.379  16.710  0.00  0.00    +0.000 A 
ATOM     23  C   UNL     1       7.307   4.077  15.352  0.00  0.00    +0.000 A 
ATOM     24  C   UNL     1       6.117   4.283  14.674  0.00  0.00    +0.000 A 
ATOM     25  C   UNL     1       5.023   4.835  15.346  0.00  0.00    +0.000 A 
ATOM     26  C   UNL     1       5.074   5.132  16.721  0.00  0.00    +0.000 A 
BRANCH  21  28
ATOM     27  C   UNL     1       7.384   5.697  19.391  0.00  0.00    +0.000 C 
ATOM     28  O   UNL     1       6.287   5.035  18.776  0.00  0.00    +0.000 OA
ENDBRANCH  21  28
ENDBRANCH  14  26
ENDBRANCH   1  18
BRANCH  12  29
ATOM     29  S   UNL     1      -0.687  13.477  19.781  0.00  0.00    +0.000 S 
ATOM     30  C   UNL     1      -1.712  14.679  20.603  0.00  0.00    +0.000 C 
ATOM     31  O   UNL     1       0.651  13.963  19.546  0.00  0.00    +0.000 OA
ATOM     32  O   UNL     1      -1.462  13.008  18.642  0.00  0.00    +0.000 OA
ENDBRANCH  12  29
TORSDOF 4
ENDMDL
MODEL 5
REMARK VINA RESULT:      -6.6      3.790      9.423
REMARK  Name = 
REMARK  8 active torsions:
REMARK  status: ('A' for Active; 'I' for Inactive)
REMARK    1  A    between atoms: C_1  and  O_2
REMARK    2  A    between atoms: O_2  and  C_3
REMARK    3  A    between atoms: C_8  and  N_9
REMARK    4  A    between atoms: C_10  and  C_11
REMARK    5  A    between atoms: C_13  and  C_14
REMARK    6  A    between atoms: C_25  and  S_26
REMARK    7  A    between atoms: S_26  and  C_27
REMARK    8  A    between atoms: C_30  and  C_31
REMARK                            x       y       z     vdW  Elec       q    Type
REMARK                         _______ _______ _______ _____ _____    ______ ____
ROOT
ATOM      1  C   UNL     1       2.313   8.186  19.283  0.00  0.00    +0.000 C 
ATOM      2  C   UNL     1       2.609   6.884  19.074  0.00  0.00    +0.000 C 
ATOM      3  C   UNL     1       3.671   6.540  18.005  0.00  0.00    +0.000 C 
ATOM      4  N   UNL     1       4.291   7.441  17.312  0.00  0.00    +0.000 NA
ATOM      5  N   UNL     1       3.934   5.197  17.784  0.00  0.00    +0.000 N 
ATOM      6  C   UNL     1       3.224   4.286  18.532  0.00  0.00    +0.000 C 
ATOM      7  N   UNL     1       2.321   4.455  19.428  0.00  0.00    +0.000 NA
ATOM      8  C   UNL     1       1.900   5.722  19.737  0.00  0.00    +0.000 C 
ATOM      9  O   UNL     1       0.956   5.868  20.502  0.00  0.00    +0.000 OA
ATOM     10  S   UNL     1       3.715   2.655  18.075  0.00  0.00    +0.000 S 
ATOM     11  N   UNL     1       4.824   3.199  16.919  0.00  0.00    +0.000 NA
ATOM     12  C   UNL     1       4.818   4.513  16.923  0.00  0.00    +0.000 C 
ATOM     13  H   UNL     1       4.158   8.415  17.583  0.00  0.00    +0.000 HD
ENDROOT
BRANCH   1  18
ATOM     14  N   UNL     1       0.062  10.554  20.945  0.00  0.00    +0.000 N 
ATOM     15  C   UNL     1       0.127   9.530  21.894  0.00  0.00    +0.000 A 
ATOM     16  C   UNL     1      -0.640   9.433  23.171  0.00  0.00    +0.000 C 
ATOM     17  C   UNL     1       1.002   8.563  21.446  0.00  0.00    +0.000 A 
ATOM     18  C   UNL     1       1.394   8.882  20.141  0.00  0.00    +0.000 A 
ATOM     19  C   UNL     1       0.822  10.117  19.831  0.00  0.00    +0.000 A 
ATOM     20  C   UNL     1       1.034  10.940  18.592  0.00  0.00    +0.000 C 
BRANCH  14  26
ATOM     21  C   UNL     1      -1.780  12.130  20.282  0.00  0.00    +0.000 A 
ATOM     22  C   UNL     1      -2.382  13.393  20.420  0.00  0.00    +0.000 A 
ATOM     23  C   UNL     1      -1.927  14.310  21.365  0.00  0.00    +0.000 A 
ATOM     24  C   UNL     1      -0.848  13.988  22.172  0.00  0.00    +0.000 A 
ATOM     25  C   UNL     1      -0.195  12.765  22.000  0.00  0.00    +0.000 A 
ATOM     26  C   UNL     1      -0.646  11.812  21.066  0.00  0.00    +0.000 A 
BRANCH  21  28
ATOM     27  C   UNL     1      -2.651  11.480  18.131  0.00  0.00    +0.000 C 
ATOM     28  O   UNL     1      -2.296  11.157  19.469  0.00  0.00    +0.000 OA
ENDBRANCH  21  28
ENDBRANCH  14  26
ENDBRANCH   1  18
BRANCH  12  29
ATOM     29  S   UNL     1       5.897   5.354  15.793  0.00  0.00    +0.000 S 
ATOM     30  C   UNL     1       6.648   4.022  14.882  0.00  0.00    +0.000 C 
ATOM     31  O   UNL     1       5.125   6.232  14.947  0.00  0.00    +0.000 OA
ATOM     32  O   UNL     1       6.961   5.931  16.601  0.00  0.00    +0.000 OA
ENDBRANCH  12  29
TORSDOF 4
ENDMDL
MODEL 6
REMARK VINA RESULT:      -6.6      3.482      9.119
REMARK  Name = 
REMARK  8 active torsions:
REMARK  status: ('A' for Active; 'I' for Inactive)
REMARK    1  A    between atoms: C_1  and  O_2
REMARK    2  A    between atoms: O_2  and  C_3
REMARK    3  A    between atoms: C_8  and  N_9
REMARK    4  A    between atoms: C_10  and  C_11
REMARK    5  A    between atoms: C_13  and  C_14
REMARK    6  A    between atoms: C_25  and  S_26
REMARK    7  A    between atoms: S_26  and  C_27
REMARK    8  A    between atoms: C_30  and  C_31
REMARK                            x       y       z     vdW  Elec       q    Type
REMARK                         _______ _______ _______ _____ _____    ______ ____
ROOT
ATOM      1  C   UNL     1       1.145   8.018  19.591  0.00  0.00    +0.000 C 
ATOM      2  C   UNL     1       2.077   7.386  18.845  0.00  0.00    +0.000 C 
ATOM      3  C   UNL     1       2.327   5.884  19.110  0.00  0.00    +0.000 C 
ATOM      4  N   UNL     1       1.680   5.209  20.005  0.00  0.00    +0.000 NA
ATOM      5  N   UNL     1       3.312   5.264  18.356  0.00  0.00    +0.000 N 
ATOM      6  C   UNL     1       3.984   6.040  17.440  0.00  0.00    +0.000 C 
ATOM      7  N   UNL     1       3.870   7.284  17.146  0.00  0.00    +0.000 NA
ATOM      8  C   UNL     1       2.976   8.064  17.833  0.00  0.00    +0.000 C 
ATOM      9  O   UNL     1       2.959   9.271  17.632  0.00  0.00    +0.000 OA
ATOM     10  S   UNL     1       5.186   5.049  16.614  0.00  0.00    +0.000 S 
ATOM     11  N   UNL     1       4.790   3.654  17.485  0.00  0.00    +0.000 NA
ATOM     12  C   UNL     1       3.806   3.943  18.307  0.00  0.00    +0.000 C 
ATOM     13  H   UNL     1       0.888   5.666  20.455  0.00  0.00    +0.000 HD
ENDROOT
BRANCH   1  18
ATOM     14  N   UNL     1      -0.045  11.349  20.554  0.00  0.00    +0.000 N 
ATOM     15  C   UNL     1      -0.268  11.370  19.174  0.00  0.00    +0.000 A 
ATOM     16  C   UNL     1      -0.750  12.521  18.356  0.00  0.00    +0.000 C 
ATOM     17  C   UNL     1       0.075  10.142  18.649  0.00  0.00    +0.000 A 
ATOM     18  C   UNL     1       0.660   9.369  19.659  0.00  0.00    +0.000 A 
ATOM     19  C   UNL     1       0.580  10.109  20.840  0.00  0.00    +0.000 A 
ATOM     20  C   UNL     1       0.967   9.670  22.225  0.00  0.00    +0.000 C 
BRANCH  14  26
ATOM     21  C   UNL     1       0.388  13.571  21.647  0.00  0.00    +0.000 A 
ATOM     22  C   UNL     1       0.033  14.510  22.632  0.00  0.00    +0.000 A 
ATOM     23  C   UNL     1      -1.099  14.331  23.424  0.00  0.00    +0.000 A 
ATOM     24  C   UNL     1      -1.882  13.200  23.260  0.00  0.00    +0.000 A 
ATOM     25  C   UNL     1      -1.505  12.225  22.334  0.00  0.00    +0.000 A 
ATOM     26  C   UNL     1      -0.376  12.388  21.508  0.00  0.00    +0.000 A 
BRANCH  21  28
ATOM     27  C   UNL     1       1.519  15.059  20.127  0.00  0.00    +0.000 C 
ATOM     28  O   UNL     1       1.405  13.790  20.758  0.00  0.00    +0.000 OA
ENDBRANCH  21  28
ENDBRANCH  14  26
ENDBRANCH   1  18
BRANCH  12  29
ATOM     29  S   UNL     1       3.189   2.650  19.354  0.00  0.00    +0.000 S 
ATOM     30  C   UNL     1       3.959   1.189  18.691  0.00  0.00    +0.000 C 
ATOM     31  O   UNL     1       3.577   2.905  20.720  0.00  0.00    +0.000 OA
ATOM     32  O   UNL     1       1.771   2.524  19.050  0.00  0.00    +0.000 OA
ENDBRANCH  12  29
TORSDOF 4
ENDMDL
MODEL 7
REMARK VINA RESULT:      -6.6      3.577      9.248
REMARK  Name = 
REMARK  8 active torsions:
REMARK  status: ('A' for Active; 'I' for Inactive)
REMARK    1  A    between atoms: C_1  and  O_2
REMARK    2  A    between atoms: O_2  and  C_3
REMARK    3  A    between atoms: C_8  and  N_9
REMARK    4  A    between atoms: C_10  and  C_11
REMARK    5  A    between atoms: C_13  and  C_14
REMARK    6  A    between atoms: C_25  and  S_26
REMARK    7  A    between atoms: S_26  and  C_27
REMARK    8  A    between atoms: C_30  and  C_31
REMARK                            x       y       z     vdW  Elec       q    Type
REMARK                         _______ _______ _______ _____ _____    ______ ____
ROOT
ATOM      1  C   UNL     1       1.615   9.196  18.069  0.00  0.00    +0.000 C 
ATOM      2  C   UNL     1       2.206   8.085  18.564  0.00  0.00    +0.000 C 
ATOM      3  C   UNL     1       3.380   7.469  17.770  0.00  0.00    +0.000 C 
ATOM      4  N   UNL     1       3.825   7.974  16.664  0.00  0.00    +0.000 NA
ATOM      5  N   UNL     1       3.948   6.311  18.279  0.00  0.00    +0.000 N 
ATOM      6  C   UNL     1       3.415   5.808  19.443  0.00  0.00    +0.000 C 
ATOM      7  N   UNL     1       2.444   6.224  20.172  0.00  0.00    +0.000 NA
ATOM      8  C   UNL     1       1.734   7.333  19.790  0.00  0.00    +0.000 C 
ATOM      9  O   UNL     1       0.737   7.651  20.424  0.00  0.00    +0.000 OA
ATOM     10  S   UNL     1       4.282   4.339  19.889  0.00  0.00    +0.000 S 
ATOM     11  N   UNL     1       5.310   4.412  18.548  0.00  0.00    +0.000 NA
ATOM     12  C   UNL     1       5.012   5.488  17.853  0.00  0.00    +0.000 C 
ATOM     13  H   UNL     1       3.462   8.884  16.385  0.00  0.00    +0.000 HD
ENDROOT
BRANCH   1  18
ATOM     14  N   UNL     1      -0.718  11.461  19.761  0.00  0.00    +0.000 N 
ATOM     15  C   UNL     1      -1.525  10.957  18.736  0.00  0.00    +0.000 A 
ATOM     16  C   UNL     1      -2.920  11.367  18.401  0.00  0.00    +0.000 C 
ATOM     17  C   UNL     1      -0.805  10.020  18.024  0.00  0.00    +0.000 A 
ATOM     18  C   UNL     1       0.515  10.020  18.488  0.00  0.00    +0.000 A 
ATOM     19  C   UNL     1       0.571  10.904  19.568  0.00  0.00    +0.000 A 
ATOM     20  C   UNL     1       1.738  11.168  20.476  0.00  0.00    +0.000 C 
BRANCH  14  26
ATOM     21  C   UNL     1      -1.063  13.784  20.656  0.00  0.00    +0.000 A 
ATOM     22  C   UNL     1      -1.412  14.610  21.740  0.00  0.00    +0.000 A 
ATOM     23  C   UNL     1      -1.877  14.070  22.938  0.00  0.00    +0.000 A 
ATOM     24  C   UNL     1      -1.977  12.696  23.080  0.00  0.00    +0.000 A 
ATOM     25  C   UNL     1      -1.568  11.860  22.038  0.00  0.00    +0.000 A 
ATOM     26  C   UNL     1      -1.113  12.379  20.811  0.00  0.00    +0.000 A 
BRANCH  21  28
ATOM     27  C   UNL     1       0.552  14.822  19.200  0.00  0.00    +0.000 C 
ATOM     28  O   UNL     1      -0.746  14.288  19.423  0.00  0.00    +0.000 OA
ENDBRANCH  21  28
ENDBRANCH  14  26
ENDBRANCH   1  18
BRANCH  12  29
ATOM     29  S   UNL     1       5.943   5.811  16.378  0.00  0.00    +0.000 S 
ATOM     30  C   UNL     1       7.169   4.520  16.381  0.00  0.00    +0.000 C 
ATOM     31  O   UNL     1       5.073   5.741  15.230  0.00  0.00    +0.000 OA
ATOM     32  O   UNL     1       6.670   7.048  16.620  0.00  0.00    +0.000 OA
ENDBRANCH  12  29
TORSDOF 4
ENDMDL
MODEL 8
REMARK VINA RESULT:      -6.5      3.522      9.120
REMARK  Name = 
REMARK  8 active torsions:
REMARK  status: ('A' for Active; 'I' for Inactive)
REMARK    1  A    between atoms: C_1  and  O_2
REMARK    2  A    between atoms: O_2  and  C_3
REMARK    3  A    between atoms: C_8  and  N_9
REMARK    4  A    between atoms: C_10  and  C_11
REMARK    5  A    between atoms: C_13  and  C_14
REMARK    6  A    between atoms: C_25  and  S_26
REMARK    7  A    between atoms: S_26  and  C_27
REMARK    8  A    between atoms: C_30  and  C_31
REMARK                            x       y       z     vdW  Elec       q    Type
REMARK                         _______ _______ _______ _____ _____    ______ ____
ROOT
ATOM      1  C   UNL     1       1.749   9.127  18.075  0.00  0.00    +0.000 C 
ATOM      2  C   UNL     1       2.334   8.002  18.543  0.00  0.00    +0.000 C 
ATOM      3  C   UNL     1       3.479   7.377  17.716  0.00  0.00    +0.000 C 
ATOM      4  N   UNL     1       3.905   7.886  16.604  0.00  0.00    +0.000 NA
ATOM      5  N   UNL     1       4.042   6.205  18.199  0.00  0.00    +0.000 N 
ATOM      6  C   UNL     1       3.529   5.698  19.370  0.00  0.00    +0.000 C 
ATOM      7  N   UNL     1       2.583   6.121  20.127  0.00  0.00    +0.000 NA
ATOM      8  C   UNL     1       1.881   7.244  19.773  0.00  0.00    +0.000 C 
ATOM      9  O   UNL     1       0.904   7.570  20.434  0.00  0.00    +0.000 OA
ATOM     10  S   UNL     1       4.385   4.212  19.780  0.00  0.00    +0.000 S 
ATOM     11  N   UNL     1       5.381   4.283  18.415  0.00  0.00    +0.000 NA
ATOM     12  C   UNL     1       5.083   5.370  17.739  0.00  0.00    +0.000 C 
ATOM     13  H   UNL     1       3.550   8.804  16.343  0.00  0.00    +0.000 HD
ENDROOT
BRANCH   1  18
ATOM     14  N   UNL     1      -0.516  11.393  19.855  0.00  0.00    +0.000 N 
ATOM     15  C   UNL     1      -1.343  10.938  18.823  0.00  0.00    +0.000 A 
ATOM     16  C   UNL     1      -2.731  11.390  18.514  0.00  0.00    +0.000 C 
ATOM     17  C   UNL     1      -0.652  10.007  18.077  0.00  0.00    +0.000 A 
ATOM     18  C   UNL     1       0.672   9.963  18.529  0.00  0.00    +0.000 A 
ATOM     19  C   UNL     1       0.758  10.812  19.633  0.00  0.00    +0.000 A 
ATOM     20  C   UNL     1       1.939  11.022  20.538  0.00  0.00    +0.000 C 
BRANCH  14  26
ATOM     21  C   UNL     1      -1.333  11.822  22.193  0.00  0.00    +0.000 A 
ATOM     22  C   UNL     1      -1.717  12.754  23.174  0.00  0.00    +0.000 A 
ATOM     23  C   UNL     1      -1.590  14.124  22.958  0.00  0.00    +0.000 A 
ATOM     24  C   UNL     1      -1.099  14.587  21.748  0.00  0.00    +0.000 A 
ATOM     25  C   UNL     1      -0.779  13.677  20.737  0.00  0.00    +0.000 A 
ATOM     26  C   UNL     1      -0.880  12.287  20.935  0.00  0.00    +0.000 A 
BRANCH  21  28
ATOM     27  C   UNL     1      -0.286   9.931  23.256  0.00  0.00    +0.000 C 
ATOM     28  O   UNL     1      -1.307  10.475  22.431  0.00  0.00    +0.000 OA
ENDBRANCH  21  28
ENDBRANCH  14  26
ENDBRANCH   1  18
BRANCH  12  29
ATOM     29  S   UNL     1       5.983   5.695  16.245  0.00  0.00    +0.000 S 
ATOM     30  C   UNL     1       7.195   4.391  16.210  0.00  0.00    +0.000 C 
ATOM     31  O   UNL     1       5.085   5.643  15.117  0.00  0.00    +0.000 OA
ATOM     32  O   UNL     1       6.728   6.923  16.479  0.00  0.00    +0.000 OA
ENDBRANCH  12  29
TORSDOF 4
ENDMDL
MODEL 9
REMARK VINA RESULT:      -6.5      1.552      2.360
REMARK  Name = 
REMARK  8 active torsions:
REMARK  status: ('A' for Active; 'I' for Inactive)
REMARK    1  A    between atoms: C_1  and  O_2
REMARK    2  A    between atoms: O_2  and  C_3
REMARK    3  A    between atoms: C_8  and  N_9
REMARK    4  A    between atoms: C_10  and  C_11
REMARK    5  A    between atoms: C_13  and  C_14
REMARK    6  A    between atoms: C_25  and  S_26
REMARK    7  A    between atoms: S_26  and  C_27
REMARK    8  A    between atoms: C_30  and  C_31
REMARK                            x       y       z     vdW  Elec       q    Type
REMARK                         _______ _______ _______ _____ _____    ______ ____
ROOT
ATOM      1  C   UNL     1       1.854   7.830  20.311  0.00  0.00    +0.000 C 
ATOM      2  C   UNL     1       1.116   8.805  19.738  0.00  0.00    +0.000 C 
ATOM      3  C   UNL     1       0.516   9.898  20.651  0.00  0.00    +0.000 C 
ATOM      4  N   UNL     1       0.696   9.922  21.933  0.00  0.00    +0.000 NA
ATOM      5  N   UNL     1      -0.267  10.870  20.045  0.00  0.00    +0.000 N 
ATOM      6  C   UNL     1      -0.444  10.775  18.685  0.00  0.00    +0.000 C 
ATOM      7  N   UNL     1      -0.009   9.915  17.837  0.00  0.00    +0.000 NA
ATOM      8  C   UNL     1       0.741   8.853  18.272  0.00  0.00    +0.000 C 
ATOM      9  O   UNL     1       1.049   7.975  17.477  0.00  0.00    +0.000 OA
ATOM     10  S   UNL     1      -1.473  12.100  18.142  0.00  0.00    +0.000 S 
ATOM     11  N   UNL     1      -1.652  12.738  19.699  0.00  0.00    +0.000 NA
ATOM     12  C   UNL     1      -0.955  12.000  20.534  0.00  0.00    +0.000 C 
ATOM     13  H   UNL     1       1.368   9.264  22.324  0.00  0.00    +0.000 HD
ENDROOT
BRANCH   1  18
ATOM     14  N   UNL     1       3.909   5.370  18.533  0.00  0.00    +0.000 N 
ATOM     15  C   UNL     1       3.148   4.539  19.361  0.00  0.00    +0.000 A 
ATOM     16  C   UNL     1       3.276   3.061  19.519  0.00  0.00    +0.000 C 
ATOM     17  C   UNL     1       2.256   5.316  20.071  0.00  0.00    +0.000 A 
ATOM     18  C   UNL     1       2.535   6.664  19.818  0.00  0.00    +0.000 A 
ATOM     19  C   UNL     1       3.550   6.701  18.861  0.00  0.00    +0.000 A 
ATOM     20  C   UNL     1       4.121   7.911  18.177  0.00  0.00    +0.000 C 
BRANCH  14  26
ATOM     21  C   UNL     1       6.261   4.839  17.824  0.00  0.00    +0.000 A 
ATOM     22  C   UNL     1       7.150   4.485  16.792  0.00  0.00    +0.000 A 
ATOM     23  C   UNL     1       6.686   4.179  15.514  0.00  0.00    +0.000 A 
ATOM     24  C   UNL     1       5.330   4.244  15.240  0.00  0.00    +0.000 A 
ATOM     25  C   UNL     1       4.442   4.662  16.235  0.00  0.00    +0.000 A 
ATOM     26  C   UNL     1       4.880   4.959  17.539  0.00  0.00    +0.000 A 
BRANCH  21  28
ATOM     27  C   UNL     1       7.844   5.752  19.393  0.00  0.00    +0.000 C 
ATOM     28  O   UNL     1       6.670   4.999  19.120  0.00  0.00    +0.000 OA
ENDBRANCH  21  28
ENDBRANCH  14  26
ENDBRANCH   1  18
BRANCH  12  29
ATOM     29  S   UNL     1      -0.969  12.447  22.250  0.00  0.00    +0.000 S 
ATOM     30  C   UNL     1      -2.057  13.855  22.295  0.00  0.00    +0.000 C 
ATOM     31  O   UNL     1      -1.464  11.343  23.036  0.00  0.00    +0.000 OA
ATOM     32  O   UNL     1       0.360  12.963  22.546  0.00  0.00    +0.000 OA
ENDBRANCH  12  29
TORSDOF 4
ENDMDL
