MODEL 1
REMARK VINA RESULT:      -8.2      0.000      0.000
REMARK  Name = 
REMARK  5 active torsions:
REMARK  status: ('A' for Active; 'I' for Inactive)
REMARK    1  A    between atoms: C_1  and  O_2
REMARK    2  A    between atoms: O_2  and  C_3
REMARK    3  A    between atoms: C_7  and  N_8
REMARK    4  A    between atoms: C_9  and  C_11
REMARK    5  A    between atoms: N_19  and  C_20
REMARK                            x       y       z     vdW  Elec       q    Type
REMARK                         _______ _______ _______ _____ _____    ______ ____
ROOT
ATOM      1  C   UNL     1      -3.246  14.043  24.319  0.00  0.00    +0.000 C 
ATOM      2  C   UNL     1      -3.601  15.547  24.444  0.00  0.00    +0.000 C 
ATOM      3  C   UNL     1      -2.316  16.183  24.901  0.00  0.00    +0.000 C 
ATOM      4  C   UNL     1      -1.477  15.600  26.003  0.00  0.00    +0.000 C 
ATOM      5  C   UNL     1      -1.215  15.210  24.561  0.00  0.00    +0.000 C 
ATOM      6  N   UNL     1      -1.797  13.985  23.969  0.00  0.00    +0.000 N 
ATOM      7  C   UNL     1      -1.060  13.286  23.006  0.00  0.00    +0.000 C 
ATOM      8  O   UNL     1       0.052  13.746  22.711  0.00  0.00    +0.000 OA
ATOM      9  N   UNL     1      -1.542  12.099  22.430  0.00  0.00    +0.000 N 
ATOM     10  H   UNL     1      -2.223  11.543  22.938  0.00  0.00    +0.000 HD
ENDROOT
BRANCH   9  11
ATOM     11  C   UNL     1      -0.873  11.498  21.307  0.00  0.00    +0.000 A 
ATOM     12  C   UNL     1      -0.714  12.188  20.104  0.00  0.00    +0.000 A 
ATOM     13  N   UNL     1      -0.581  11.208  19.151  0.00  0.00    +0.000 N 
ATOM     14  C   UNL     1      -1.357  11.047  18.000  0.00  0.00    +0.000 C 
ATOM     15  N   UNL     1      -1.634   9.731  17.725  0.00  0.00    +0.000 N 
ATOM     16  O   UNL     1      -1.883  12.005  17.451  0.00  0.00    +0.000 OA
ATOM     17  C   UNL     1       0.277  10.276  19.717  0.00  0.00    +0.000 A 
ATOM     18  C   UNL     1       1.235   9.485  19.092  0.00  0.00    +0.000 A 
ATOM     19  C   UNL     1       1.695   8.398  19.804  0.00  0.00    +0.000 A 
ATOM     20  C   UNL     1       1.111   8.100  21.038  0.00  0.00    +0.000 A 
ATOM     21  C   UNL     1       0.164   8.977  21.673  0.00  0.00    +0.000 A 
ATOM     22  C   UNL     1      -0.198  10.192  21.037  0.00  0.00    +0.000 A 
ATOM     23  H   UNL     1      -1.474   9.027  18.438  0.00  0.00    +0.000 HD
ATOM     24  H   UNL     1      -2.404   9.564  17.100  0.00  0.00    +0.000 HD
ENDBRANCH   9  11
BRANCH   1  26
ATOM     25  N   UNL     1      -4.881  13.538  22.538  0.00  0.00    +0.000 N 
ATOM     26  C   UNL     1      -4.182  13.095  23.642  0.00  0.00    +0.000 C 
ATOM     27  O   UNL     1      -4.239  11.948  24.113  0.00  0.00    +0.000 OA
ATOM     28  H   UNL     1      -4.827  14.510  22.289  0.00  0.00    +0.000 HD
BRANCH  25  33
ATOM     29  C   UNL     1      -6.276  11.570  19.732  0.00  0.00    +0.000 A 
ATOM     30  C   UNL     1      -7.541  11.252  20.217  0.00  0.00    +0.000 A 
ATOM     31  C   UNL     1      -7.915  11.641  21.499  0.00  0.00    +0.000 A 
ATOM     32  C   UNL     1      -7.019  12.361  22.276  0.00  0.00    +0.000 A 
ATOM     33  C   UNL     1      -5.772  12.744  21.786  0.00  0.00    +0.000 A 
ATOM     34  C   UNL     1      -5.394  12.326  20.505  0.00  0.00    +0.000 A 
BRANCH  29  36
ATOM     35  C   UNL     1      -5.485  12.101  17.578  0.00  0.00    +0.000 C 
ATOM     36  O   UNL     1      -6.015  11.122  18.465  0.00  0.00    +0.000 OA
ENDBRANCH  29  36
ENDBRANCH  25  33
ENDBRANCH   1  26
TORSDOF 4
ENDMDL
MODEL 2
REMARK VINA RESULT:      -7.4      8.637     11.488
REMARK  Name = 
REMARK  5 active torsions:
REMARK  status: ('A' for Active; 'I' for Inactive)
REMARK    1  A    between atoms: C_1  and  O_2
REMARK    2  A    between atoms: O_2  and  C_3
REMARK    3  A    between atoms: C_7  and  N_8
REMARK    4  A    between atoms: C_9  and  C_11
REMARK    5  A    between atoms: N_19  and  C_20
REMARK                            x       y       z     vdW  Elec       q    Type
REMARK                         _______ _______ _______ _____ _____    ______ ____
ROOT
ATOM      1  C   UNL     1       4.170  14.796  20.779  0.00  0.00    +0.000 C 
ATOM      2  C   UNL     1       2.982  13.807  20.651  0.00  0.00    +0.000 C 
ATOM      3  C   UNL     1       2.464  14.045  19.259  0.00  0.00    +0.000 C 
ATOM      4  C   UNL     1       2.247  15.425  18.705  0.00  0.00    +0.000 C 
ATOM      5  C   UNL     1       3.577  14.724  18.500  0.00  0.00    +0.000 C 
ATOM      6  N   UNL     1       4.725  14.958  19.403  0.00  0.00    +0.000 N 
ATOM      7  C   UNL     1       6.019  14.923  18.871  0.00  0.00    +0.000 C 
ATOM      8  O   UNL     1       6.118  14.697  17.657  0.00  0.00    +0.000 OA
ATOM      9  N   UNL     1       7.150  15.167  19.668  0.00  0.00    +0.000 N 
ATOM     10  H   UNL     1       7.048  15.717  20.516  0.00  0.00    +0.000 HD
ENDROOT
BRANCH   9  11
ATOM     11  C   UNL     1       8.476  14.937  19.160  0.00  0.00    +0.000 A 
ATOM     12  C   UNL     1       9.447  15.941  19.191  0.00  0.00    +0.000 A 
ATOM     13  N   UNL     1      10.324  15.612  18.187  0.00  0.00    +0.000 N 
ATOM     14  C   UNL     1      10.709  16.420  17.113  0.00  0.00    +0.000 C 
ATOM     15  N   UNL     1      10.828  15.723  15.937  0.00  0.00    +0.000 N 
ATOM     16  O   UNL     1      10.723  17.639  17.210  0.00  0.00    +0.000 OA
ATOM     17  C   UNL     1      10.510  14.243  18.310  0.00  0.00    +0.000 A 
ATOM     18  C   UNL     1      11.657  13.496  18.063  0.00  0.00    +0.000 A 
ATOM     19  C   UNL     1      11.486  12.138  17.911  0.00  0.00    +0.000 A 
ATOM     20  C   UNL     1      10.191  11.614  17.908  0.00  0.00    +0.000 A 
ATOM     21  C   UNL     1       9.037  12.414  18.225  0.00  0.00    +0.000 A 
ATOM     22  C   UNL     1       9.205  13.783  18.554  0.00  0.00    +0.000 A 
ATOM     23  H   UNL     1      10.436  14.789  15.868  0.00  0.00    +0.000 HD
ATOM     24  H   UNL     1      10.817  16.272  15.095  0.00  0.00    +0.000 HD
ENDBRANCH   9  11
BRANCH   1  26
ATOM     25  N   UNL     1       5.410  13.446  22.433  0.00  0.00    +0.000 N 
ATOM     26  C   UNL     1       5.122  14.696  21.926  0.00  0.00    +0.000 C 
ATOM     27  O   UNL     1       5.617  15.762  22.324  0.00  0.00    +0.000 OA
ATOM     28  H   UNL     1       4.891  12.655  22.096  0.00  0.00    +0.000 HD
BRANCH  25  33
ATOM     29  C   UNL     1       6.684  12.793  25.845  0.00  0.00    +0.000 A 
ATOM     30  C   UNL     1       8.060  12.814  25.638  0.00  0.00    +0.000 A 
ATOM     31  C   UNL     1       8.569  12.989  24.356  0.00  0.00    +0.000 A 
ATOM     32  C   UNL     1       7.690  13.158  23.295  0.00  0.00    +0.000 A 
ATOM     33  C   UNL     1       6.311  13.202  23.491  0.00  0.00    +0.000 A 
ATOM     34  C   UNL     1       5.806  13.000  24.780  0.00  0.00    +0.000 A 
BRANCH  29  36
ATOM     35  C   UNL     1       4.907  12.385  27.336  0.00  0.00    +0.000 C 
ATOM     36  O   UNL     1       6.301  12.600  27.146  0.00  0.00    +0.000 OA
ENDBRANCH  29  36
ENDBRANCH  25  33
ENDBRANCH   1  26
TORSDOF 4
ENDMDL
MODEL 3
REMARK VINA RESULT:      -7.3      2.264      6.638
REMARK  Name = 
REMARK  5 active torsions:
REMARK  status: ('A' for Active; 'I' for Inactive)
REMARK    1  A    between atoms: C_1  and  O_2
REMARK    2  A    between atoms: O_2  and  C_3
REMARK    3  A    between atoms: C_7  and  N_8
REMARK    4  A    between atoms: C_9  and  C_11
REMARK    5  A    between atoms: N_19  and  C_20
REMARK                            x       y       z     vdW  Elec       q    Type
REMARK                         _______ _______ _______ _____ _____    ______ ____
ROOT
ATOM      1  C   UNL     1      -0.190  10.154  20.433  0.00  0.00    +0.000 C 
ATOM      2  C   UNL     1      -0.048   8.646  20.764  0.00  0.00    +0.000 C 
ATOM      3  C   UNL     1       0.326   8.631  22.222  0.00  0.00    +0.000 C 
ATOM      4  C   UNL     1       1.376   9.542  22.793  0.00  0.00    +0.000 C 
ATOM      5  C   UNL     1      -0.078   9.973  22.779  0.00  0.00    +0.000 C 
ATOM      6  N   UNL     1      -0.628  10.818  21.696  0.00  0.00    +0.000 N 
ATOM      7  C   UNL     1      -1.632  11.743  22.006  0.00  0.00    +0.000 C 
ATOM      8  O   UNL     1      -1.997  11.796  23.189  0.00  0.00    +0.000 OA
ATOM      9  N   UNL     1      -2.173  12.596  21.031  0.00  0.00    +0.000 N 
ATOM     10  H   UNL     1      -1.622  12.819  20.207  0.00  0.00    +0.000 HD
ENDROOT
BRANCH   9  11
ATOM     11  C   UNL     1      -3.332  13.400  21.312  0.00  0.00    +0.000 A 
ATOM     12  C   UNL     1      -3.209  14.697  21.816  0.00  0.00    +0.000 A 
ATOM     13  N   UNL     1      -4.393  14.934  22.469  0.00  0.00    +0.000 N 
ATOM     14  C   UNL     1      -4.552  15.319  23.804  0.00  0.00    +0.000 C 
ATOM     15  N   UNL     1      -5.619  14.706  24.411  0.00  0.00    +0.000 N 
ATOM     16  O   UNL     1      -3.693  15.968  24.383  0.00  0.00    +0.000 OA
ATOM     17  C   UNL     1      -5.373  14.441  21.620  0.00  0.00    +0.000 A 
ATOM     18  C   UNL     1      -6.660  14.922  21.406  0.00  0.00    +0.000 A 
ATOM     19  C   UNL     1      -7.546  14.059  20.799  0.00  0.00    +0.000 A 
ATOM     20  C   UNL     1      -7.143  12.747  20.536  0.00  0.00    +0.000 A 
ATOM     21  C   UNL     1      -5.785  12.308  20.721  0.00  0.00    +0.000 A 
ATOM     22  C   UNL     1      -4.811  13.229  21.185  0.00  0.00    +0.000 A 
ATOM     23  H   UNL     1      -6.052  13.901  23.968  0.00  0.00    +0.000 HD
ATOM     24  H   UNL     1      -5.618  14.712  25.417  0.00  0.00    +0.000 HD
ENDBRANCH   9  11
BRANCH   1  26
ATOM     25  N   UNL     1      -2.003  10.031  18.762  0.00  0.00    +0.000 N 
ATOM     26  C   UNL     1      -0.805  10.595  19.145  0.00  0.00    +0.000 C 
ATOM     27  O   UNL     1      -0.194  11.476  18.518  0.00  0.00    +0.000 OA
ATOM     28  H   UNL     1      -2.372   9.266  19.298  0.00  0.00    +0.000 HD
BRANCH  25  33
ATOM     29  C   UNL     1      -2.918  10.250  15.183  0.00  0.00    +0.000 A 
ATOM     30  C   UNL     1      -4.013  11.107  15.228  0.00  0.00    +0.000 A 
ATOM     31  C   UNL     1      -4.487  11.571  16.450  0.00  0.00    +0.000 A 
ATOM     32  C   UNL     1      -3.845  11.182  17.617  0.00  0.00    +0.000 A 
ATOM     33  C   UNL     1      -2.709  10.375  17.590  0.00  0.00    +0.000 A 
ATOM     34  C   UNL     1      -2.254   9.892  16.358  0.00  0.00    +0.000 A 
BRANCH  29  36
ATOM     35  C   UNL     1      -3.619   9.760  12.990  0.00  0.00    +0.000 C 
ATOM     36  O   UNL     1      -2.552   9.848  13.927  0.00  0.00    +0.000 OA
ENDBRANCH  29  36
ENDBRANCH  25  33
ENDBRANCH   1  26
TORSDOF 4
ENDMDL
MODEL 4
REMARK VINA RESULT:      -7.2      2.258      6.686
REMARK  Name = 
REMARK  5 active torsions:
REMARK  status: ('A' for Active; 'I' for Inactive)
REMARK    1  A    between atoms: C_1  and  O_2
REMARK    2  A    between atoms: O_2  and  C_3
REMARK    3  A    between atoms: C_7  and  N_8
REMARK    4  A    between atoms: C_9  and  C_11
REMARK    5  A    between atoms: N_19  and  C_20
REMARK                            x       y       z     vdW  Elec       q    Type
REMARK                         _______ _______ _______ _____ _____    ______ ____
ROOT
ATOM      1  C   UNL     1       0.216  10.109  20.276  0.00  0.00    +0.000 C 
ATOM      2  C   UNL     1       0.569   8.601  20.367  0.00  0.00    +0.000 C 
ATOM      3  C   UNL     1       1.068   8.434  21.777  0.00  0.00    +0.000 C 
ATOM      4  C   UNL     1       2.044   9.388  22.404  0.00  0.00    +0.000 C 
ATOM      5  C   UNL     1       0.553   9.619  22.555  0.00  0.00    +0.000 C 
ATOM      6  N   UNL     1      -0.188  10.525  21.650  0.00  0.00    +0.000 N 
ATOM      7  C   UNL     1      -1.267  11.256  22.163  0.00  0.00    +0.000 C 
ATOM      8  O   UNL     1      -1.531  11.094  23.363  0.00  0.00    +0.000 OA
ATOM      9  N   UNL     1      -1.991  12.156  21.365  0.00  0.00    +0.000 N 
ATOM     10  H   UNL     1      -1.545  12.563  20.549  0.00  0.00    +0.000 HD
ENDROOT
BRANCH   9  11
ATOM     11  C   UNL     1      -3.211  12.751  21.843  0.00  0.00    +0.000 A 
ATOM     12  C   UNL     1      -3.321  13.226  23.151  0.00  0.00    +0.000 A 
ATOM     13  N   UNL     1      -4.665  13.186  23.429  0.00  0.00    +0.000 N 
ATOM     14  C   UNL     1      -5.281  12.527  24.496  0.00  0.00    +0.000 C 
ATOM     15  N   UNL     1      -6.463  11.927  24.141  0.00  0.00    +0.000 N 
ATOM     16  O   UNL     1      -4.696  12.352  25.556  0.00  0.00    +0.000 OA
ATOM     17  C   UNL     1      -5.278  13.684  22.288  0.00  0.00    +0.000 A 
ATOM     18  C   UNL     1      -6.437  14.446  22.187  0.00  0.00    +0.000 A 
ATOM     19  C   UNL     1      -7.028  14.504  20.944  0.00  0.00    +0.000 A 
ATOM     20  C   UNL     1      -6.504  13.728  19.907  0.00  0.00    +0.000 A 
ATOM     21  C   UNL     1      -5.271  12.999  20.039  0.00  0.00    +0.000 A 
ATOM     22  C   UNL     1      -4.551  13.062  21.260  0.00  0.00    +0.000 A 
ATOM     23  H   UNL     1      -6.686  11.805  23.158  0.00  0.00    +0.000 HD
ATOM     24  H   UNL     1      -6.801  11.214  24.764  0.00  0.00    +0.000 HD
ENDBRANCH   9  11
BRANCH   1  26
ATOM     25  N   UNL     1      -1.613   9.892  18.631  0.00  0.00    +0.000 N 
ATOM     26  C   UNL     1      -0.558  10.639  19.113  0.00  0.00    +0.000 C 
ATOM     27  O   UNL     1      -0.207  11.747  18.678  0.00  0.00    +0.000 OA
ATOM     28  H   UNL     1      -1.761   8.969  18.999  0.00  0.00    +0.000 HD
BRANCH  25  33
ATOM     29  C   UNL     1      -2.912  10.285  15.189  0.00  0.00    +0.000 A 
ATOM     30  C   UNL     1      -4.008  11.118  15.398  0.00  0.00    +0.000 A 
ATOM     31  C   UNL     1      -4.352  11.507  16.688  0.00  0.00    +0.000 A 
ATOM     32  C   UNL     1      -3.582  11.068  17.755  0.00  0.00    +0.000 A 
ATOM     33  C   UNL     1      -2.445  10.285  17.562  0.00  0.00    +0.000 A 
ATOM     34  C   UNL     1      -2.121   9.878  16.264  0.00  0.00    +0.000 A 
BRANCH  29  36
ATOM     35  C   UNL     1      -3.844   9.858  13.069  0.00  0.00    +0.000 C 
ATOM     36  O   UNL     1      -2.679   9.959  13.880  0.00  0.00    +0.000 OA
ENDBRANCH  29  36
ENDBRANCH  25  33
ENDBRANCH   1  26
TORSDOF 4
ENDMDL
MODEL 5
REMARK VINA RESULT:      -7.1      2.546      6.590
REMARK  Name = 
REMARK  5 active torsions:
REMARK  status: ('A' for Active; 'I' for Inactive)
REMARK    1  A    between atoms: C_1  and  O_2
REMARK    2  A    between atoms: O_2  and  C_3
REMARK    3  A    between atoms: C_7  and  N_8
REMARK    4  A    between atoms: C_9  and  C_11
REMARK    5  A    between atoms: N_19  and  C_20
REMARK                            x       y       z     vdW  Elec       q    Type
REMARK                         _______ _______ _______ _____ _____    ______ ____
ROOT
ATOM      1  C   UNL     1       1.234  13.502  18.461  0.00  0.00    +0.000 C 
ATOM      2  C   UNL     1       2.653  12.991  18.100  0.00  0.00    +0.000 C 
ATOM      3  C   UNL     1       3.538  14.183  18.344  0.00  0.00    +0.000 C 
ATOM      4  C   UNL     1       3.183  15.561  17.864  0.00  0.00    +0.000 C 
ATOM      5  C   UNL     1       2.765  15.109  19.250  0.00  0.00    +0.000 C 
ATOM      6  N   UNL     1       1.423  14.545  19.512  0.00  0.00    +0.000 N 
ATOM      7  C   UNL     1       0.815  14.794  20.748  0.00  0.00    +0.000 C 
ATOM      8  O   UNL     1       1.453  15.487  21.554  0.00  0.00    +0.000 OA
ATOM      9  N   UNL     1      -0.470  14.315  21.047  0.00  0.00    +0.000 N 
ATOM     10  H   UNL     1      -1.111  14.110  20.286  0.00  0.00    +0.000 HD
ENDROOT
BRANCH   9  11
ATOM     11  C   UNL     1      -1.002  14.408  22.380  0.00  0.00    +0.000 A 
ATOM     12  C   UNL     1      -1.344  13.264  23.104  0.00  0.00    +0.000 A 
ATOM     13  N   UNL     1      -2.284  13.689  24.010  0.00  0.00    +0.000 N 
ATOM     14  C   UNL     1      -3.573  13.177  24.184  0.00  0.00    +0.000 C 
ATOM     15  N   UNL     1      -4.506  14.154  24.429  0.00  0.00    +0.000 N 
ATOM     16  O   UNL     1      -3.832  12.010  23.928  0.00  0.00    +0.000 OA
ATOM     17  C   UNL     1      -1.790  14.889  24.499  0.00  0.00    +0.000 A 
ATOM     18  C   UNL     1      -1.910  15.423  25.778  0.00  0.00    +0.000 A 
ATOM     19  C   UNL     1      -1.650  16.769  25.910  0.00  0.00    +0.000 A 
ATOM     20  C   UNL     1      -1.392  17.525  24.763  0.00  0.00    +0.000 A 
ATOM     21  C   UNL     1      -1.220  16.923  23.467  0.00  0.00    +0.000 A 
ATOM     22  C   UNL     1      -1.312  15.514  23.335  0.00  0.00    +0.000 A 
ATOM     23  H   UNL     1      -4.270  15.126  24.254  0.00  0.00    +0.000 HD
ATOM     24  H   UNL     1      -5.466  13.896  24.279  0.00  0.00    +0.000 HD
ENDBRANCH   9  11
BRANCH   1  26
ATOM     25  N   UNL     1      -0.954  12.639  17.708  0.00  0.00    +0.000 N 
ATOM     26  C   UNL     1       0.094  12.546  18.600  0.00  0.00    +0.000 C 
ATOM     27  O   UNL     1       0.192  11.703  19.506  0.00  0.00    +0.000 OA
ATOM     28  H   UNL     1      -0.976  13.411  17.066  0.00  0.00    +0.000 HD
BRANCH  25  33
ATOM     29  C   UNL     1      -4.320  11.305  18.470  0.00  0.00    +0.000 A 
ATOM     30  C   UNL     1      -4.290  10.080  17.810  0.00  0.00    +0.000 A 
ATOM     31  C   UNL     1      -3.175   9.717  17.064  0.00  0.00    +0.000 A 
ATOM     32  C   UNL     1      -2.091  10.582  17.001  0.00  0.00    +0.000 A 
ATOM     33  C   UNL     1      -2.076  11.785  17.705  0.00  0.00    +0.000 A 
ATOM     34  C   UNL     1      -3.213  12.154  18.433  0.00  0.00    +0.000 A 
BRANCH  29  36
ATOM     35  C   UNL     1      -6.274  12.610  18.629  0.00  0.00    +0.000 C 
ATOM     36  O   UNL     1      -5.475  11.559  19.160  0.00  0.00    +0.000 OA
ENDBRANCH  29  36
ENDBRANCH  25  33
ENDBRANCH   1  26
TORSDOF 4
ENDMDL
MODEL 6
REMARK VINA RESULT:      -7.1      1.995      6.513
REMARK  Name = 
REMARK  5 active torsions:
REMARK  status: ('A' for Active; 'I' for Inactive)
REMARK    1  A    between atoms: C_1  and  O_2
REMARK    2  A    between atoms: O_2  and  C_3
REMARK    3  A    between atoms: C_7  and  N_8
REMARK    4  A    between atoms: C_9  and  C_11
REMARK    5  A    between atoms: N_19  and  C_20
REMARK                            x       y       z     vdW  Elec       q    Type
REMARK                         _______ _______ _______ _____ _____    ______ ____
ROOT
ATOM      1  C   UNL     1       0.046  10.108  20.474  0.00  0.00    +0.000 C 
ATOM      2  C   UNL     1       0.070   8.592  20.799  0.00  0.00    +0.000 C 
ATOM      3  C   UNL     1       0.557   8.537  22.222  0.00  0.00    +0.000 C 
ATOM      4  C   UNL     1       1.730   9.343  22.703  0.00  0.00    +0.000 C 
ATOM      5  C   UNL     1       0.327   9.909  22.804  0.00  0.00    +0.000 C 
ATOM      6  N   UNL     1      -0.226  10.806  21.765  0.00  0.00    +0.000 N 
ATOM      7  C   UNL     1      -1.110  11.820  22.150  0.00  0.00    +0.000 C 
ATOM      8  O   UNL     1      -1.373  11.903  23.359  0.00  0.00    +0.000 OA
ATOM      9  N   UNL     1      -1.645  12.724  21.218  0.00  0.00    +0.000 N 
ATOM     10  H   UNL     1      -1.143  12.896  20.352  0.00  0.00    +0.000 HD
ENDROOT
BRANCH   9  11
ATOM     11  C   UNL     1      -2.697  13.632  21.588  0.00  0.00    +0.000 A 
ATOM     12  C   UNL     1      -2.422  14.959  21.928  0.00  0.00    +0.000 A 
ATOM     13  N   UNL     1      -3.471  15.342  22.726  0.00  0.00    +0.000 N 
ATOM     14  C   UNL     1      -3.392  15.863  24.021  0.00  0.00    +0.000 C 
ATOM     15  N   UNL     1      -4.380  15.389  24.847  0.00  0.00    +0.000 N 
ATOM     16  O   UNL     1      -2.416  16.500  24.389  0.00  0.00    +0.000 OA
ATOM     17  C   UNL     1      -4.601  14.842  22.095  0.00  0.00    +0.000 A 
ATOM     18  C   UNL     1      -5.877  15.392  22.031  0.00  0.00    +0.000 A 
ATOM     19  C   UNL     1      -6.895  14.541  21.663  0.00  0.00    +0.000 A 
ATOM     20  C   UNL     1      -6.614  13.185  21.481  0.00  0.00    +0.000 A 
ATOM     21  C   UNL     1      -5.271  12.668  21.500  0.00  0.00    +0.000 A 
ATOM     22  C   UNL     1      -4.184  13.557  21.708  0.00  0.00    +0.000 A 
ATOM     23  H   UNL     1      -4.924  14.579  24.563  0.00  0.00    +0.000 HD
ATOM     24  H   UNL     1      -4.218  15.490  25.834  0.00  0.00    +0.000 HD
ENDBRANCH   9  11
BRANCH   1  26
ATOM     25  N   UNL     1      -1.768   9.968  18.804  0.00  0.00    +0.000 N 
ATOM     26  C   UNL     1      -0.626  10.609  19.237  0.00  0.00    +0.000 C 
ATOM     27  O   UNL     1      -0.115  11.605  18.699  0.00  0.00    +0.000 OA
ATOM     28  H   UNL     1      -2.051   9.120  19.262  0.00  0.00    +0.000 HD
BRANCH  25  33
ATOM     29  C   UNL     1      -4.415  11.532  16.746  0.00  0.00    +0.000 A 
ATOM     30  C   UNL     1      -4.096  11.060  15.475  0.00  0.00    +0.000 A 
ATOM     31  C   UNL     1      -2.969  10.268  15.289  0.00  0.00    +0.000 A 
ATOM     32  C   UNL     1      -2.181   9.942  16.384  0.00  0.00    +0.000 A 
ATOM     33  C   UNL     1      -2.518  10.352  17.673  0.00  0.00    +0.000 A 
ATOM     34  C   UNL     1      -3.640  11.170  17.848  0.00  0.00    +0.000 A 
BRANCH  29  36
ATOM     35  C   UNL     1      -6.485  11.933  17.795  0.00  0.00    +0.000 C 
ATOM     36  O   UNL     1      -5.538  12.314  16.804  0.00  0.00    +0.000 OA
ENDBRANCH  29  36
ENDBRANCH  25  33
ENDBRANCH   1  26
TORSDOF 4
ENDMDL
MODEL 7
REMARK VINA RESULT:      -7.0      2.175      6.530
REMARK  Name = 
REMARK  5 active torsions:
REMARK  status: ('A' for Active; 'I' for Inactive)
REMARK    1  A    between atoms: C_1  and  O_2
REMARK    2  A    between atoms: O_2  and  C_3
REMARK    3  A    between atoms: C_7  and  N_8
REMARK    4  A    between atoms: C_9  and  C_11
REMARK    5  A    between atoms: N_19  and  C_20
REMARK                            x       y       z     vdW  Elec       q    Type
REMARK                         _______ _______ _______ _____ _____    ______ ____
ROOT
ATOM      1  C   UNL     1      -0.193  10.258  20.546  0.00  0.00    +0.000 C 
ATOM      2  C   UNL     1       0.053   8.738  20.732  0.00  0.00    +0.000 C 
ATOM      3  C   UNL     1       0.489   8.618  22.167  0.00  0.00    +0.000 C 
ATOM      4  C   UNL     1       1.506   9.540  22.779  0.00  0.00    +0.000 C 
ATOM      5  C   UNL     1       0.029   9.877  22.859  0.00  0.00    +0.000 C 
ATOM      6  N   UNL     1      -0.617  10.777  21.879  0.00  0.00    +0.000 N 
ATOM      7  C   UNL     1      -1.660  11.605  22.309  0.00  0.00    +0.000 C 
ATOM      8  O   UNL     1      -1.977  11.529  23.505  0.00  0.00    +0.000 OA
ATOM      9  N   UNL     1      -2.293  12.505  21.436  0.00  0.00    +0.000 N 
ATOM     10  H   UNL     1      -1.792  12.835  20.617  0.00  0.00    +0.000 HD
ENDROOT
BRANCH   9  11
ATOM     11  C   UNL     1      -3.486  13.205  21.833  0.00  0.00    +0.000 A 
ATOM     12  C   UNL     1      -4.753  12.723  21.499  0.00  0.00    +0.000 A 
ATOM     13  N   UNL     1      -5.565  13.830  21.512  0.00  0.00    +0.000 N 
ATOM     14  C   UNL     1      -6.373  14.289  20.467  0.00  0.00    +0.000 C 
ATOM     15  N   UNL     1      -6.374  15.657  20.356  0.00  0.00    +0.000 N 
ATOM     16  O   UNL     1      -6.839  13.517  19.641  0.00  0.00    +0.000 OA
ATOM     17  C   UNL     1      -5.194  14.531  22.649  0.00  0.00    +0.000 A 
ATOM     18  C   UNL     1      -5.989  15.293  23.500  0.00  0.00    +0.000 A 
ATOM     19  C   UNL     1      -5.332  16.169  24.335  0.00  0.00    +0.000 A 
ATOM     20  C   UNL     1      -3.948  16.318  24.209  0.00  0.00    +0.000 A 
ATOM     21  C   UNL     1      -3.158  15.469  23.358  0.00  0.00    +0.000 A 
ATOM     22  C   UNL     1      -3.792  14.441  22.614  0.00  0.00    +0.000 A 
ATOM     23  H   UNL     1      -5.667  16.199  20.844  0.00  0.00    +0.000 HD
ATOM     24  H   UNL     1      -6.689  16.028  19.476  0.00  0.00    +0.000 HD
ENDBRANCH   9  11
BRANCH   1  26
ATOM     25  N   UNL     1      -1.907  10.016  18.784  0.00  0.00    +0.000 N 
ATOM     26  C   UNL     1      -0.888  10.771  19.326  0.00  0.00    +0.000 C 
ATOM     27  O   UNL     1      -0.511  11.876  18.903  0.00  0.00    +0.000 OA
ATOM     28  H   UNL     1      -2.077   9.097  19.152  0.00  0.00    +0.000 HD
BRANCH  25  33
ATOM     29  C   UNL     1      -2.974  10.358  15.258  0.00  0.00    +0.000 A 
ATOM     30  C   UNL     1      -4.080  11.194  15.381  0.00  0.00    +0.000 A 
ATOM     31  C   UNL     1      -4.509  11.602  16.639  0.00  0.00    +0.000 A 
ATOM     32  C   UNL     1      -3.812  11.179  17.762  0.00  0.00    +0.000 A 
ATOM     33  C   UNL     1      -2.666  10.392  17.656  0.00  0.00    +0.000 A 
ATOM     34  C   UNL     1      -2.257   9.966  16.388  0.00  0.00    +0.000 A 
BRANCH  29  36
ATOM     35  C   UNL     1      -3.769   9.817  13.108  0.00  0.00    +0.000 C 
ATOM     36  O   UNL     1      -2.656  10.011  13.972  0.00  0.00    +0.000 OA
ENDBRANCH  29  36
ENDBRANCH  25  33
ENDBRANCH   1  26
TORSDOF 4
ENDMDL
MODEL 8
REMARK VINA RESULT:      -6.9      2.883      6.656
REMARK  Name = 
REMARK  5 active torsions:
REMARK  status: ('A' for Active; 'I' for Inactive)
REMARK    1  A    between atoms: C_1  and  O_2
REMARK    2  A    between atoms: O_2  and  C_3
REMARK    3  A    between atoms: C_7  and  N_8
REMARK    4  A    between atoms: C_9  and  C_11
REMARK    5  A    between atoms: N_19  and  C_20
REMARK                            x       y       z     vdW  Elec       q    Type
REMARK                         _______ _______ _______ _____ _____    ______ ____
ROOT
ATOM      1  C   UNL     1       1.434  13.709  18.543  0.00  0.00    +0.000 C 
ATOM      2  C   UNL     1       2.862  13.214  18.197  0.00  0.00    +0.000 C 
ATOM      3  C   UNL     1       3.737  14.403  18.492  0.00  0.00    +0.000 C 
ATOM      4  C   UNL     1       3.384  15.792  18.043  0.00  0.00    +0.000 C 
ATOM      5  C   UNL     1       2.941  15.300  19.407  0.00  0.00    +0.000 C 
ATOM      6  N   UNL     1       1.596  14.723  19.626  0.00  0.00    +0.000 N 
ATOM      7  C   UNL     1       0.963  14.935  20.856  0.00  0.00    +0.000 C 
ATOM      8  O   UNL     1       1.581  15.608  21.693  0.00  0.00    +0.000 OA
ATOM      9  N   UNL     1      -0.326  14.442  21.115  0.00  0.00    +0.000 N 
ATOM     10  H   UNL     1      -0.950  14.256  20.336  0.00  0.00    +0.000 HD
ENDROOT
BRANCH   9  11
ATOM     11  C   UNL     1      -0.886  14.495  22.439  0.00  0.00    +0.000 A 
ATOM     12  C   UNL     1      -1.236  13.330  23.124  0.00  0.00    +0.000 A 
ATOM     13  N   UNL     1      -2.196  13.726  24.023  0.00  0.00    +0.000 N 
ATOM     14  C   UNL     1      -3.486  13.203  24.156  0.00  0.00    +0.000 C 
ATOM     15  N   UNL     1      -4.428  14.168  24.409  0.00  0.00    +0.000 N 
ATOM     16  O   UNL     1      -3.733  12.042  23.862  0.00  0.00    +0.000 OA
ATOM     17  C   UNL     1      -1.718  14.914  24.554  0.00  0.00    +0.000 A 
ATOM     18  C   UNL     1      -1.867  15.412  25.845  0.00  0.00    +0.000 A 
ATOM     19  C   UNL     1      -1.618  16.755  26.019  0.00  0.00    +0.000 A 
ATOM     20  C   UNL     1      -1.340  17.544  24.899  0.00  0.00    +0.000 A 
ATOM     21  C   UNL     1      -1.138  16.979  23.591  0.00  0.00    +0.000 A 
ATOM     22  C   UNL     1      -1.221  15.574  23.417  0.00  0.00    +0.000 A 
ATOM     23  H   UNL     1      -4.194  15.146  24.265  0.00  0.00    +0.000 HD
ATOM     24  H   UNL     1      -5.384  13.910  24.232  0.00  0.00    +0.000 HD
ENDBRANCH   9  11
BRANCH   1  26
ATOM     25  N   UNL     1      -0.794  12.937  17.809  0.00  0.00    +0.000 N 
ATOM     26  C   UNL     1       0.296  12.745  18.632  0.00  0.00    +0.000 C 
ATOM     27  O   UNL     1       0.433  11.807  19.434  0.00  0.00    +0.000 OA
ATOM     28  H   UNL     1      -0.842  13.775  17.257  0.00  0.00    +0.000 HD
BRANCH  25  33
ATOM     29  C   UNL     1      -3.190  10.383  16.616  0.00  0.00    +0.000 A 
ATOM     30  C   UNL     1      -4.185  10.459  17.587  0.00  0.00    +0.000 A 
ATOM     31  C   UNL     1      -4.038  11.318  18.670  0.00  0.00    +0.000 A 
ATOM     32  C   UNL     1      -2.899  12.105  18.760  0.00  0.00    +0.000 A 
ATOM     33  C   UNL     1      -1.920  12.089  17.767  0.00  0.00    +0.000 A 
ATOM     34  C   UNL     1      -2.064  11.204  16.694  0.00  0.00    +0.000 A 
BRANCH  29  36
ATOM     35  C   UNL     1      -3.475  10.059  14.301  0.00  0.00    +0.000 C 
ATOM     36  O   UNL     1      -3.439   9.492  15.606  0.00  0.00    +0.000 OA
ENDBRANCH  29  36
ENDBRANCH  25  33
ENDBRANCH   1  26
TORSDOF 4
ENDMDL
MODEL 9
REMARK VINA RESULT:      -6.9      1.863      2.378
REMARK  Name = 
REMARK  5 active torsions:
REMARK  status: ('A' for Active; 'I' for Inactive)
REMARK    1  A    between atoms: C_1  and  O_2
REMARK    2  A    between atoms: O_2  and  C_3
REMARK    3  A    between atoms: C_7  and  N_8
REMARK    4  A    between atoms: C_9  and  C_11
REMARK    5  A    between atoms: N_19  and  C_20
REMARK                            x       y       z     vdW  Elec       q    Type
REMARK                         _______ _______ _______ _____ _____    ______ ____
ROOT
ATOM      1  C   UNL     1      -2.944  14.116  24.265  0.00  0.00    +0.000 C 
ATOM      2  C   UNL     1      -3.605  15.435  24.742  0.00  0.00    +0.000 C 
ATOM      3  C   UNL     1      -2.467  16.204  25.358  0.00  0.00    +0.000 C 
ATOM      4  C   UNL     1      -1.483  15.570  26.299  0.00  0.00    +0.000 C 
ATOM      5  C   UNL     1      -1.199  15.600  24.810  0.00  0.00    +0.000 C 
ATOM      6  N   UNL     1      -1.529  14.456  23.932  0.00  0.00    +0.000 N 
ATOM      7  C   UNL     1      -0.698  14.180  22.841  0.00  0.00    +0.000 C 
ATOM      8  O   UNL     1       0.280  14.924  22.681  0.00  0.00    +0.000 OA
ATOM      9  N   UNL     1      -0.939  13.090  21.989  0.00  0.00    +0.000 N 
ATOM     10  H   UNL     1      -1.467  12.296  22.338  0.00  0.00    +0.000 HD
ENDROOT
BRANCH   9  11
ATOM     11  C   UNL     1      -0.200  12.930  20.765  0.00  0.00    +0.000 A 
ATOM     12  C   UNL     1      -0.807  12.426  19.613  0.00  0.00    +0.000 A 
ATOM     13  N   UNL     1       0.223  11.896  18.876  0.00  0.00    +0.000 N 
ATOM     14  C   UNL     1       0.324  10.587  18.396  0.00  0.00    +0.000 C 
ATOM     15  N   UNL     1       1.598  10.084  18.484  0.00  0.00    +0.000 N 
ATOM     16  O   UNL     1      -0.674   9.929  18.135  0.00  0.00    +0.000 OA
ATOM     17  C   UNL     1       1.241  12.835  18.960  0.00  0.00    +0.000 A 
ATOM     18  C   UNL     1       2.187  13.180  18.000  0.00  0.00    +0.000 A 
ATOM     19  C   UNL     1       3.294  13.866  18.447  0.00  0.00    +0.000 A 
ATOM     20  C   UNL     1       3.453  14.078  19.819  0.00  0.00    +0.000 A 
ATOM     21  C   UNL     1       2.423  13.755  20.771  0.00  0.00    +0.000 A 
ATOM     22  C   UNL     1       1.198  13.204  20.315  0.00  0.00    +0.000 A 
ATOM     23  H   UNL     1       2.286  10.563  19.057  0.00  0.00    +0.000 HD
ATOM     24  H   UNL     1       1.682   9.084  18.430  0.00  0.00    +0.000 HD
ENDBRANCH   9  11
BRANCH   1  26
ATOM     25  N   UNL     1      -4.599  13.704  22.478  0.00  0.00    +0.000 N 
ATOM     26  C   UNL     1      -3.683  13.178  23.365  0.00  0.00    +0.000 C 
ATOM     27  O   UNL     1      -3.388  11.976  23.464  0.00  0.00    +0.000 OA
ATOM     28  H   UNL     1      -4.825  14.681  22.538  0.00  0.00    +0.000 HD
BRANCH  25  33
ATOM     29  C   UNL     1      -5.563  12.018  19.329  0.00  0.00    +0.000 A 
ATOM     30  C   UNL     1      -6.822  11.520  19.654  0.00  0.00    +0.000 A 
ATOM     31  C   UNL     1      -7.331  11.693  20.936  0.00  0.00    +0.000 A 
ATOM     32  C   UNL     1      -6.577  12.381  21.876  0.00  0.00    +0.000 A 
ATOM     33  C   UNL     1      -5.342  12.941  21.554  0.00  0.00    +0.000 A 
ATOM     34  C   UNL     1      -4.826  12.740  20.269  0.00  0.00    +0.000 A 
BRANCH  29  36
ATOM     35  C   UNL     1      -3.788  11.436  17.896  0.00  0.00    +0.000 C 
ATOM     36  O   UNL     1      -5.162  11.774  18.043  0.00  0.00    +0.000 OA
ENDBRANCH  29  36
ENDBRANCH  25  33
ENDBRANCH   1  26
TORSDOF 4
ENDMDL
