MODEL 1
REMARK VINA RESULT:      -8.6      0.000      0.000
REMARK  Name = 
REMARK  6 active torsions:
REMARK  status: ('A' for Active; 'I' for Inactive)
REMARK    1  A    between atoms: C_1  and  C_2
REMARK    2  A    between atoms: C_7  and  C_8
REMARK    3  A    between atoms: C_9  and  O_10
REMARK    4  A    between atoms: O_10  and  C_11
REMARK    5  A    between atoms: N_13  and  N_14
REMARK    6  A    between atoms: N_14  and  C_15
REMARK                            x       y       z     vdW  Elec       q    Type
REMARK                         _______ _______ _______ _____ _____    ______ ____
ROOT
ATOM      1  C   UNL     1       3.286   5.557  19.536  0.00  0.00    +0.000 A 
ATOM      2  N   UNL     1       4.486   5.548  19.075  0.00  0.00    +0.000 NA
ATOM      3  N   UNL     1       4.881   4.485  18.318  0.00  0.00    +0.000 N 
ATOM      4  C   UNL     1       4.101   3.358  18.042  0.00  0.00    +0.000 A 
ATOM      5  O   UNL     1       4.480   2.399  17.369  0.00  0.00    +0.000 OA
ATOM      6  C   UNL     1       2.746   3.363  18.631  0.00  0.00    +0.000 A 
ATOM      7  C   UNL     1       1.906   2.252  18.489  0.00  0.00    +0.000 A 
ATOM      8  C   UNL     1       0.654   2.247  19.104  0.00  0.00    +0.000 A 
ATOM      9  C   UNL     1       0.236   3.350  19.851  0.00  0.00    +0.000 A 
ATOM     10  C   UNL     1       1.065   4.464  19.984  0.00  0.00    +0.000 A 
ATOM     11  C   UNL     1       2.320   4.468  19.366  0.00  0.00    +0.000 A 
ENDROOT
BRANCH   3  12
ATOM     12  N   UNL     1       6.235   4.415  17.932  0.00  0.00    +0.000 N 
ATOM     13  H   UNL     1       6.306   3.972  17.009  0.00  0.00    +0.000 HD
BRANCH  12  14
ATOM     14  C   UNL     1       6.940   5.645  17.948  0.00  0.00    +0.000 A 
ATOM     15  C   UNL     1       7.811   5.901  19.016  0.00  0.00    +0.000 A 
ATOM     16  C   UNL     1       8.439   7.148  19.135  0.00  0.00    +0.000 A 
ATOM     17  C   UNL     1       8.212   8.133  18.174  0.00  0.00    +0.000 A 
ATOM     18 CL   UNL     1       8.915   9.692  18.354  0.00  0.00    +0.000 Cl
ATOM     19  C   UNL     1       7.413   7.867  17.070  0.00  0.00    +0.000 A 
ATOM     20  C   UNL     1       6.812   6.615  16.944  0.00  0.00    +0.000 A 
ENDBRANCH  12  14
ENDBRANCH   3  12
BRANCH   1  21
ATOM     21  O   UNL     1       2.757   6.605  20.284  0.00  0.00    +0.000 OA
BRANCH  21  30
ATOM     22  C   UNL     1       0.795   7.942  21.948  0.00  0.00    +0.000 C 
ATOM     23  C   UNL     1       1.129   8.384  20.552  0.00  0.00    +0.000 A 
ATOM     24  C   UNL     1       0.504   9.543  20.057  0.00  0.00    +0.000 A 
ATOM     25  C   UNL     1       0.781   9.999  18.772  0.00  0.00    +0.000 A 
ATOM     26 CL   UNL     1       0.053  11.452  18.202  0.00  0.00    +0.000 Cl
ATOM     27  C   UNL     1       1.670   9.309  17.955  0.00  0.00    +0.000 A 
ATOM     28  C   UNL     1       2.329   8.156  18.419  0.00  0.00    +0.000 A 
ATOM     29  C   UNL     1       3.325   7.510  17.502  0.00  0.00    +0.000 C 
ATOM     30  C   UNL     1       2.021   7.682  19.710  0.00  0.00    +0.000 A 
ENDBRANCH  21  30
ENDBRANCH   1  21
TORSDOF 4
ENDMDL
MODEL 2
REMARK VINA RESULT:      -8.5      1.338      5.802
REMARK  Name = 
REMARK  6 active torsions:
REMARK  status: ('A' for Active; 'I' for Inactive)
REMARK    1  A    between atoms: C_1  and  C_2
REMARK    2  A    between atoms: C_7  and  C_8
REMARK    3  A    between atoms: C_9  and  O_10
REMARK    4  A    between atoms: O_10  and  C_11
REMARK    5  A    between atoms: N_13  and  N_14
REMARK    6  A    between atoms: N_14  and  C_15
REMARK                            x       y       z     vdW  Elec       q    Type
REMARK                         _______ _______ _______ _____ _____    ______ ____
ROOT
ATOM      1  C   UNL     1       4.317   5.053  18.850  0.00  0.00    +0.000 A 
ATOM      2  N   UNL     1       3.990   6.068  19.567  0.00  0.00    +0.000 NA
ATOM      3  N   UNL     1       2.794   6.039  20.222  0.00  0.00    +0.000 N 
ATOM      4  C   UNL     1       1.851   5.011  20.134  0.00  0.00    +0.000 A 
ATOM      5  O   UNL     1       0.768   5.009  20.720  0.00  0.00    +0.000 OA
ATOM      6  C   UNL     1       2.223   3.881  19.257  0.00  0.00    +0.000 A 
ATOM      7  C   UNL     1       1.323   2.833  19.029  0.00  0.00    +0.000 A 
ATOM      8  C   UNL     1       1.664   1.805  18.149  0.00  0.00    +0.000 A 
ATOM      9  C   UNL     1       2.903   1.817  17.505  0.00  0.00    +0.000 A 
ATOM     10  C   UNL     1       3.808   2.853  17.740  0.00  0.00    +0.000 A 
ATOM     11  C   UNL     1       3.464   3.883  18.623  0.00  0.00    +0.000 A 
ENDROOT
BRANCH   3  12
ATOM     12  N   UNL     1       2.379   7.208  20.893  0.00  0.00    +0.000 N 
ATOM     13  H   UNL     1       3.189   7.649  21.345  0.00  0.00    +0.000 HD
BRANCH  12  14
ATOM     14  C   UNL     1       1.678   8.152  20.101  0.00  0.00    +0.000 A 
ATOM     15  C   UNL     1       0.684   8.929  20.713  0.00  0.00    +0.000 A 
ATOM     16  C   UNL     1      -0.113   9.790  19.946  0.00  0.00    +0.000 A 
ATOM     17  C   UNL     1       0.097   9.890  18.572  0.00  0.00    +0.000 A 
ATOM     18 CL   UNL     1      -0.928  10.883  17.613  0.00  0.00    +0.000 Cl
ATOM     19  C   UNL     1       1.128   9.185  17.965  0.00  0.00    +0.000 A 
ATOM     20  C   UNL     1       1.935   8.350  18.737  0.00  0.00    +0.000 A 
ENDBRANCH  12  14
ENDBRANCH   3  12
BRANCH   1  21
ATOM     21  O   UNL     1       5.528   4.948  18.171  0.00  0.00    +0.000 OA
BRANCH  21  30
ATOM     22  C   UNL     1       4.907   6.949  16.167  0.00  0.00    +0.000 C 
ATOM     23  C   UNL     1       6.081   7.053  17.098  0.00  0.00    +0.000 A 
ATOM     24  C   UNL     1       6.876   8.211  17.034  0.00  0.00    +0.000 A 
ATOM     25  C   UNL     1       7.973   8.362  17.877  0.00  0.00    +0.000 A 
ATOM     26 CL   UNL     1       8.902   9.810  17.827  0.00  0.00    +0.000 Cl
ATOM     27  C   UNL     1       8.305   7.363  18.786  0.00  0.00    +0.000 A 
ATOM     28  C   UNL     1       7.524   6.198  18.894  0.00  0.00    +0.000 A 
ATOM     29  C   UNL     1       7.908   5.201  19.948  0.00  0.00    +0.000 C 
ATOM     30  C   UNL     1       6.434   6.038  18.016  0.00  0.00    +0.000 A 
ENDBRANCH  21  30
ENDBRANCH   1  21
TORSDOF 4
ENDMDL
MODEL 3
REMARK VINA RESULT:      -8.2      7.979     10.245
REMARK  Name = 
REMARK  6 active torsions:
REMARK  status: ('A' for Active; 'I' for Inactive)
REMARK    1  A    between atoms: C_1  and  C_2
REMARK    2  A    between atoms: C_7  and  C_8
REMARK    3  A    between atoms: C_9  and  O_10
REMARK    4  A    between atoms: O_10  and  C_11
REMARK    5  A    between atoms: N_13  and  N_14
REMARK    6  A    between atoms: N_14  and  C_15
REMARK                            x       y       z     vdW  Elec       q    Type
REMARK                         _______ _______ _______ _____ _____    ______ ____
ROOT
ATOM      1  C   UNL     1      -3.627  12.266  19.326  0.00  0.00    +0.000 A 
ATOM      2  N   UNL     1      -2.829  12.318  20.332  0.00  0.00    +0.000 NA
ATOM      3  N   UNL     1      -1.631  11.675  20.243  0.00  0.00    +0.000 N 
ATOM      4  C   UNL     1      -1.209  10.903  19.156  0.00  0.00    +0.000 A 
ATOM      5  O   UNL     1      -0.128  10.315  19.099  0.00  0.00    +0.000 OA
ATOM      6  C   UNL     1      -2.166  10.809  18.034  0.00  0.00    +0.000 A 
ATOM      7  C   UNL     1      -1.886   9.998  16.928  0.00  0.00    +0.000 A 
ATOM      8  C   UNL     1      -2.828   9.869  15.906  0.00  0.00    +0.000 A 
ATOM      9  C   UNL     1      -4.041  10.555  15.982  0.00  0.00    +0.000 A 
ATOM     10  C   UNL     1      -4.319  11.375  17.077  0.00  0.00    +0.000 A 
ATOM     11  C   UNL     1      -3.373  11.502  18.100  0.00  0.00    +0.000 A 
ENDROOT
BRANCH   3  12
ATOM     12  N   UNL     1      -0.822  11.620  21.397  0.00  0.00    +0.000 N 
ATOM     13  H   UNL     1       0.092  11.220  21.155  0.00  0.00    +0.000 HD
BRANCH  12  14
ATOM     14  C   UNL     1      -0.660  12.846  22.090  0.00  0.00    +0.000 A 
ATOM     15  C   UNL     1      -1.463  13.088  23.214  0.00  0.00    +0.000 A 
ATOM     16  C   UNL     1      -1.421  14.331  23.859  0.00  0.00    +0.000 A 
ATOM     17  C   UNL     1      -0.561  15.325  23.394  0.00  0.00    +0.000 A 
ATOM     18 CL   UNL     1      -0.561  16.879  24.130  0.00  0.00    +0.000 Cl
ATOM     19  C   UNL     1       0.295  15.073  22.330  0.00  0.00    +0.000 A 
ATOM     20  C   UNL     1       0.267  13.826  21.708  0.00  0.00    +0.000 A 
ENDBRANCH  12  14
ENDBRANCH   3  12
BRANCH   1  21
ATOM     21  O   UNL     1      -4.856  12.916  19.283  0.00  0.00    +0.000 OA
BRANCH  21  30
ATOM     22  C   UNL     1      -6.867  10.960  20.017  0.00  0.00    +0.000 C 
ATOM     23  C   UNL     1      -6.563  12.177  20.843  0.00  0.00    +0.000 A 
ATOM     24  C   UNL     1      -7.243  12.336  22.063  0.00  0.00    +0.000 A 
ATOM     25  C   UNL     1      -6.996  13.443  22.870  0.00  0.00    +0.000 A 
ATOM     26 CL   UNL     1      -7.793  13.594  24.388  0.00  0.00    +0.000 Cl
ATOM     27  C   UNL     1      -6.082  14.413  22.474  0.00  0.00    +0.000 A 
ATOM     28  C   UNL     1      -5.367  14.282  21.269  0.00  0.00    +0.000 A 
ATOM     29  C   UNL     1      -4.348  15.336  20.949  0.00  0.00    +0.000 C 
ATOM     30  C   UNL     1      -5.645  13.175  20.443  0.00  0.00    +0.000 A 
ENDBRANCH  21  30
ENDBRANCH   1  21
TORSDOF 4
ENDMDL
MODEL 4
REMARK VINA RESULT:      -8.1      6.175      9.920
REMARK  Name = 
REMARK  6 active torsions:
REMARK  status: ('A' for Active; 'I' for Inactive)
REMARK    1  A    between atoms: C_1  and  C_2
REMARK    2  A    between atoms: C_7  and  C_8
REMARK    3  A    between atoms: C_9  and  O_10
REMARK    4  A    between atoms: O_10  and  C_11
REMARK    5  A    between atoms: N_13  and  N_14
REMARK    6  A    between atoms: N_14  and  C_15
REMARK                            x       y       z     vdW  Elec       q    Type
REMARK                         _______ _______ _______ _____ _____    ______ ____
ROOT
ATOM      1  C   UNL     1      -0.794  12.560  21.831  0.00  0.00    +0.000 A 
ATOM      2  N   UNL     1       0.214  13.281  21.491  0.00  0.00    +0.000 NA
ATOM      3  N   UNL     1       0.451  14.431  22.183  0.00  0.00    +0.000 N 
ATOM      4  C   UNL     1      -0.354  14.935  23.210  0.00  0.00    +0.000 A 
ATOM      5  O   UNL     1      -0.133  15.985  23.814  0.00  0.00    +0.000 OA
ATOM      6  C   UNL     1      -1.540  14.120  23.544  0.00  0.00    +0.000 A 
ATOM      7  C   UNL     1      -2.461  14.566  24.500  0.00  0.00    +0.000 A 
ATOM      8  C   UNL     1      -3.610  13.817  24.759  0.00  0.00    +0.000 A 
ATOM      9  C   UNL     1      -3.835  12.621  24.074  0.00  0.00    +0.000 A 
ATOM     10  C   UNL     1      -2.913  12.166  23.130  0.00  0.00    +0.000 A 
ATOM     11  C   UNL     1      -1.762  12.920  22.872  0.00  0.00    +0.000 A 
ENDROOT
BRANCH   3  12
ATOM     12  N   UNL     1       1.473  15.284  21.719  0.00  0.00    +0.000 N 
ATOM     13  H   UNL     1       2.358  14.767  21.677  0.00  0.00    +0.000 HD
BRANCH  12  14
ATOM     14  C   UNL     1       1.216  15.930  20.482  0.00  0.00    +0.000 A 
ATOM     15  C   UNL     1       2.196  15.867  19.481  0.00  0.00    +0.000 A 
ATOM     16  C   UNL     1       2.037  16.586  18.289  0.00  0.00    +0.000 A 
ATOM     17  C   UNL     1       0.889  17.351  18.089  0.00  0.00    +0.000 A 
ATOM     18 CL   UNL     1       0.721  18.300  16.664  0.00  0.00    +0.000 Cl
ATOM     19  C   UNL     1      -0.124  17.361  19.038  0.00  0.00    +0.000 A 
ATOM     20  C   UNL     1       0.028  16.623  20.211  0.00  0.00    +0.000 A 
ENDBRANCH  12  14
ENDBRANCH   3  12
BRANCH   1  21
ATOM     21  O   UNL     1      -1.112  11.347  21.228  0.00  0.00    +0.000 OA
BRANCH  21  30
ATOM     22  C   UNL     1       0.512   9.378  22.603  0.00  0.00    +0.000 C 
ATOM     23  C   UNL     1       0.543   9.576  21.115  0.00  0.00    +0.000 A 
ATOM     24  C   UNL     1       1.351   8.717  20.349  0.00  0.00    +0.000 A 
ATOM     25  C   UNL     1       1.414   8.853  18.966  0.00  0.00    +0.000 A 
ATOM     26 CL   UNL     1       2.362   7.756  18.037  0.00  0.00    +0.000 Cl
ATOM     27  C   UNL     1       0.686   9.847  18.322  0.00  0.00    +0.000 A 
ATOM     28  C   UNL     1      -0.150  10.715  19.050  0.00  0.00    +0.000 A 
ATOM     29  C   UNL     1      -0.954  11.716  18.274  0.00  0.00    +0.000 C 
ATOM     30  C   UNL     1      -0.183  10.592  20.453  0.00  0.00    +0.000 A 
ENDBRANCH  21  30
ENDBRANCH   1  21
TORSDOF 4
ENDMDL
MODEL 5
REMARK VINA RESULT:      -8.1      2.031      2.491
REMARK  Name = 
REMARK  6 active torsions:
REMARK  status: ('A' for Active; 'I' for Inactive)
REMARK    1  A    between atoms: C_1  and  C_2
REMARK    2  A    between atoms: C_7  and  C_8
REMARK    3  A    between atoms: C_9  and  O_10
REMARK    4  A    between atoms: O_10  and  C_11
REMARK    5  A    between atoms: N_13  and  N_14
REMARK    6  A    between atoms: N_14  and  C_15
REMARK                            x       y       z     vdW  Elec       q    Type
REMARK                         _______ _______ _______ _____ _____    ______ ____
ROOT
ATOM      1  C   UNL     1       3.558   5.635  19.457  0.00  0.00    +0.000 A 
ATOM      2  N   UNL     1       4.702   5.431  18.909  0.00  0.00    +0.000 NA
ATOM      3  N   UNL     1       4.928   4.227  18.310  0.00  0.00    +0.000 N 
ATOM      4  C   UNL     1       4.029   3.156  18.289  0.00  0.00    +0.000 A 
ATOM      5  O   UNL     1       4.257   2.069  17.756  0.00  0.00    +0.000 OA
ATOM      6  C   UNL     1       2.743   3.392  18.976  0.00  0.00    +0.000 A 
ATOM      7  C   UNL     1       1.799   2.365  19.090  0.00  0.00    +0.000 A 
ATOM      8  C   UNL     1       0.617   2.584  19.797  0.00  0.00    +0.000 A 
ATOM      9  C   UNL     1       0.370   3.828  20.381  0.00  0.00    +0.000 A 
ATOM     10  C   UNL     1       1.303   4.859  20.260  0.00  0.00    +0.000 A 
ATOM     11  C   UNL     1       2.489   4.637  19.550  0.00  0.00    +0.000 A 
ENDROOT
BRANCH   3  12
ATOM     12  N   UNL     1       6.227   3.959  17.833  0.00  0.00    +0.000 N 
ATOM     13  H   UNL     1       6.454   2.971  17.993  0.00  0.00    +0.000 HD
BRANCH  12  14
ATOM     14  C   UNL     1       6.467   4.311  16.480  0.00  0.00    +0.000 A 
ATOM     15  C   UNL     1       5.810   3.585  15.476  0.00  0.00    +0.000 A 
ATOM     16  C   UNL     1       6.105   3.819  14.126  0.00  0.00    +0.000 A 
ATOM     17  C   UNL     1       7.040   4.793  13.779  0.00  0.00    +0.000 A 
ATOM     18 CL   UNL     1       7.467   5.031  12.130  0.00  0.00    +0.000 Cl
ATOM     19  C   UNL     1       7.641   5.572  14.759  0.00  0.00    +0.000 A 
ATOM     20  C   UNL     1       7.325   5.352  16.099  0.00  0.00    +0.000 A 
ENDBRANCH  12  14
ENDBRANCH   3  12
BRANCH   1  21
ATOM     21  O   UNL     1       3.197   6.836  20.061  0.00  0.00    +0.000 OA
BRANCH  21  30
ATOM     22  C   UNL     1       1.261   8.047  21.847  0.00  0.00    +0.000 C 
ATOM     23  C   UNL     1       1.363   8.391  20.389  0.00  0.00    +0.000 A 
ATOM     24  C   UNL     1       0.520   9.397  19.885  0.00  0.00    +0.000 A 
ATOM     25  C   UNL     1       0.576   9.759  18.542  0.00  0.00    +0.000 A 
ATOM     26 CL   UNL     1      -0.420  11.033  17.954  0.00  0.00    +0.000 Cl
ATOM     27  C   UNL     1       1.459   9.121  17.678  0.00  0.00    +0.000 A 
ATOM     28  C   UNL     1       2.333   8.122  18.146  0.00  0.00    +0.000 A 
ATOM     29  C   UNL     1       3.302   7.532  17.165  0.00  0.00    +0.000 C 
ATOM     30  C   UNL     1       2.248   7.739  19.500  0.00  0.00    +0.000 A 
ENDBRANCH  21  30
ENDBRANCH   1  21
TORSDOF 4
ENDMDL
MODEL 6
REMARK VINA RESULT:      -8.1      2.297      3.130
REMARK  Name = 
REMARK  6 active torsions:
REMARK  status: ('A' for Active; 'I' for Inactive)
REMARK    1  A    between atoms: C_1  and  C_2
REMARK    2  A    between atoms: C_7  and  C_8
REMARK    3  A    between atoms: C_9  and  O_10
REMARK    4  A    between atoms: O_10  and  C_11
REMARK    5  A    between atoms: N_13  and  N_14
REMARK    6  A    between atoms: N_14  and  C_15
REMARK                            x       y       z     vdW  Elec       q    Type
REMARK                         _______ _______ _______ _____ _____    ______ ____
ROOT
ATOM      1  C   UNL     1       2.618   6.139  19.815  0.00  0.00    +0.000 A 
ATOM      2  N   UNL     1       3.673   6.549  19.205  0.00  0.00    +0.000 NA
ATOM      3  N   UNL     1       4.652   5.642  18.926  0.00  0.00    +0.000 N 
ATOM      4  C   UNL     1       4.636   4.296  19.302  0.00  0.00    +0.000 A 
ATOM      5  O   UNL     1       5.538   3.495  19.056  0.00  0.00    +0.000 OA
ATOM      6  C   UNL     1       3.440   3.861  20.054  0.00  0.00    +0.000 A 
ATOM      7  C   UNL     1       3.351   2.555  20.552  0.00  0.00    +0.000 A 
ATOM      8  C   UNL     1       2.245   2.178  21.314  0.00  0.00    +0.000 A 
ATOM      9  C   UNL     1       1.225   3.097  21.571  0.00  0.00    +0.000 A 
ATOM     10  C   UNL     1       1.304   4.395  21.065  0.00  0.00    +0.000 A 
ATOM     11  C   UNL     1       2.415   4.771  20.301  0.00  0.00    +0.000 A 
ENDROOT
BRANCH   3  12
ATOM     12  N   UNL     1       5.862   6.123  18.383  0.00  0.00    +0.000 N 
ATOM     13  H   UNL     1       6.640   5.867  19.002  0.00  0.00    +0.000 HD
BRANCH  12  14
ATOM     14  C   UNL     1       6.135   5.723  17.050  0.00  0.00    +0.000 A 
ATOM     15  C   UNL     1       5.192   6.025  16.057  0.00  0.00    +0.000 A 
ATOM     16  C   UNL     1       5.364   5.548  14.751  0.00  0.00    +0.000 A 
ATOM     17  C   UNL     1       6.488   4.788  14.432  0.00  0.00    +0.000 A 
ATOM     18 CL   UNL     1       6.666   4.132  12.852  0.00  0.00    +0.000 Cl
ATOM     19  C   UNL     1       7.467   4.546  15.386  0.00  0.00    +0.000 A 
ATOM     20  C   UNL     1       7.303   5.044  16.678  0.00  0.00    +0.000 A 
ENDBRANCH  12  14
ENDBRANCH   3  12
BRANCH   1  21
ATOM     21  O   UNL     1       1.535   6.960  20.116  0.00  0.00    +0.000 OA
BRANCH  21  30
ATOM     22  C   UNL     1       2.005   7.851  17.397  0.00  0.00    +0.000 C 
ATOM     23  C   UNL     1       1.668   8.786  18.523  0.00  0.00    +0.000 A 
ATOM     24  C   UNL     1       1.509  10.151  18.225  0.00  0.00    +0.000 A 
ATOM     25  C   UNL     1       1.192  11.061  19.230  0.00  0.00    +0.000 A 
ATOM     26 CL   UNL     1       0.943  12.719  18.839  0.00  0.00    +0.000 Cl
ATOM     27  C   UNL     1       1.039  10.633  20.544  0.00  0.00    +0.000 A 
ATOM     28  C   UNL     1       1.171   9.273  20.880  0.00  0.00    +0.000 A 
ATOM     29  C   UNL     1       0.923   8.884  22.308  0.00  0.00    +0.000 C 
ATOM     30  C   UNL     1       1.524   8.363  19.864  0.00  0.00    +0.000 A 
ENDBRANCH  21  30
ENDBRANCH   1  21
TORSDOF 4
ENDMDL
MODEL 7
REMARK VINA RESULT:      -8.1      7.017     10.191
REMARK  Name = 
REMARK  6 active torsions:
REMARK  status: ('A' for Active; 'I' for Inactive)
REMARK    1  A    between atoms: C_1  and  C_2
REMARK    2  A    between atoms: C_7  and  C_8
REMARK    3  A    between atoms: C_9  and  O_10
REMARK    4  A    between atoms: O_10  and  C_11
REMARK    5  A    between atoms: N_13  and  N_14
REMARK    6  A    between atoms: N_14  and  C_15
REMARK                            x       y       z     vdW  Elec       q    Type
REMARK                         _______ _______ _______ _____ _____    ______ ____
ROOT
ATOM      1  C   UNL     1      -0.859  12.638  21.642  0.00  0.00    +0.000 A 
ATOM      2  N   UNL     1       0.152  13.286  21.184  0.00  0.00    +0.000 NA
ATOM      3  N   UNL     1       0.547  14.416  21.836  0.00  0.00    +0.000 N 
ATOM      4  C   UNL     1      -0.097  14.974  22.945  0.00  0.00    +0.000 A 
ATOM      5  O   UNL     1       0.265  16.005  23.512  0.00  0.00    +0.000 OA
ATOM      6  C   UNL     1      -1.291  14.245  23.419  0.00  0.00    +0.000 A 
ATOM      7  C   UNL     1      -2.063  14.754  24.470  0.00  0.00    +0.000 A 
ATOM      8  C   UNL     1      -3.224  14.088  24.864  0.00  0.00    +0.000 A 
ATOM      9  C   UNL     1      -3.610  12.911  24.218  0.00  0.00    +0.000 A 
ATOM     10  C   UNL     1      -2.836  12.394  23.178  0.00  0.00    +0.000 A 
ATOM     11  C   UNL     1      -1.673  13.064  22.785  0.00  0.00    +0.000 A 
ENDROOT
BRANCH   3  12
ATOM     12  N   UNL     1       1.567  15.195  21.251  0.00  0.00    +0.000 N 
ATOM     13  H   UNL     1       2.392  14.608  21.082  0.00  0.00    +0.000 HD
BRANCH  12  14
ATOM     14  C   UNL     1       1.203  15.893  20.072  0.00  0.00    +0.000 A 
ATOM     15  C   UNL     1       2.201  16.173  19.128  0.00  0.00    +0.000 A 
ATOM     16  C   UNL     1       1.913  16.961  18.006  0.00  0.00    +0.000 A 
ATOM     17  C   UNL     1       0.622  17.452  17.816  0.00  0.00    +0.000 A 
ATOM     18 CL   UNL     1       0.279  18.484  16.484  0.00  0.00    +0.000 Cl
ATOM     19  C   UNL     1      -0.394  17.119  18.702  0.00  0.00    +0.000 A 
ATOM     20  C   UNL     1      -0.107  16.313  19.803  0.00  0.00    +0.000 A 
ENDBRANCH  12  14
ENDBRANCH   3  12
BRANCH   1  21
ATOM     21  O   UNL     1      -1.328  11.451  21.087  0.00  0.00    +0.000 OA
BRANCH  21  30
ATOM     22  C   UNL     1       0.526   9.848  19.539  0.00  0.00    +0.000 C 
ATOM     23  C   UNL     1      -0.732  10.436  18.965  0.00  0.00    +0.000 A 
ATOM     24  C   UNL     1      -1.054  10.137  17.630  0.00  0.00    +0.000 A 
ATOM     25  C   UNL     1      -2.210  10.651  17.050  0.00  0.00    +0.000 A 
ATOM     26 CL   UNL     1      -2.621  10.228  15.433  0.00  0.00    +0.000 Cl
ATOM     27  C   UNL     1      -3.056  11.478  17.781  0.00  0.00    +0.000 A 
ATOM     28  C   UNL     1      -2.779  11.787  19.125  0.00  0.00    +0.000 A 
ATOM     29  C   UNL     1      -3.778  12.629  19.863  0.00  0.00    +0.000 C 
ATOM     30  C   UNL     1      -1.591  11.289  19.696  0.00  0.00    +0.000 A 
ENDBRANCH  21  30
ENDBRANCH   1  21
TORSDOF 4
ENDMDL
MODEL 8
REMARK VINA RESULT:      -8.0      5.507      8.725
REMARK  Name = 
REMARK  6 active torsions:
REMARK  status: ('A' for Active; 'I' for Inactive)
REMARK    1  A    between atoms: C_1  and  C_2
REMARK    2  A    between atoms: C_7  and  C_8
REMARK    3  A    between atoms: C_9  and  O_10
REMARK    4  A    between atoms: O_10  and  C_11
REMARK    5  A    between atoms: N_13  and  N_14
REMARK    6  A    between atoms: N_14  and  C_15
REMARK                            x       y       z     vdW  Elec       q    Type
REMARK                         _______ _______ _______ _____ _____    ______ ____
ROOT
ATOM      1  C   UNL     1       0.778  13.142  21.283  0.00  0.00    +0.000 A 
ATOM      2  N   UNL     1       0.449  12.153  20.531  0.00  0.00    +0.000 NA
ATOM      3  N   UNL     1       1.170  11.936  19.394  0.00  0.00    +0.000 N 
ATOM      4  C   UNL     1       2.218  12.741  18.937  0.00  0.00    +0.000 A 
ATOM      5  O   UNL     1       2.848  12.538  17.899  0.00  0.00    +0.000 OA
ATOM      6  C   UNL     1       2.541  13.906  19.787  0.00  0.00    +0.000 A 
ATOM      7  C   UNL     1       3.516  14.828  19.388  0.00  0.00    +0.000 A 
ATOM      8  C   UNL     1       3.765  15.956  20.169  0.00  0.00    +0.000 A 
ATOM      9  C   UNL     1       3.050  16.162  21.351  0.00  0.00    +0.000 A 
ATOM     10  C   UNL     1       2.086  15.239  21.759  0.00  0.00    +0.000 A 
ATOM     11  C   UNL     1       1.838  14.107  20.974  0.00  0.00    +0.000 A 
ENDROOT
BRANCH   3  12
ATOM     12  N   UNL     1       0.720  10.937  18.506  0.00  0.00    +0.000 N 
ATOM     13  H   UNL     1       0.889  11.237  17.539  0.00  0.00    +0.000 HD
BRANCH  12  14
ATOM     14  C   UNL     1       1.251   9.641  18.724  0.00  0.00    +0.000 A 
ATOM     15  C   UNL     1       1.086   9.056  19.987  0.00  0.00    +0.000 A 
ATOM     16  C   UNL     1       1.693   7.828  20.284  0.00  0.00    +0.000 A 
ATOM     17  C   UNL     1       2.448   7.175  19.311  0.00  0.00    +0.000 A 
ATOM     18 CL   UNL     1       3.262   5.709  19.690  0.00  0.00    +0.000 Cl
ATOM     19  C   UNL     1       2.556   7.704  18.032  0.00  0.00    +0.000 A 
ATOM     20  C   UNL     1       1.928   8.913  17.735  0.00  0.00    +0.000 A 
ENDBRANCH  12  14
ENDBRANCH   3  12
BRANCH   1  21
ATOM     21  O   UNL     1       0.145  13.439  22.486  0.00  0.00    +0.000 OA
BRANCH  21  30
ATOM     22  C   UNL     1      -1.132  10.928  23.171  0.00  0.00    +0.000 C 
ATOM     23  C   UNL     1      -1.876  12.228  23.064  0.00  0.00    +0.000 A 
ATOM     24  C   UNL     1      -3.248  12.233  23.376  0.00  0.00    +0.000 A 
ATOM     25  C   UNL     1      -3.985  13.411  23.297  0.00  0.00    +0.000 A 
ATOM     26 CL   UNL     1      -5.648  13.414  23.739  0.00  0.00    +0.000 Cl
ATOM     27  C   UNL     1      -3.377  14.597  22.898  0.00  0.00    +0.000 A 
ATOM     28  C   UNL     1      -2.004  14.637  22.595  0.00  0.00    +0.000 A 
ATOM     29  C   UNL     1      -1.411  15.969  22.240  0.00  0.00    +0.000 C 
ATOM     30  C   UNL     1      -1.271  13.435  22.646  0.00  0.00    +0.000 A 
ENDBRANCH  21  30
ENDBRANCH   1  21
TORSDOF 4
ENDMDL
MODEL 9
REMARK VINA RESULT:      -7.9      0.452      1.685
REMARK  Name = 
REMARK  6 active torsions:
REMARK  status: ('A' for Active; 'I' for Inactive)
REMARK    1  A    between atoms: C_1  and  C_2
REMARK    2  A    between atoms: C_7  and  C_8
REMARK    3  A    between atoms: C_9  and  O_10
REMARK    4  A    between atoms: O_10  and  C_11
REMARK    5  A    between atoms: N_13  and  N_14
REMARK    6  A    between atoms: N_14  and  C_15
REMARK                            x       y       z     vdW  Elec       q    Type
REMARK                         _______ _______ _______ _____ _____    ______ ____
ROOT
ATOM      1  C   UNL     1       3.288   5.882  19.402  0.00  0.00    +0.000 A 
ATOM      2  N   UNL     1       4.404   5.918  18.765  0.00  0.00    +0.000 NA
ATOM      3  N   UNL     1       4.722   4.867  17.957  0.00  0.00    +0.000 N 
ATOM      4  C   UNL     1       3.955   3.708  17.802  0.00  0.00    +0.000 A 
ATOM      5  O   UNL     1       4.267   2.761  17.079  0.00  0.00    +0.000 OA
ATOM      6  C   UNL     1       2.706   3.663  18.589  0.00  0.00    +0.000 A 
ATOM      7  C   UNL     1       1.899   2.519  18.575  0.00  0.00    +0.000 A 
ATOM      8  C   UNL     1       0.755   2.467  19.373  0.00  0.00    +0.000 A 
ATOM      9  C   UNL     1       0.411   3.557  20.175  0.00  0.00    +0.000 A 
ATOM     10  C   UNL     1       1.206   4.704  20.181  0.00  0.00    +0.000 A 
ATOM     11  C   UNL     1       2.352   4.754  19.381  0.00  0.00    +0.000 A 
ENDROOT
BRANCH   3  12
ATOM     12  N   UNL     1       6.004   4.848  17.371  0.00  0.00    +0.000 N 
ATOM     13  H   UNL     1       5.915   4.729  16.355  0.00  0.00    +0.000 HD
BRANCH  12  14
ATOM     14  C   UNL     1       6.830   5.961  17.670  0.00  0.00    +0.000 A 
ATOM     15  C   UNL     1       7.706   5.869  18.761  0.00  0.00    +0.000 A 
ATOM     16  C   UNL     1       8.454   6.982  19.164  0.00  0.00    +0.000 A 
ATOM     17  C   UNL     1       8.343   8.183  18.464  0.00  0.00    +0.000 A 
ATOM     18 CL   UNL     1       9.197   9.576  19.000  0.00  0.00    +0.000 Cl
ATOM     19  C   UNL     1       7.539   8.268  17.336  0.00  0.00    +0.000 A 
ATOM     20  C   UNL     1       6.816   7.148  16.924  0.00  0.00    +0.000 A 
ENDBRANCH  12  14
ENDBRANCH   3  12
BRANCH   1  21
ATOM     21  O   UNL     1       2.837   6.912  20.222  0.00  0.00    +0.000 OA
BRANCH  21  30
ATOM     22  C   UNL     1       3.187   7.764  17.473  0.00  0.00    +0.000 C 
ATOM     23  C   UNL     1       2.145   8.342  18.388  0.00  0.00    +0.000 A 
ATOM     24  C   UNL     1       1.257   9.296  17.861  0.00  0.00    +0.000 A 
ATOM     25  C   UNL     1       0.269   9.861  18.663  0.00  0.00    +0.000 A 
ATOM     26 CL   UNL     1      -0.848  10.983  17.987  0.00  0.00    +0.000 Cl
ATOM     27  C   UNL     1       0.156   9.497  20.000  0.00  0.00    +0.000 A 
ATOM     28  C   UNL     1       1.013   8.533  20.561  0.00  0.00    +0.000 A 
ATOM     29  C   UNL     1       0.780   8.146  21.992  0.00  0.00    +0.000 C 
ATOM     30  C   UNL     1       2.030   7.989  19.752  0.00  0.00    +0.000 A 
ENDBRANCH  21  30
ENDBRANCH   1  21
TORSDOF 4
ENDMDL
