MODEL 1
REMARK VINA RESULT:      -7.6      0.000      0.000
REMARK  Name = 
REMARK  6 active torsions:
REMARK  status: ('A' for Active; 'I' for Inactive)
REMARK    1  A    between atoms: C_1  and  C_2
REMARK    2  A    between atoms: C_2  and  N_3
REMARK    3  A    between atoms: C_7  and  C_8
REMARK    4  A    between atoms: C_8  and  N_9
REMARK    5  A    between atoms: N_15  and  C_16
REMARK    6  A    between atoms: C_21  and  O_22
REMARK                            x       y       z     vdW  Elec       q    Type
REMARK                         _______ _______ _______ _____ _____    ______ ____
ROOT
ATOM      1  N   UNL     1       6.346   3.895  14.036  0.00  0.00    +0.000 N 
ATOM      2  C   UNL     1       6.729   4.623  15.126  0.00  0.00    +0.000 C 
ATOM      3  O   UNL     1       7.597   5.488  15.076  0.00  0.00    +0.000 OA
ATOM      4  N   UNL     1       6.014   4.317  16.269  0.00  0.00    +0.000 N 
ATOM      5  C   UNL     1       6.097   5.183  17.450  0.00  0.00    +0.000 C 
ATOM      6  C   UNL     1       4.703   5.429  18.079  0.00  0.00    +0.000 C 
ATOM      7  N   UNL     1       4.011   4.140  18.283  0.00  0.00    +0.000 N 
ATOM      8  C   UNL     1       3.896   3.315  17.068  0.00  0.00    +0.000 C 
ATOM      9  C   UNL     1       5.302   3.053  16.507  0.00  0.00    +0.000 C 
ATOM     10  H   UNL     1       5.348   3.726  14.017  0.00  0.00    +0.000 HD
ENDROOT
BRANCH   7  11
ATOM     11  C   UNL     1       3.249   3.872  19.408  0.00  0.00    +0.000 A 
ATOM     12  C   UNL     1       2.036   4.564  19.599  0.00  0.00    +0.000 A 
ATOM     13  C   UNL     1       1.173   4.291  20.664  0.00  0.00    +0.000 A 
ATOM     14  C   UNL     1       1.496   3.301  21.581  0.00  0.00    +0.000 A 
ATOM     15  C   UNL     1       2.692   2.604  21.443  0.00  0.00    +0.000 A 
ATOM     16  C   UNL     1       3.558   2.895  20.378  0.00  0.00    +0.000 A 
BRANCH  16  17
ATOM     17  O   UNL     1       4.754   2.218  20.324  0.00  0.00    +0.000 OA
ATOM     18  H   UNL     1       5.368   2.623  20.956  0.00  0.00    +0.000 HD
ENDBRANCH  16  17
ENDBRANCH   7  11
BRANCH   1  19
ATOM     19  C   UNL     1       6.896   4.148  12.720  0.00  0.00    +0.000 C 
BRANCH  19  24
ATOM     20  N   UNL     1       5.372   2.553  11.424  0.00  0.00    +0.000 N 
ATOM     21  C   UNL     1       5.585   1.398  10.731  0.00  0.00    +0.000 A 
ATOM     22  N   UNL     1       6.862   1.105  10.739  0.00  0.00    +0.000 NA
ATOM     23  N   UNL     1       7.502   2.076  11.463  0.00  0.00    +0.000 NA
ATOM     24  C   UNL     1       6.600   2.948  11.885  0.00  0.00    +0.000 A 
BRANCH  20  26
ATOM     25  C   UNL     1       3.407   3.524  10.298  0.00  0.00    +0.000 C 
ATOM     26  C   UNL     1       4.080   3.171  11.614  0.00  0.00    +0.000 C 
ENDBRANCH  20  26
ENDBRANCH  19  24
ENDBRANCH   1  19
TORSDOF 5
ENDMDL
MODEL 2
REMARK VINA RESULT:      -7.2      3.554      9.125
REMARK  Name = 
REMARK  6 active torsions:
REMARK  status: ('A' for Active; 'I' for Inactive)
REMARK    1  A    between atoms: C_1  and  C_2
REMARK    2  A    between atoms: C_2  and  N_3
REMARK    3  A    between atoms: C_7  and  C_8
REMARK    4  A    between atoms: C_8  and  N_9
REMARK    5  A    between atoms: N_15  and  C_16
REMARK    6  A    between atoms: C_21  and  O_22
REMARK                            x       y       z     vdW  Elec       q    Type
REMARK                         _______ _______ _______ _____ _____    ______ ____
ROOT
ATOM      1  N   UNL     1       2.788   6.734  19.763  0.00  0.00    +0.000 N 
ATOM      2  C   UNL     1       3.248   5.452  19.667  0.00  0.00    +0.000 C 
ATOM      3  O   UNL     1       2.935   4.572  20.462  0.00  0.00    +0.000 OA
ATOM      4  N   UNL     1       4.059   5.240  18.567  0.00  0.00    +0.000 N 
ATOM      5  C   UNL     1       4.411   3.878  18.156  0.00  0.00    +0.000 C 
ATOM      6  C   UNL     1       4.307   3.697  16.621  0.00  0.00    +0.000 C 
ATOM      7  N   UNL     1       5.045   4.778  15.937  0.00  0.00    +0.000 N 
ATOM      8  C   UNL     1       4.634   6.136  16.332  0.00  0.00    +0.000 C 
ATOM      9  C   UNL     1       4.801   6.289  17.851  0.00  0.00    +0.000 C 
ATOM     10  H   UNL     1       2.584   7.139  18.858  0.00  0.00    +0.000 HD
ENDROOT
BRANCH   7  11
ATOM     11  C   UNL     1       5.806   4.559  14.801  0.00  0.00    +0.000 A 
ATOM     12  C   UNL     1       5.284   3.755  13.768  0.00  0.00    +0.000 A 
ATOM     13  C   UNL     1       5.956   3.554  12.558  0.00  0.00    +0.000 A 
ATOM     14  C   UNL     1       7.183   4.164  12.338  0.00  0.00    +0.000 A 
ATOM     15  C   UNL     1       7.744   4.953  13.337  0.00  0.00    +0.000 A 
ATOM     16  C   UNL     1       7.070   5.136  14.553  0.00  0.00    +0.000 A 
BRANCH  16  17
ATOM     17  O   UNL     1       7.698   5.876  15.527  0.00  0.00    +0.000 OA
ATOM     18  H   UNL     1       7.054   6.084  16.221  0.00  0.00    +0.000 HD
ENDBRANCH  16  17
ENDBRANCH   7  11
BRANCH   1  19
ATOM     19  C   UNL     1       1.835   7.127  20.780  0.00  0.00    +0.000 C 
BRANCH  19  24
ATOM     20  N   UNL     1       0.822   9.420  21.290  0.00  0.00    +0.000 N 
ATOM     21  C   UNL     1       0.532  10.515  20.529  0.00  0.00    +0.000 A 
ATOM     22  N   UNL     1       0.897  10.302  19.289  0.00  0.00    +0.000 NA
ATOM     23  N   UNL     1       1.424   9.039  19.226  0.00  0.00    +0.000 NA
ATOM     24  C   UNL     1       1.370   8.501  20.434  0.00  0.00    +0.000 A 
BRANCH  20  26
ATOM     25  C   UNL     1      -0.682  10.084  23.125  0.00  0.00    +0.000 C 
ATOM     26  C   UNL     1       0.556   9.310  22.705  0.00  0.00    +0.000 C 
ENDBRANCH  20  26
ENDBRANCH  19  24
ENDBRANCH   1  19
TORSDOF 5
ENDMDL
MODEL 3
REMARK VINA RESULT:      -6.9      1.078      1.425
REMARK  Name = 
REMARK  6 active torsions:
REMARK  status: ('A' for Active; 'I' for Inactive)
REMARK    1  A    between atoms: C_1  and  C_2
REMARK    2  A    between atoms: C_2  and  N_3
REMARK    3  A    between atoms: C_7  and  C_8
REMARK    4  A    between atoms: C_8  and  N_9
REMARK    5  A    between atoms: N_15  and  C_16
REMARK    6  A    between atoms: C_21  and  O_22
REMARK                            x       y       z     vdW  Elec       q    Type
REMARK                         _______ _______ _______ _____ _____    ______ ____
ROOT
ATOM      1  N   UNL     1       6.383   3.986  13.908  0.00  0.00    +0.000 N 
ATOM      2  C   UNL     1       6.846   4.677  14.990  0.00  0.00    +0.000 C 
ATOM      3  O   UNL     1       7.784   5.465  14.925  0.00  0.00    +0.000 OA
ATOM      4  N   UNL     1       6.126   4.434  16.146  0.00  0.00    +0.000 N 
ATOM      5  C   UNL     1       6.304   5.289  17.324  0.00  0.00    +0.000 C 
ATOM      6  C   UNL     1       4.948   5.654  17.977  0.00  0.00    +0.000 C 
ATOM      7  N   UNL     1       4.150   4.429  18.194  0.00  0.00    +0.000 N 
ATOM      8  C   UNL     1       3.944   3.618  16.983  0.00  0.00    +0.000 C 
ATOM      9  C   UNL     1       5.312   3.236  16.397  0.00  0.00    +0.000 C 
ATOM     10  H   UNL     1       5.374   3.903  13.907  0.00  0.00    +0.000 HD
ENDROOT
BRANCH   7  11
ATOM     11  C   UNL     1       3.388   4.227  19.333  0.00  0.00    +0.000 A 
ATOM     12  C   UNL     1       3.493   3.002  20.022  0.00  0.00    +0.000 A 
ATOM     13  C   UNL     1       2.819   2.753  21.221  0.00  0.00    +0.000 A 
ATOM     14  C   UNL     1       2.014   3.736  21.780  0.00  0.00    +0.000 A 
ATOM     15  C   UNL     1       1.867   4.954  21.125  0.00  0.00    +0.000 A 
ATOM     16  C   UNL     1       2.535   5.189  19.915  0.00  0.00    +0.000 A 
BRANCH  16  17
ATOM     17  O   UNL     1       2.307   6.387  19.280  0.00  0.00    +0.000 OA
ATOM     18  H   UNL     1       1.349   6.510  19.186  0.00  0.00    +0.000 HD
ENDBRANCH  16  17
ENDBRANCH   7  11
BRANCH   1  19
ATOM     19  C   UNL     1       6.929   4.191  12.582  0.00  0.00    +0.000 C 
BRANCH  19  24
ATOM     20  N   UNL     1       5.399   2.530  11.380  0.00  0.00    +0.000 N 
ATOM     21  C   UNL     1       5.614   1.359  10.715  0.00  0.00    +0.000 A 
ATOM     22  N   UNL     1       6.896   1.090  10.694  0.00  0.00    +0.000 NA
ATOM     23  N   UNL     1       7.538   2.094  11.369  0.00  0.00    +0.000 NA
ATOM     24  C   UNL     1       6.632   2.961  11.793  0.00  0.00    +0.000 A 
BRANCH  20  26
ATOM     25  C   UNL     1       3.409   3.486  10.286  0.00  0.00    +0.000 C 
ATOM     26  C   UNL     1       4.101   3.129  11.590  0.00  0.00    +0.000 C 
ENDBRANCH  20  26
ENDBRANCH  19  24
ENDBRANCH   1  19
TORSDOF 5
ENDMDL
MODEL 4
REMARK VINA RESULT:      -6.8      5.206      7.682
REMARK  Name = 
REMARK  6 active torsions:
REMARK  status: ('A' for Active; 'I' for Inactive)
REMARK    1  A    between atoms: C_1  and  C_2
REMARK    2  A    between atoms: C_2  and  N_3
REMARK    3  A    between atoms: C_7  and  C_8
REMARK    4  A    between atoms: C_8  and  N_9
REMARK    5  A    between atoms: N_15  and  C_16
REMARK    6  A    between atoms: C_21  and  O_22
REMARK                            x       y       z     vdW  Elec       q    Type
REMARK                         _______ _______ _______ _____ _____    ______ ____
ROOT
ATOM      1  N   UNL     1       3.524   5.369  19.109  0.00  0.00    +0.000 N 
ATOM      2  C   UNL     1       2.579   5.744  20.022  0.00  0.00    +0.000 C 
ATOM      3  O   UNL     1       2.347   5.100  21.040  0.00  0.00    +0.000 OA
ATOM      4  N   UNL     1       1.951   6.934  19.706  0.00  0.00    +0.000 N 
ATOM      5  C   UNL     1       1.120   7.621  20.699  0.00  0.00    +0.000 C 
ATOM      6  C   UNL     1       1.389   9.146  20.715  0.00  0.00    +0.000 C 
ATOM      7  N   UNL     1       1.312   9.683  19.341  0.00  0.00    +0.000 N 
ATOM      8  C   UNL     1       2.197   9.008  18.376  0.00  0.00    +0.000 C 
ATOM      9  C   UNL     1       1.863   7.509  18.355  0.00  0.00    +0.000 C 
ATOM     10  H   UNL     1       4.029   6.161  18.732  0.00  0.00    +0.000 HD
ENDROOT
BRANCH   7  11
ATOM     11  C   UNL     1       0.731  10.906  19.048  0.00  0.00    +0.000 A 
ATOM     12  C   UNL     1       1.535  12.064  19.033  0.00  0.00    +0.000 A 
ATOM     13  C   UNL     1       1.040  13.319  18.668  0.00  0.00    +0.000 A 
ATOM     14  C   UNL     1      -0.290  13.457  18.295  0.00  0.00    +0.000 A 
ATOM     15  C   UNL     1      -1.125  12.345  18.314  0.00  0.00    +0.000 A 
ATOM     16  C   UNL     1      -0.622  11.092  18.695  0.00  0.00    +0.000 A 
BRANCH  16  17
ATOM     17  O   UNL     1      -1.505  10.040  18.753  0.00  0.00    +0.000 OA
ATOM     18  H   UNL     1      -1.618   9.781  19.681  0.00  0.00    +0.000 HD
ENDBRANCH  16  17
ENDBRANCH   7  11
BRANCH   1  19
ATOM     19  C   UNL     1       4.370   4.213  19.320  0.00  0.00    +0.000 C 
BRANCH  19  24
ATOM     20  N   UNL     1       6.234   4.520  17.594  0.00  0.00    +0.000 N 
ATOM     21  C   UNL     1       7.529   4.942  17.668  0.00  0.00    +0.000 A 
ATOM     22  N   UNL     1       7.818   5.274  18.902  0.00  0.00    +0.000 NA
ATOM     23  N   UNL     1       6.698   5.054  19.660  0.00  0.00    +0.000 NA
ATOM     24  C   UNL     1       5.742   4.589  18.871  0.00  0.00    +0.000 A 
BRANCH  20  26
ATOM     25  C   UNL     1       6.482   4.194  15.165  0.00  0.00    +0.000 C 
ATOM     26  C   UNL     1       5.581   4.081  16.383  0.00  0.00    +0.000 C 
ENDBRANCH  20  26
ENDBRANCH  19  24
ENDBRANCH   1  19
TORSDOF 5
ENDMDL
MODEL 5
REMARK VINA RESULT:      -6.8      6.150      9.050
REMARK  Name = 
REMARK  6 active torsions:
REMARK  status: ('A' for Active; 'I' for Inactive)
REMARK    1  A    between atoms: C_1  and  C_2
REMARK    2  A    between atoms: C_2  and  N_3
REMARK    3  A    between atoms: C_7  and  C_8
REMARK    4  A    between atoms: C_8  and  N_9
REMARK    5  A    between atoms: N_15  and  C_16
REMARK    6  A    between atoms: C_21  and  O_22
REMARK                            x       y       z     vdW  Elec       q    Type
REMARK                         _______ _______ _______ _____ _____    ______ ____
ROOT
ATOM      1  N   UNL     1       2.291   6.549  19.639  0.00  0.00    +0.000 N 
ATOM      2  C   UNL     1       2.310   7.711  18.922  0.00  0.00    +0.000 C 
ATOM      3  O   UNL     1       2.882   7.815  17.841  0.00  0.00    +0.000 OA
ATOM      4  N   UNL     1       1.589   8.733  19.512  0.00  0.00    +0.000 N 
ATOM      5  C   UNL     1       1.273   9.949  18.756  0.00  0.00    +0.000 C 
ATOM      6  C   UNL     1      -0.195  10.394  18.976  0.00  0.00    +0.000 C 
ATOM      7  N   UNL     1      -0.492  10.447  20.421  0.00  0.00    +0.000 N 
ATOM      8  C   UNL     1      -0.213   9.195  21.144  0.00  0.00    +0.000 C 
ATOM      9  C   UNL     1       1.262   8.818  20.943  0.00  0.00    +0.000 C 
ATOM     10  H   UNL     1       1.398   6.389  20.088  0.00  0.00    +0.000 HD
ENDROOT
BRANCH   7  11
ATOM     11  C   UNL     1      -1.266  11.447  20.988  0.00  0.00    +0.000 A 
ATOM     12  C   UNL     1      -2.140  12.188  20.167  0.00  0.00    +0.000 A 
ATOM     13  C   UNL     1      -3.011  13.155  20.677  0.00  0.00    +0.000 A 
ATOM     14  C   UNL     1      -3.041  13.411  22.041  0.00  0.00    +0.000 A 
ATOM     15  C   UNL     1      -2.183  12.716  22.886  0.00  0.00    +0.000 A 
ATOM     16  C   UNL     1      -1.302  11.757  22.364  0.00  0.00    +0.000 A 
BRANCH  16  17
ATOM     17  O   UNL     1      -0.435  11.144  23.236  0.00  0.00    +0.000 OA
ATOM     18  H   UNL     1      -0.659  10.201  23.284  0.00  0.00    +0.000 HD
ENDBRANCH  16  17
ENDBRANCH   7  11
BRANCH   1  19
ATOM     19  C   UNL     1       2.891   5.332  19.134  0.00  0.00    +0.000 C 
BRANCH  19  24
ATOM     20  N   UNL     1       3.315   3.053  20.217  0.00  0.00    +0.000 N 
ATOM     21  C   UNL     1       2.880   2.458  21.365  0.00  0.00    +0.000 A 
ATOM     22  N   UNL     1       2.107   3.283  22.027  0.00  0.00    +0.000 NA
ATOM     23  N   UNL     1       2.018   4.439  21.297  0.00  0.00    +0.000 NA
ATOM     24  C   UNL     1       2.742   4.297  20.197  0.00  0.00    +0.000 A 
BRANCH  20  26
ATOM     25  C   UNL     1       3.419   1.708  18.155  0.00  0.00    +0.000 C 
ATOM     26  C   UNL     1       4.188   2.431  19.248  0.00  0.00    +0.000 C 
ENDBRANCH  20  26
ENDBRANCH  19  24
ENDBRANCH   1  19
TORSDOF 5
ENDMDL
MODEL 6
REMARK VINA RESULT:      -6.7      3.508      5.032
REMARK  Name = 
REMARK  6 active torsions:
REMARK  status: ('A' for Active; 'I' for Inactive)
REMARK    1  A    between atoms: C_1  and  C_2
REMARK    2  A    between atoms: C_2  and  N_3
REMARK    3  A    between atoms: C_7  and  C_8
REMARK    4  A    between atoms: C_8  and  N_9
REMARK    5  A    between atoms: N_15  and  C_16
REMARK    6  A    between atoms: C_21  and  O_22
REMARK                            x       y       z     vdW  Elec       q    Type
REMARK                         _______ _______ _______ _____ _____    ______ ____
ROOT
ATOM      1  N   UNL     1       4.639   4.417  16.721  0.00  0.00    +0.000 N 
ATOM      2  C   UNL     1       3.642   4.018  17.565  0.00  0.00    +0.000 C 
ATOM      3  O   UNL     1       3.433   2.840  17.837  0.00  0.00    +0.000 OA
ATOM      4  N   UNL     1       2.929   5.070  18.109  0.00  0.00    +0.000 N 
ATOM      5  C   UNL     1       2.017   4.844  19.235  0.00  0.00    +0.000 C 
ATOM      6  C   UNL     1       2.161   5.942  20.318  0.00  0.00    +0.000 C 
ATOM      7  N   UNL     1       2.080   7.277  19.692  0.00  0.00    +0.000 N 
ATOM      8  C   UNL     1       3.044   7.494  18.599  0.00  0.00    +0.000 C 
ATOM      9  C   UNL     1       2.833   6.416  17.525  0.00  0.00    +0.000 C 
ATOM     10  H   UNL     1       5.089   5.268  17.034  0.00  0.00    +0.000 HD
ENDROOT
BRANCH   7  11
ATOM     11  C   UNL     1       1.411   8.338  20.280  0.00  0.00    +0.000 A 
ATOM     12  C   UNL     1       1.266   8.368  21.682  0.00  0.00    +0.000 A 
ATOM     13  C   UNL     1       0.676   9.442  22.354  0.00  0.00    +0.000 A 
ATOM     14  C   UNL     1       0.212  10.537  21.639  0.00  0.00    +0.000 A 
ATOM     15  C   UNL     1       0.318  10.543  20.252  0.00  0.00    +0.000 A 
ATOM     16  C   UNL     1       0.899   9.454  19.584  0.00  0.00    +0.000 A 
BRANCH  16  17
ATOM     17  O   UNL     1       0.923   9.485  18.210  0.00  0.00    +0.000 OA
ATOM     18  H   UNL     1       0.684  10.378  17.917  0.00  0.00    +0.000 HD
ENDBRANCH  16  17
ENDBRANCH   7  11
BRANCH   1  19
ATOM     19  C   UNL     1       5.570   3.471  16.141  0.00  0.00    +0.000 C 
BRANCH  19  24
ATOM     20  N   UNL     1       6.270   4.224  13.798  0.00  0.00    +0.000 N 
ATOM     21  C   UNL     1       7.259   5.034  13.323  0.00  0.00    +0.000 A 
ATOM     22  N   UNL     1       7.948   5.526  14.322  0.00  0.00    +0.000 NA
ATOM     23  N   UNL     1       7.414   5.020  15.478  0.00  0.00    +0.000 NA
ATOM     24  C   UNL     1       6.404   4.225  15.162  0.00  0.00    +0.000 A 
BRANCH  20  26
ATOM     25  C   UNL     1       5.991   2.697  11.885  0.00  0.00    +0.000 C 
ATOM     26  C   UNL     1       5.318   3.518  12.972  0.00  0.00    +0.000 C 
ENDBRANCH  20  26
ENDBRANCH  19  24
ENDBRANCH   1  19
TORSDOF 5
ENDMDL
MODEL 7
REMARK VINA RESULT:      -6.7      6.099      8.843
REMARK  Name = 
REMARK  6 active torsions:
REMARK  status: ('A' for Active; 'I' for Inactive)
REMARK    1  A    between atoms: C_1  and  C_2
REMARK    2  A    between atoms: C_2  and  N_3
REMARK    3  A    between atoms: C_7  and  C_8
REMARK    4  A    between atoms: C_8  and  N_9
REMARK    5  A    between atoms: N_15  and  C_16
REMARK    6  A    between atoms: C_21  and  O_22
REMARK                            x       y       z     vdW  Elec       q    Type
REMARK                         _______ _______ _______ _____ _____    ______ ____
ROOT
ATOM      1  N   UNL     1       2.273   6.793  18.921  0.00  0.00    +0.000 N 
ATOM      2  C   UNL     1       2.281   8.059  18.409  0.00  0.00    +0.000 C 
ATOM      3  O   UNL     1       2.837   8.345  17.354  0.00  0.00    +0.000 OA
ATOM      4  N   UNL     1       1.568   8.964  19.172  0.00  0.00    +0.000 N 
ATOM      5  C   UNL     1       1.239  10.289  18.637  0.00  0.00    +0.000 C 
ATOM      6  C   UNL     1      -0.225  10.686  18.948  0.00  0.00    +0.000 C 
ATOM      7  N   UNL     1      -0.502  10.495  20.386  0.00  0.00    +0.000 N 
ATOM      8  C   UNL     1      -0.212   9.140  20.884  0.00  0.00    +0.000 C 
ATOM      9  C   UNL     1       1.261   8.807  20.602  0.00  0.00    +0.000 C 
ATOM     10  H   UNL     1       1.386   6.556  19.348  0.00  0.00    +0.000 HD
ENDROOT
BRANCH   7  11
ATOM     11  C   UNL     1      -1.269  11.382  21.123  0.00  0.00    +0.000 A 
ATOM     12  C   UNL     1      -2.192  12.212  20.455  0.00  0.00    +0.000 A 
ATOM     13  C   UNL     1      -3.058  13.074  21.136  0.00  0.00    +0.000 A 
ATOM     14  C   UNL     1      -3.033  13.129  22.522  0.00  0.00    +0.000 A 
ATOM     15  C   UNL     1      -2.125  12.341  23.222  0.00  0.00    +0.000 A 
ATOM     16  C   UNL     1      -1.250  11.490  22.530  0.00  0.00    +0.000 A 
BRANCH  16  17
ATOM     17  O   UNL     1      -0.333  10.779  23.267  0.00  0.00    +0.000 OA
ATOM     18  H   UNL     1       0.330  11.395  23.615  0.00  0.00    +0.000 HD
ENDBRANCH  16  17
ENDBRANCH   7  11
BRANCH   1  19
ATOM     19  C   UNL     1       2.867   5.680  18.210  0.00  0.00    +0.000 C 
BRANCH  19  24
ATOM     20  N   UNL     1       1.823   3.818  19.621  0.00  0.00    +0.000 N 
ATOM     21  C   UNL     1       0.952   2.804  19.350  0.00  0.00    +0.000 A 
ATOM     22  N   UNL     1       0.582   2.860  18.095  0.00  0.00    +0.000 NA
ATOM     23  N   UNL     1       1.232   3.921  17.522  0.00  0.00    +0.000 NA
ATOM     24  C   UNL     1       1.990   4.496  18.442  0.00  0.00    +0.000 A 
BRANCH  20  26
ATOM     25  C   UNL     1       2.010   3.032  21.948  0.00  0.00    +0.000 C 
ATOM     26  C   UNL     1       2.430   4.058  20.910  0.00  0.00    +0.000 C 
ENDBRANCH  20  26
ENDBRANCH  19  24
ENDBRANCH   1  19
TORSDOF 5
ENDMDL
MODEL 8
REMARK VINA RESULT:      -6.7      4.919      7.246
REMARK  Name = 
REMARK  6 active torsions:
REMARK  status: ('A' for Active; 'I' for Inactive)
REMARK    1  A    between atoms: C_1  and  C_2
REMARK    2  A    between atoms: C_2  and  N_3
REMARK    3  A    between atoms: C_7  and  C_8
REMARK    4  A    between atoms: C_8  and  N_9
REMARK    5  A    between atoms: N_15  and  C_16
REMARK    6  A    between atoms: C_21  and  O_22
REMARK                            x       y       z     vdW  Elec       q    Type
REMARK                         _______ _______ _______ _____ _____    ______ ____
ROOT
ATOM      1  N   UNL     1       4.105   5.547  18.880  0.00  0.00    +0.000 N 
ATOM      2  C   UNL     1       3.081   5.581  19.782  0.00  0.00    +0.000 C 
ATOM      3  O   UNL     1       2.947   4.743  20.669  0.00  0.00    +0.000 OA
ATOM      4  N   UNL     1       2.244   6.671  19.623  0.00  0.00    +0.000 N 
ATOM      5  C   UNL     1       1.269   7.015  20.662  0.00  0.00    +0.000 C 
ATOM      6  C   UNL     1       1.238   8.539  20.938  0.00  0.00    +0.000 C 
ATOM      7  N   UNL     1       1.099   9.276  19.665  0.00  0.00    +0.000 N 
ATOM      8  C   UNL     1       2.125   8.948  18.660  0.00  0.00    +0.000 C 
ATOM      9  C   UNL     1       2.086   7.438  18.379  0.00  0.00    +0.000 C 
ATOM     10  H   UNL     1       4.459   6.471  18.665  0.00  0.00    +0.000 HD
ENDROOT
BRANCH   7  11
ATOM     11  C   UNL     1       0.303  10.401  19.537  0.00  0.00    +0.000 A 
ATOM     12  C   UNL     1      -0.770  10.384  18.623  0.00  0.00    +0.000 A 
ATOM     13  C   UNL     1      -1.668  11.449  18.496  0.00  0.00    +0.000 A 
ATOM     14  C   UNL     1      -1.523  12.576  19.293  0.00  0.00    +0.000 A 
ATOM     15  C   UNL     1      -0.468  12.644  20.197  0.00  0.00    +0.000 A 
ATOM     16  C   UNL     1       0.436  11.577  20.307  0.00  0.00    +0.000 A 
BRANCH  16  17
ATOM     17  O   UNL     1       1.494  11.722  21.172  0.00  0.00    +0.000 OA
ATOM     18  H   UNL     1       2.318  11.588  20.679  0.00  0.00    +0.000 HD
ENDBRANCH  16  17
ENDBRANCH   7  11
BRANCH   1  19
ATOM     19  C   UNL     1       5.152   4.549  18.954  0.00  0.00    +0.000 C 
BRANCH  19  24
ATOM     20  N   UNL     1       6.925   5.212  17.233  0.00  0.00    +0.000 N 
ATOM     21  C   UNL     1       7.146   4.878  15.929  0.00  0.00    +0.000 A 
ATOM     22  N   UNL     1       6.248   4.009  15.535  0.00  0.00    +0.000 NA
ATOM     23  N   UNL     1       5.410   3.776  16.593  0.00  0.00    +0.000 NA
ATOM     24  C   UNL     1       5.813   4.510  17.618  0.00  0.00    +0.000 A 
BRANCH  20  26
ATOM     25  C   UNL     1       7.513   7.583  17.553  0.00  0.00    +0.000 C 
ATOM     26  C   UNL     1       7.728   6.144  17.990  0.00  0.00    +0.000 C 
ENDBRANCH  20  26
ENDBRANCH  19  24
ENDBRANCH   1  19
TORSDOF 5
ENDMDL
MODEL 9
REMARK VINA RESULT:      -6.6      5.158      7.712
REMARK  Name = 
REMARK  6 active torsions:
REMARK  status: ('A' for Active; 'I' for Inactive)
REMARK    1  A    between atoms: C_1  and  C_2
REMARK    2  A    between atoms: C_2  and  N_3
REMARK    3  A    between atoms: C_7  and  C_8
REMARK    4  A    between atoms: C_8  and  N_9
REMARK    5  A    between atoms: N_15  and  C_16
REMARK    6  A    between atoms: C_21  and  O_22
REMARK                            x       y       z     vdW  Elec       q    Type
REMARK                         _______ _______ _______ _____ _____    ______ ____
ROOT
ATOM      1  N   UNL     1       4.136   6.017  17.637  0.00  0.00    +0.000 N 
ATOM      2  C   UNL     1       3.257   5.834  18.666  0.00  0.00    +0.000 C 
ATOM      3  O   UNL     1       3.275   4.841  19.387  0.00  0.00    +0.000 OA
ATOM      4  N   UNL     1       2.385   6.892  18.839  0.00  0.00    +0.000 N 
ATOM      5  C   UNL     1       1.569   6.990  20.053  0.00  0.00    +0.000 C 
ATOM      6  C   UNL     1       1.549   8.434  20.616  0.00  0.00    +0.000 C 
ATOM      7  N   UNL     1       1.206   9.387  19.540  0.00  0.00    +0.000 N 
ATOM      8  C   UNL     1       2.076   9.301  18.355  0.00  0.00    +0.000 C 
ATOM      9  C   UNL     1       2.026   7.869  17.800  0.00  0.00    +0.000 C 
ATOM     10  H   UNL     1       4.435   6.981  17.554  0.00  0.00    +0.000 HD
ENDROOT
BRANCH   7  11
ATOM     11  C   UNL     1       0.377  10.476  19.745  0.00  0.00    +0.000 A 
ATOM     12  C   UNL     1       0.499  11.219  20.937  0.00  0.00    +0.000 A 
ATOM     13  C   UNL     1      -0.245  12.378  21.181  0.00  0.00    +0.000 A 
ATOM     14  C   UNL     1      -1.139  12.841  20.226  0.00  0.00    +0.000 A 
ATOM     15  C   UNL     1      -1.305  12.129  19.042  0.00  0.00    +0.000 A 
ATOM     16  C   UNL     1      -0.566  10.960  18.813  0.00  0.00    +0.000 A 
BRANCH  16  17
ATOM     17  O   UNL     1      -0.814  10.264  17.653  0.00  0.00    +0.000 OA
ATOM     18  H   UNL     1      -0.917   9.325  17.872  0.00  0.00    +0.000 HD
ENDBRANCH  16  17
ENDBRANCH   7  11
BRANCH   1  19
ATOM     19  C   UNL     1       5.202   5.074  17.368  0.00  0.00    +0.000 C 
BRANCH  19  24
ATOM     20  N   UNL     1       7.250   6.354  18.213  0.00  0.00    +0.000 N 
ATOM     21  C   UNL     1       8.052   6.234  19.310  0.00  0.00    +0.000 A 
ATOM     22  N   UNL     1       7.619   5.260  20.071  0.00  0.00    +0.000 NA
ATOM     23  N   UNL     1       6.519   4.717  19.460  0.00  0.00    +0.000 NA
ATOM     24  C   UNL     1       6.301   5.373  18.331  0.00  0.00    +0.000 A 
BRANCH  20  26
ATOM     25  C   UNL     1       7.967   8.652  17.687  0.00  0.00    +0.000 C 
ATOM     26  C   UNL     1       7.434   7.329  17.163  0.00  0.00    +0.000 C 
ENDBRANCH  20  26
ENDBRANCH  19  24
ENDBRANCH   1  19
TORSDOF 5
ENDMDL
