MODEL 1
REMARK VINA RESULT:      -7.4      0.000      0.000
REMARK  Name = 
REMARK  5 active torsions:
REMARK  status: ('A' for Active; 'I' for Inactive)
REMARK    1  A    between atoms: C_1  and  N_2
REMARK    2  A    between atoms: C_4  and  C_5
REMARK    3  A    between atoms: C_5  and  C_6
REMARK    4  A    between atoms: C_7  and  O_8
REMARK    5  A    between atoms: C_12  and  C_14
REMARK                            x       y       z     vdW  Elec       q    Type
REMARK                         _______ _______ _______ _____ _____    ______ ____
ROOT
ATOM      1  C   UNL     1       3.581   4.149  18.389  0.00  0.00    +0.000 C 
ATOM      2  C   UNL     1       3.155   2.746  17.873  0.00  0.00    +0.000 C 
ATOM      3  C   UNL     1       2.833   1.991  19.155  0.00  0.00    +0.000 C 
ATOM      4  C   UNL     1       2.153   3.049  20.003  0.00  0.00    +0.000 C 
ATOM      5  N   UNL     1       2.706   4.331  19.570  0.00  0.00    +0.000 N 
ATOM      6  C   UNL     1       2.121   5.475  20.082  0.00  0.00    +0.000 C 
ATOM      7  O   UNL     1       1.234   5.372  20.936  0.00  0.00    +0.000 OA
ENDROOT
BRANCH   6   8
ATOM      8  C   UNL     1       2.522   6.857  19.560  0.00  0.00    +0.000 C 
ATOM      9  C   UNL     1       2.218   6.981  18.058  0.00  0.00    +0.000 C 
ATOM     10  C   UNL     1       2.160   8.472  17.793  0.00  0.00    +0.000 C 
ATOM     11  C   UNL     1       1.576   9.071  19.061  0.00  0.00    +0.000 C 
ATOM     12  C   UNL     1       1.730   8.016  20.157  0.00  0.00    +0.000 C 
ENDBRANCH   6   8
BRANCH   2  13
ATOM     13  O   UNL     1       1.988   2.838  17.052  0.00  0.00    +0.000 OA
ATOM     14  H   UNL     1       2.265   2.765  16.119  0.00  0.00    +0.000 HD
ENDBRANCH   2  13
BRANCH   1  15
ATOM     15  C   UNL     1       5.091   4.152  18.742  0.00  0.00    +0.000 C 
BRANCH  15  19
ATOM     16  C   UNL     1       6.818   4.626  14.066  0.00  0.00    +0.000 C 
ATOM     17  N   UNL     1       6.705   4.676  15.503  0.00  0.00    +0.000 N 
ATOM     18  C   UNL     1       5.555   4.614  16.238  0.00  0.00    +0.000 A 
ATOM     19  C   UNL     1       5.944   4.456  17.552  0.00  0.00    +0.000 A 
ATOM     20  C   UNL     1       7.356   4.543  17.503  0.00  0.00    +0.000 A 
ATOM     21  N   UNL     1       7.817   4.679  16.258  0.00  0.00    +0.000 NA
ENDBRANCH  15  19
ENDBRANCH   1  15
TORSDOF 4
ENDMDL
MODEL 2
REMARK VINA RESULT:      -7.3      1.215      1.611
REMARK  Name = 
REMARK  5 active torsions:
REMARK  status: ('A' for Active; 'I' for Inactive)
REMARK    1  A    between atoms: C_1  and  N_2
REMARK    2  A    between atoms: C_4  and  C_5
REMARK    3  A    between atoms: C_5  and  C_6
REMARK    4  A    between atoms: C_7  and  O_8
REMARK    5  A    between atoms: C_12  and  C_14
REMARK                            x       y       z     vdW  Elec       q    Type
REMARK                         _______ _______ _______ _____ _____    ______ ____
ROOT
ATOM      1  C   UNL     1       3.785   4.031  18.335  0.00  0.00    +0.000 C 
ATOM      2  C   UNL     1       3.417   2.656  17.710  0.00  0.00    +0.000 C 
ATOM      3  C   UNL     1       2.982   1.834  18.916  0.00  0.00    +0.000 C 
ATOM      4  C   UNL     1       2.221   2.847  19.752  0.00  0.00    +0.000 C 
ATOM      5  N   UNL     1       2.804   4.149  19.439  0.00  0.00    +0.000 N 
ATOM      6  C   UNL     1       2.168   5.264  19.953  0.00  0.00    +0.000 C 
ATOM      7  O   UNL     1       1.206   5.117  20.715  0.00  0.00    +0.000 OA
ENDROOT
BRANCH   6   8
ATOM      8  C   UNL     1       2.607   6.672  19.543  0.00  0.00    +0.000 C 
ATOM      9  C   UNL     1       2.378   6.897  18.039  0.00  0.00    +0.000 C 
ATOM     10  C   UNL     1       2.348   8.404  17.869  0.00  0.00    +0.000 C 
ATOM     11  C   UNL     1       1.707   8.926  19.144  0.00  0.00    +0.000 C 
ATOM     12  C   UNL     1       1.797   7.800  20.175  0.00  0.00    +0.000 C 
ENDBRANCH   6   8
BRANCH   2  13
ATOM     13  O   UNL     1       2.329   2.790  16.791  0.00  0.00    +0.000 OA
ATOM     14  H   UNL     1       1.897   3.649  16.953  0.00  0.00    +0.000 HD
ENDBRANCH   2  13
BRANCH   1  15
ATOM     15  C   UNL     1       5.256   4.016  18.826  0.00  0.00    +0.000 C 
BRANCH  15  19
ATOM     16  C   UNL     1       7.876   8.112  17.628  0.00  0.00    +0.000 C 
ATOM     17  N   UNL     1       7.257   6.810  17.576  0.00  0.00    +0.000 N 
ATOM     18  C   UNL     1       6.831   6.062  18.637  0.00  0.00    +0.000 A 
ATOM     19  C   UNL     1       6.097   5.021  18.105  0.00  0.00    +0.000 A 
ATOM     20  C   UNL     1       6.237   5.184  16.706  0.00  0.00    +0.000 A 
ATOM     21  N   UNL     1       6.943   6.270  16.386  0.00  0.00    +0.000 NA
ENDBRANCH  15  19
ENDBRANCH   1  15
TORSDOF 4
ENDMDL
MODEL 3
REMARK VINA RESULT:      -7.2      2.733      4.540
REMARK  Name = 
REMARK  5 active torsions:
REMARK  status: ('A' for Active; 'I' for Inactive)
REMARK    1  A    between atoms: C_1  and  N_2
REMARK    2  A    between atoms: C_4  and  C_5
REMARK    3  A    between atoms: C_5  and  C_6
REMARK    4  A    between atoms: C_7  and  O_8
REMARK    5  A    between atoms: C_12  and  C_14
REMARK                            x       y       z     vdW  Elec       q    Type
REMARK                         _______ _______ _______ _____ _____    ______ ____
ROOT
ATOM      1  C   UNL     1       5.887   4.702  16.493  0.00  0.00    +0.000 C 
ATOM      2  C   UNL     1       7.403   5.029  16.592  0.00  0.00    +0.000 C 
ATOM      3  C   UNL     1       7.420   6.383  17.288  0.00  0.00    +0.000 C 
ATOM      4  C   UNL     1       6.304   6.246  18.308  0.00  0.00    +0.000 C 
ATOM      5  N   UNL     1       5.354   5.292  17.743  0.00  0.00    +0.000 N 
ATOM      6  C   UNL     1       4.323   4.869  18.562  0.00  0.00    +0.000 C 
ATOM      7  O   UNL     1       4.194   5.372  19.684  0.00  0.00    +0.000 OA
ENDROOT
BRANCH   6   8
ATOM      8  C   UNL     1       3.379   3.750  18.114  0.00  0.00    +0.000 C 
ATOM      9  C   UNL     1       3.391   2.591  19.126  0.00  0.00    +0.000 C 
ATOM     10  C   UNL     1       2.102   1.836  18.869  0.00  0.00    +0.000 C 
ATOM     11  C   UNL     1       1.097   2.904  18.470  0.00  0.00    +0.000 C 
ATOM     12  C   UNL     1       1.904   4.141  18.073  0.00  0.00    +0.000 C 
ENDBRANCH   6   8
BRANCH   2  13
ATOM     13  O   UNL     1       8.081   4.057  17.394  0.00  0.00    +0.000 OA
ATOM     14  H   UNL     1       9.038   4.244  17.355  0.00  0.00    +0.000 HD
ENDBRANCH   2  13
BRANCH   1  15
ATOM     15  C   UNL     1       5.287   5.340  15.213  0.00  0.00    +0.000 C 
BRANCH  15  19
ATOM     16  C   UNL     1       5.746   2.010  11.502  0.00  0.00    +0.000 C 
ATOM     17  N   UNL     1       5.921   3.173  12.337  0.00  0.00    +0.000 N 
ATOM     18  C   UNL     1       5.038   3.661  13.259  0.00  0.00    +0.000 A 
ATOM     19  C   UNL     1       5.721   4.625  13.974  0.00  0.00    +0.000 A 
ATOM     20  C   UNL     1       6.975   4.708  13.324  0.00  0.00    +0.000 A 
ATOM     21  N   UNL     1       7.095   3.827  12.329  0.00  0.00    +0.000 NA
ENDBRANCH  15  19
ENDBRANCH   1  15
TORSDOF 4
ENDMDL
MODEL 4
REMARK VINA RESULT:      -7.1      2.580      5.680
REMARK  Name = 
REMARK  5 active torsions:
REMARK  status: ('A' for Active; 'I' for Inactive)
REMARK    1  A    between atoms: C_1  and  N_2
REMARK    2  A    between atoms: C_4  and  C_5
REMARK    3  A    between atoms: C_5  and  C_6
REMARK    4  A    between atoms: C_7  and  O_8
REMARK    5  A    between atoms: C_12  and  C_14
REMARK                            x       y       z     vdW  Elec       q    Type
REMARK                         _______ _______ _______ _____ _____    ______ ____
ROOT
ATOM      1  C   UNL     1       2.969   5.826  19.404  0.00  0.00    +0.000 C 
ATOM      2  C   UNL     1       1.899   5.055  20.227  0.00  0.00    +0.000 C 
ATOM      3  C   UNL     1       1.772   3.736  19.477  0.00  0.00    +0.000 C 
ATOM      4  C   UNL     1       3.206   3.440  19.080  0.00  0.00    +0.000 C 
ATOM      5  N   UNL     1       3.867   4.736  18.955  0.00  0.00    +0.000 N 
ATOM      6  C   UNL     1       5.236   4.730  18.761  0.00  0.00    +0.000 C 
ATOM      7  O   UNL     1       5.823   3.652  18.613  0.00  0.00    +0.000 OA
ENDROOT
BRANCH   6   8
ATOM      8  C   UNL     1       6.035   6.036  18.785  0.00  0.00    +0.000 C 
ATOM      9  C   UNL     1       7.510   5.766  19.127  0.00  0.00    +0.000 C 
ATOM     10  C   UNL     1       8.257   6.985  18.624  0.00  0.00    +0.000 C 
ATOM     11  C   UNL     1       7.505   7.416  17.376  0.00  0.00    +0.000 C 
ATOM     12  C   UNL     1       6.130   6.748  17.439  0.00  0.00    +0.000 C 
ENDBRANCH   6   8
BRANCH   2  13
ATOM     13  O   UNL     1       2.356   4.819  21.562  0.00  0.00    +0.000 OA
ATOM     14  H   UNL     1       1.593   4.533  22.098  0.00  0.00    +0.000 HD
ENDBRANCH   2  13
BRANCH   1  15
ATOM     15  C   UNL     1       2.296   6.584  18.231  0.00  0.00    +0.000 C 
BRANCH  15  19
ATOM     16  C   UNL     1       0.501  10.714  20.419  0.00  0.00    +0.000 C 
ATOM     17  N   UNL     1       1.221   9.823  19.543  0.00  0.00    +0.000 N 
ATOM     18  C   UNL     1       1.524   8.512  19.777  0.00  0.00    +0.000 A 
ATOM     19  C   UNL     1       1.996   8.007  18.582  0.00  0.00    +0.000 A 
ATOM     20  C   UNL     1       2.033   9.133  17.726  0.00  0.00    +0.000 A 
ATOM     21  N   UNL     1       1.563  10.236  18.311  0.00  0.00    +0.000 NA
ENDBRANCH  15  19
ENDBRANCH   1  15
TORSDOF 4
ENDMDL
MODEL 5
REMARK VINA RESULT:      -7.0      2.481      5.475
REMARK  Name = 
REMARK  5 active torsions:
REMARK  status: ('A' for Active; 'I' for Inactive)
REMARK    1  A    between atoms: C_1  and  N_2
REMARK    2  A    between atoms: C_4  and  C_5
REMARK    3  A    between atoms: C_5  and  C_6
REMARK    4  A    between atoms: C_7  and  O_8
REMARK    5  A    between atoms: C_12  and  C_14
REMARK                            x       y       z     vdW  Elec       q    Type
REMARK                         _______ _______ _______ _____ _____    ______ ____
ROOT
ATOM      1  C   UNL     1       3.441   4.635  18.677  0.00  0.00    +0.000 C 
ATOM      2  C   UNL     1       2.713   3.334  19.114  0.00  0.00    +0.000 C 
ATOM      3  C   UNL     1       2.764   2.471  17.860  0.00  0.00    +0.000 C 
ATOM      4  C   UNL     1       4.147   2.768  17.309  0.00  0.00    +0.000 C 
ATOM      5  N   UNL     1       4.476   4.122  17.748  0.00  0.00    +0.000 N 
ATOM      6  C   UNL     1       5.764   4.566  17.512  0.00  0.00    +0.000 C 
ATOM      7  O   UNL     1       6.543   3.852  16.872  0.00  0.00    +0.000 OA
ENDROOT
BRANCH   6   8
ATOM      8  C   UNL     1       6.246   5.902  18.082  0.00  0.00    +0.000 C 
ATOM      9  C   UNL     1       7.706   5.797  18.553  0.00  0.00    +0.000 C 
ATOM     10  C   UNL     1       8.207   7.228  18.596  0.00  0.00    +0.000 C 
ATOM     11  C   UNL     1       7.495   7.924  17.447  0.00  0.00    +0.000 C 
ATOM     12  C   UNL     1       6.304   7.042  17.069  0.00  0.00    +0.000 C 
ENDBRANCH   6   8
BRANCH   2  13
ATOM     13  O   UNL     1       3.416   2.691  20.181  0.00  0.00    +0.000 OA
ATOM     14  H   UNL     1       2.809   2.607  20.939  0.00  0.00    +0.000 HD
ENDBRANCH   2  13
BRANCH   1  15
ATOM     15  C   UNL     1       2.440   5.605  17.997  0.00  0.00    +0.000 C 
BRANCH  15  19
ATOM     16  C   UNL     1       1.084   8.808  21.599  0.00  0.00    +0.000 C 
ATOM     17  N   UNL     1       1.637   8.252  20.389  0.00  0.00    +0.000 N 
ATOM     18  C   UNL     1       1.959   6.944  20.160  0.00  0.00    +0.000 A 
ATOM     19  C   UNL     1       2.219   6.842  18.808  0.00  0.00    +0.000 A 
ATOM     20  C   UNL     1       2.127   8.175  18.341  0.00  0.00    +0.000 A 
ATOM     21  N   UNL     1       1.774   9.030  19.302  0.00  0.00    +0.000 NA
ENDBRANCH  15  19
ENDBRANCH   1  15
TORSDOF 4
ENDMDL
MODEL 6
REMARK VINA RESULT:      -6.8      2.586      5.591
REMARK  Name = 
REMARK  5 active torsions:
REMARK  status: ('A' for Active; 'I' for Inactive)
REMARK    1  A    between atoms: C_1  and  N_2
REMARK    2  A    between atoms: C_4  and  C_5
REMARK    3  A    between atoms: C_5  and  C_6
REMARK    4  A    between atoms: C_7  and  O_8
REMARK    5  A    between atoms: C_12  and  C_14
REMARK                            x       y       z     vdW  Elec       q    Type
REMARK                         _______ _______ _______ _____ _____    ______ ____
ROOT
ATOM      1  C   UNL     1       2.971   5.909  19.366  0.00  0.00    +0.000 C 
ATOM      2  C   UNL     1       1.885   5.157  20.184  0.00  0.00    +0.000 C 
ATOM      3  C   UNL     1       1.752   3.832  19.444  0.00  0.00    +0.000 C 
ATOM      4  C   UNL     1       3.186   3.518  19.063  0.00  0.00    +0.000 C 
ATOM      5  N   UNL     1       3.862   4.807  18.934  0.00  0.00    +0.000 N 
ATOM      6  C   UNL     1       5.233   4.785  18.754  0.00  0.00    +0.000 C 
ATOM      7  O   UNL     1       5.810   3.700  18.620  0.00  0.00    +0.000 OA
ENDROOT
BRANCH   6   8
ATOM      8  C   UNL     1       6.044   6.083  18.775  0.00  0.00    +0.000 C 
ATOM      9  C   UNL     1       7.515   5.799  19.123  0.00  0.00    +0.000 C 
ATOM     10  C   UNL     1       8.277   7.009  18.618  0.00  0.00    +0.000 C 
ATOM     11  C   UNL     1       7.533   7.442  17.365  0.00  0.00    +0.000 C 
ATOM     12  C   UNL     1       6.152   6.788  17.426  0.00  0.00    +0.000 C 
ENDBRANCH   6   8
BRANCH   2  13
ATOM     13  O   UNL     1       2.326   4.927  21.525  0.00  0.00    +0.000 OA
ATOM     14  H   UNL     1       1.994   5.654  22.084  0.00  0.00    +0.000 HD
ENDBRANCH   2  13
BRANCH   1  15
ATOM     15  C   UNL     1       2.317   6.665  18.179  0.00  0.00    +0.000 C 
BRANCH  15  19
ATOM     16  C   UNL     1       1.808  11.640  18.421  0.00  0.00    +0.000 C 
ATOM     17  N   UNL     1       1.654  10.228  18.668  0.00  0.00    +0.000 N 
ATOM     18  C   UNL     1       1.985   9.207  17.822  0.00  0.00    +0.000 A 
ATOM     19  C   UNL     1       1.890   8.046  18.562  0.00  0.00    +0.000 A 
ATOM     20  C   UNL     1       1.390   8.479  19.813  0.00  0.00    +0.000 A 
ATOM     21  N   UNL     1       1.245   9.804  19.876  0.00  0.00    +0.000 NA
ENDBRANCH  15  19
ENDBRANCH   1  15
TORSDOF 4
ENDMDL
MODEL 7
REMARK VINA RESULT:      -6.8      2.541      5.803
REMARK  Name = 
REMARK  5 active torsions:
REMARK  status: ('A' for Active; 'I' for Inactive)
REMARK    1  A    between atoms: C_1  and  N_2
REMARK    2  A    between atoms: C_4  and  C_5
REMARK    3  A    between atoms: C_5  and  C_6
REMARK    4  A    between atoms: C_7  and  O_8
REMARK    5  A    between atoms: C_12  and  C_14
REMARK                            x       y       z     vdW  Elec       q    Type
REMARK                         _______ _______ _______ _____ _____    ______ ____
ROOT
ATOM      1  C   UNL     1       2.924   5.687  18.676  0.00  0.00    +0.000 C 
ATOM      2  C   UNL     1       1.828   4.649  19.047  0.00  0.00    +0.000 C 
ATOM      3  C   UNL     1       1.656   3.855  17.759  0.00  0.00    +0.000 C 
ATOM      4  C   UNL     1       3.079   3.742  17.245  0.00  0.00    +0.000 C 
ATOM      5  N   UNL     1       3.784   4.920  17.745  0.00  0.00    +0.000 N 
ATOM      6  C   UNL     1       5.152   4.966  17.550  0.00  0.00    +0.000 C 
ATOM      7  O   UNL     1       5.701   4.073  16.894  0.00  0.00    +0.000 OA
ENDROOT
BRANCH   6   8
ATOM      8  C   UNL     1       5.995   6.076  18.183  0.00  0.00    +0.000 C 
ATOM      9  C   UNL     1       7.373   5.538  18.606  0.00  0.00    +0.000 C 
ATOM     10  C   UNL     1       8.254   6.767  18.718  0.00  0.00    +0.000 C 
ATOM     11  C   UNL     1       7.753   7.705  17.632  0.00  0.00    +0.000 C 
ATOM     12  C   UNL     1       6.359   7.216  17.237  0.00  0.00    +0.000 C 
ENDBRANCH   6   8
BRANCH   2  13
ATOM     13  O   UNL     1       2.276   3.789  20.098  0.00  0.00    +0.000 OA
ATOM     14  H   UNL     1       1.618   3.078  20.211  0.00  0.00    +0.000 HD
ENDBRANCH   2  13
BRANCH   1  15
ATOM     15  C   UNL     1       2.278   6.935  18.020  0.00  0.00    +0.000 C 
BRANCH  15  19
ATOM     16  C   UNL     1       0.874  11.101  20.417  0.00  0.00    +0.000 C 
ATOM     17  N   UNL     1       1.127   9.719  20.094  0.00  0.00    +0.000 N 
ATOM     18  C   UNL     1       1.307   9.188  18.848  0.00  0.00    +0.000 A 
ATOM     19  C   UNL     1       1.755   7.896  19.040  0.00  0.00    +0.000 A 
ATOM     20  C   UNL     1       1.705   7.723  20.444  0.00  0.00    +0.000 A 
ATOM     21  N   UNL     1       1.322   8.830  21.083  0.00  0.00    +0.000 NA
ENDBRANCH  15  19
ENDBRANCH   1  15
TORSDOF 4
ENDMDL
MODEL 8
REMARK VINA RESULT:      -6.8      2.265      5.160
REMARK  Name = 
REMARK  5 active torsions:
REMARK  status: ('A' for Active; 'I' for Inactive)
REMARK    1  A    between atoms: C_1  and  N_2
REMARK    2  A    between atoms: C_4  and  C_5
REMARK    3  A    between atoms: C_5  and  C_6
REMARK    4  A    between atoms: C_7  and  O_8
REMARK    5  A    between atoms: C_12  and  C_14
REMARK                            x       y       z     vdW  Elec       q    Type
REMARK                         _______ _______ _______ _____ _____    ______ ____
ROOT
ATOM      1  C   UNL     1       4.508   5.671  17.097  0.00  0.00    +0.000 C 
ATOM      2  C   UNL     1       5.425   5.463  15.860  0.00  0.00    +0.000 C 
ATOM      3  C   UNL     1       6.785   5.176  16.482  0.00  0.00    +0.000 C 
ATOM      4  C   UNL     1       6.427   4.317  17.681  0.00  0.00    +0.000 C 
ATOM      5  N   UNL     1       5.079   4.717  18.077  0.00  0.00    +0.000 N 
ATOM      6  C   UNL     1       4.458   3.959  19.053  0.00  0.00    +0.000 C 
ATOM      7  O   UNL     1       5.085   3.049  19.605  0.00  0.00    +0.000 OA
ENDROOT
BRANCH   6   8
ATOM      8  C   UNL     1       2.989   4.200  19.412  0.00  0.00    +0.000 C 
ATOM      9  C   UNL     1       2.074   3.244  18.629  0.00  0.00    +0.000 C 
ATOM     10  C   UNL     1       0.778   3.212  19.416  0.00  0.00    +0.000 C 
ATOM     11  C   UNL     1       1.202   3.346  20.869  0.00  0.00    +0.000 C 
ATOM     12  C   UNL     1       2.630   3.892  20.862  0.00  0.00    +0.000 C 
ENDBRANCH   6   8
BRANCH   2  13
ATOM     13  O   UNL     1       4.992   4.340  15.088  0.00  0.00    +0.000 OA
ATOM     14  H   UNL     1       5.341   4.439  14.183  0.00  0.00    +0.000 HD
ENDBRANCH   2  13
BRANCH   1  15
ATOM     15  C   UNL     1       4.577   7.146  17.571  0.00  0.00    +0.000 C 
BRANCH  15  19
ATOM     16  C   UNL     1       0.481   9.889  18.448  0.00  0.00    +0.000 C 
ATOM     17  N   UNL     1       1.454   8.824  18.466  0.00  0.00    +0.000 N 
ATOM     18  C   UNL     1       2.428   8.589  17.538  0.00  0.00    +0.000 A 
ATOM     19  C   UNL     1       3.259   7.631  18.084  0.00  0.00    +0.000 A 
ATOM     20  C   UNL     1       2.627   7.286  19.302  0.00  0.00    +0.000 A 
ATOM     21  N   UNL     1       1.530   8.010  19.533  0.00  0.00    +0.000 NA
ENDBRANCH  15  19
ENDBRANCH   1  15
TORSDOF 4
ENDMDL
MODEL 9
REMARK VINA RESULT:      -6.7      1.084      1.392
REMARK  Name = 
REMARK  5 active torsions:
REMARK  status: ('A' for Active; 'I' for Inactive)
REMARK    1  A    between atoms: C_1  and  N_2
REMARK    2  A    between atoms: C_4  and  C_5
REMARK    3  A    between atoms: C_5  and  C_6
REMARK    4  A    between atoms: C_7  and  O_8
REMARK    5  A    between atoms: C_12  and  C_14
REMARK                            x       y       z     vdW  Elec       q    Type
REMARK                         _______ _______ _______ _____ _____    ______ ____
ROOT
ATOM      1  C   UNL     1       4.012   3.718  18.163  0.00  0.00    +0.000 C 
ATOM      2  C   UNL     1       3.948   2.184  18.404  0.00  0.00    +0.000 C 
ATOM      3  C   UNL     1       4.021   2.070  19.921  0.00  0.00    +0.000 C 
ATOM      4  C   UNL     1       3.176   3.242  20.383  0.00  0.00    +0.000 C 
ATOM      5  N   UNL     1       3.277   4.253  19.333  0.00  0.00    +0.000 N 
ATOM      6  C   UNL     1       2.456   5.360  19.442  0.00  0.00    +0.000 C 
ATOM      7  O   UNL     1       1.750   5.495  20.448  0.00  0.00    +0.000 OA
ENDROOT
BRANCH   6   8
ATOM      8  C   UNL     1       2.372   6.386  18.309  0.00  0.00    +0.000 C 
ATOM      9  C   UNL     1       1.621   7.646  18.770  0.00  0.00    +0.000 C 
ATOM     10  C   UNL     1       2.045   8.731  17.799  0.00  0.00    +0.000 C 
ATOM     11  C   UNL     1       3.489   8.405  17.458  0.00  0.00    +0.000 C 
ATOM     12  C   UNL     1       3.718   6.946  17.858  0.00  0.00    +0.000 C 
ENDBRANCH   6   8
BRANCH   2  13
ATOM     13  O   UNL     1       2.711   1.646  17.930  0.00  0.00    +0.000 OA
ATOM     14  H   UNL     1       2.135   2.388  17.669  0.00  0.00    +0.000 HD
ENDBRANCH   2  13
BRANCH   1  15
ATOM     15  C   UNL     1       5.489   4.188  18.104  0.00  0.00    +0.000 C 
BRANCH  15  19
ATOM     16  C   UNL     1       6.344   3.807  13.185  0.00  0.00    +0.000 C 
ATOM     17  N   UNL     1       6.309   4.295  14.542  0.00  0.00    +0.000 N 
ATOM     18  C   UNL     1       5.451   3.905  15.531  0.00  0.00    +0.000 A 
ATOM     19  C   UNL     1       5.938   4.450  16.702  0.00  0.00    +0.000 A 
ATOM     20  C   UNL     1       7.035   5.239  16.281  0.00  0.00    +0.000 A 
ATOM     21  N   UNL     1       7.258   5.145  14.968  0.00  0.00    +0.000 NA
ENDBRANCH  15  19
ENDBRANCH   1  15
TORSDOF 4
ENDMDL
