MODEL 1
REMARK VINA RESULT:      -8.4      0.000      0.000
REMARK  Name = 
REMARK  8 active torsions:
REMARK  status: ('A' for Active; 'I' for Inactive)
REMARK    1  A    between atoms: C_4  and  C_5
REMARK    2  A    between atoms: C_5  and  O_6
REMARK    3  A    between atoms: C_5  and  C_25
REMARK    4  A    between atoms: O_6  and  C_7
REMARK    5  A    between atoms: C_7  and  C_8
REMARK    6  A    between atoms: C_8  and  N_9
REMARK    7  A    between atoms: N_12  and  C_13
REMARK    8  A    between atoms: C_13  and  C_14
REMARK                            x       y       z     vdW  Elec       q    Type
REMARK                         _______ _______ _______ _____ _____    ______ ____
ROOT
ATOM      1  C   UNL     1       2.010   9.805  18.082  0.00  0.00    +0.000 C 
ENDROOT
BRANCH   1   2
ATOM      2  N   UNL     1       1.458  10.534  19.239  0.00  0.00    +0.000 NA
ATOM      3  C   UNL     1       1.524  12.001  19.094  0.00  0.00    +0.000 C 
ATOM      4  C   UNL     1       0.284  12.639  18.441  0.00  0.00    +0.000 C 
ATOM      5  N   UNL     1      -0.971  12.311  19.148  0.00  0.00    +0.000 NA
ATOM      6  C   UNL     1      -1.087  10.835  19.138  0.00  0.00    +0.000 C 
ATOM      7  C   UNL     1       0.137  10.072  19.697  0.00  0.00    +0.000 C 
BRANCH   5   8
ATOM      8  C   UNL     1      -0.896  12.879  20.511  0.00  0.00    +0.000 C 
BRANCH   8   9
ATOM      9  C   UNL     1      -2.127  12.710  21.341  0.00  0.00    +0.000 A 
ATOM     10  C   UNL     1      -3.439  12.950  21.003  0.00  0.00    +0.000 A 
ATOM     11  C   UNL     1      -4.332  12.835  22.120  0.00  0.00    +0.000 A 
ATOM     12  C   UNL     1      -5.730  13.039  22.205  0.00  0.00    +0.000 A 
ATOM     13  C   UNL     1      -6.384  12.910  23.435  0.00  0.00    +0.000 A 
ATOM     14  C   UNL     1      -5.676  12.579  24.582  0.00  0.00    +0.000 A 
ATOM     15  C   UNL     1      -4.299  12.360  24.525  0.00  0.00    +0.000 A 
ATOM     16  C   UNL     1      -3.645  12.488  23.285  0.00  0.00    +0.000 A 
ATOM     17  S   UNL     1      -1.969  12.269  22.984  0.00  0.00    +0.000 S 
ENDBRANCH   8   9
ENDBRANCH   5   8
ENDBRANCH   1   2
BRANCH   1  18
ATOM     18  C   UNL     1       2.007   8.315  18.453  0.00  0.00    +0.000 C 
BRANCH  18  19
ATOM     19  O   UNL     1       2.779   7.439  17.641  0.00  0.00    +0.000 OA
BRANCH  19  20
ATOM     20  C   UNL     1       3.470   6.424  18.431  0.00  0.00    +0.000 C 
BRANCH  20  24
ATOM     21  C   UNL     1       7.146   5.022  16.551  0.00  0.00    +0.000 A 
ATOM     22  C   UNL     1       6.129   5.583  15.790  0.00  0.00    +0.000 A 
ATOM     23  C   UNL     1       4.959   6.046  16.404  0.00  0.00    +0.000 A 
ATOM     24  C   UNL     1       4.792   5.965  17.794  0.00  0.00    +0.000 A 
ATOM     25  C   UNL     1       5.863   5.442  18.545  0.00  0.00    +0.000 A 
ATOM     26  C   UNL     1       7.016   4.951  17.934  0.00  0.00    +0.000 A 
ENDBRANCH  20  24
BRANCH  20  27
ATOM     27  C   UNL     1       2.516   5.329  18.941  0.00  0.00    +0.000 A 
ATOM     28  C   UNL     1       2.114   5.213  20.283  0.00  0.00    +0.000 A 
ATOM     29  C   UNL     1       1.280   4.176  20.703  0.00  0.00    +0.000 A 
ATOM     30  C   UNL     1       0.801   3.248  19.783  0.00  0.00    +0.000 A 
ATOM     31  C   UNL     1       1.159   3.358  18.442  0.00  0.00    +0.000 A 
ATOM     32  C   UNL     1       2.010   4.386  18.025  0.00  0.00    +0.000 A 
ENDBRANCH  20  27
ENDBRANCH  19  20
ENDBRANCH  18  19
ENDBRANCH   1  18
TORSDOF 8
ENDMDL
MODEL 2
REMARK VINA RESULT:      -8.3      0.773      3.618
REMARK  Name = 
REMARK  8 active torsions:
REMARK  status: ('A' for Active; 'I' for Inactive)
REMARK    1  A    between atoms: C_4  and  C_5
REMARK    2  A    between atoms: C_5  and  O_6
REMARK    3  A    between atoms: C_5  and  C_25
REMARK    4  A    between atoms: O_6  and  C_7
REMARK    5  A    between atoms: C_7  and  C_8
REMARK    6  A    between atoms: C_8  and  N_9
REMARK    7  A    between atoms: N_12  and  C_13
REMARK    8  A    between atoms: C_13  and  C_14
REMARK                            x       y       z     vdW  Elec       q    Type
REMARK                         _______ _______ _______ _____ _____    ______ ____
ROOT
ATOM      1  C   UNL     1       2.047   9.548  17.782  0.00  0.00    +0.000 C 
ENDROOT
BRANCH   1   2
ATOM      2  N   UNL     1       1.650  10.277  19.001  0.00  0.00    +0.000 NA
ATOM      3  C   UNL     1       1.674  11.743  18.843  0.00  0.00    +0.000 C 
ATOM      4  C   UNL     1       0.346  12.361  18.366  0.00  0.00    +0.000 C 
ATOM      5  N   UNL     1      -0.794  12.020  19.242  0.00  0.00    +0.000 NA
ATOM      6  C   UNL     1      -0.889  10.543  19.254  0.00  0.00    +0.000 C 
ATOM      7  C   UNL     1       0.412   9.799  19.640  0.00  0.00    +0.000 C 
BRANCH   5   8
ATOM      8  C   UNL     1      -0.538  12.597  20.579  0.00  0.00    +0.000 C 
BRANCH   8   9
ATOM      9  C   UNL     1      -1.744  12.753  21.446  0.00  0.00    +0.000 A 
ATOM     10  C   UNL     1      -1.923  12.382  22.759  0.00  0.00    +0.000 A 
ATOM     11  C   UNL     1      -3.276  12.538  23.204  0.00  0.00    +0.000 A 
ATOM     12  C   UNL     1      -3.877  12.236  24.450  0.00  0.00    +0.000 A 
ATOM     13  C   UNL     1      -5.249  12.437  24.635  0.00  0.00    +0.000 A 
ATOM     14  C   UNL     1      -6.037  12.933  23.605  0.00  0.00    +0.000 A 
ATOM     15  C   UNL     1      -5.470  13.249  22.370  0.00  0.00    +0.000 A 
ATOM     16  C   UNL     1      -4.088  13.050  22.189  0.00  0.00    +0.000 A 
ATOM     17  S   UNL     1      -3.187  13.365  20.763  0.00  0.00    +0.000 S 
ENDBRANCH   8   9
ENDBRANCH   5   8
ENDBRANCH   1   2
BRANCH   1  18
ATOM     18  C   UNL     1       2.080   8.057  18.147  0.00  0.00    +0.000 C 
BRANCH  18  19
ATOM     19  O   UNL     1       3.358   7.450  18.291  0.00  0.00    +0.000 OA
BRANCH  19  20
ATOM     20  C   UNL     1       3.357   6.057  17.849  0.00  0.00    +0.000 C 
BRANCH  20  24
ATOM     21  C   UNL     1       1.066   3.411  20.448  0.00  0.00    +0.000 A 
ATOM     22  C   UNL     1       1.885   4.395  20.984  0.00  0.00    +0.000 A 
ATOM     23  C   UNL     1       2.604   5.252  20.141  0.00  0.00    +0.000 A 
ATOM     24  C   UNL     1       2.506   5.144  18.747  0.00  0.00    +0.000 A 
ATOM     25  C   UNL     1       1.626   4.171  18.233  0.00  0.00    +0.000 A 
ATOM     26  C   UNL     1       0.933   3.296  19.069  0.00  0.00    +0.000 A 
ENDBRANCH  20  24
BRANCH  20  27
ATOM     27  C   UNL     1       4.764   5.562  17.471  0.00  0.00    +0.000 A 
ATOM     28  C   UNL     1       5.055   4.890  16.271  0.00  0.00    +0.000 A 
ATOM     29  C   UNL     1       6.341   4.423  15.995  0.00  0.00    +0.000 A 
ATOM     30  C   UNL     1       7.375   4.648  16.897  0.00  0.00    +0.000 A 
ATOM     31  C   UNL     1       7.122   5.338  18.080  0.00  0.00    +0.000 A 
ATOM     32  C   UNL     1       5.829   5.789  18.366  0.00  0.00    +0.000 A 
ENDBRANCH  20  27
ENDBRANCH  19  20
ENDBRANCH  18  19
ENDBRANCH   1  18
TORSDOF 8
ENDMDL
MODEL 3
REMARK VINA RESULT:      -8.3      0.898      3.552
REMARK  Name = 
REMARK  8 active torsions:
REMARK  status: ('A' for Active; 'I' for Inactive)
REMARK    1  A    between atoms: C_4  and  C_5
REMARK    2  A    between atoms: C_5  and  O_6
REMARK    3  A    between atoms: C_5  and  C_25
REMARK    4  A    between atoms: O_6  and  C_7
REMARK    5  A    between atoms: C_7  and  C_8
REMARK    6  A    between atoms: C_8  and  N_9
REMARK    7  A    between atoms: N_12  and  C_13
REMARK    8  A    between atoms: C_13  and  C_14
REMARK                            x       y       z     vdW  Elec       q    Type
REMARK                         _______ _______ _______ _____ _____    ______ ____
ROOT
ATOM      1  C   UNL     1       1.016   9.249  17.911  0.00  0.00    +0.000 C 
ENDROOT
BRANCH   1   2
ATOM      2  N   UNL     1       0.793  10.053  19.128  0.00  0.00    +0.000 NA
ATOM      3  C   UNL     1       1.410  11.391  19.069  0.00  0.00    +0.000 C 
ATOM      4  C   UNL     1       0.500  12.495  18.498  0.00  0.00    +0.000 C 
ATOM      5  N   UNL     1      -0.779  12.619  19.227  0.00  0.00    +0.000 NA
ATOM      6  C   UNL     1      -1.448  11.302  19.132  0.00  0.00    +0.000 C 
ATOM      7  C   UNL     1      -0.600  10.095  19.602  0.00  0.00    +0.000 C 
BRANCH   5   8
ATOM      8  C   UNL     1      -0.481  13.022  20.618  0.00  0.00    +0.000 C 
BRANCH   8   9
ATOM      9  C   UNL     1      -1.670  13.140  21.515  0.00  0.00    +0.000 A 
ATOM     10  C   UNL     1      -1.951  12.459  22.677  0.00  0.00    +0.000 A 
ATOM     11  C   UNL     1      -3.272  12.719  23.171  0.00  0.00    +0.000 A 
ATOM     12  C   UNL     1      -3.954  12.195  24.295  0.00  0.00    +0.000 A 
ATOM     13  C   UNL     1      -5.277  12.571  24.551  0.00  0.00    +0.000 A 
ATOM     14  C   UNL     1      -5.936  13.459  23.712  0.00  0.00    +0.000 A 
ATOM     15  C   UNL     1      -5.284  14.000  22.602  0.00  0.00    +0.000 A 
ATOM     16  C   UNL     1      -3.951  13.622  22.350  0.00  0.00    +0.000 A 
ATOM     17  S   UNL     1      -2.965  14.156  21.052  0.00  0.00    +0.000 S 
ENDBRANCH   8   9
ENDBRANCH   5   8
ENDBRANCH   1   2
BRANCH   1  18
ATOM     18  C   UNL     1       2.444   8.693  18.002  0.00  0.00    +0.000 C 
BRANCH  18  19
ATOM     19  O   UNL     1       2.665   7.606  18.893  0.00  0.00    +0.000 OA
BRANCH  19  20
ATOM     20  C   UNL     1       2.957   6.364  18.181  0.00  0.00    +0.000 C 
BRANCH  20  24
ATOM     21  C   UNL     1       0.750   2.948  19.752  0.00  0.00    +0.000 A 
ATOM     22  C   UNL     1       1.156   2.980  18.425  0.00  0.00    +0.000 A 
ATOM     23  C   UNL     1       1.879   4.073  17.933  0.00  0.00    +0.000 A 
ATOM     24  C   UNL     1       2.218   5.149  18.767  0.00  0.00    +0.000 A 
ATOM     25  C   UNL     1       1.840   5.063  20.121  0.00  0.00    +0.000 A 
ATOM     26  C   UNL     1       1.093   3.990  20.606  0.00  0.00    +0.000 A 
ENDBRANCH  20  24
BRANCH  20  27
ATOM     27  C   UNL     1       4.458   6.200  17.883  0.00  0.00    +0.000 A 
ATOM     28  C   UNL     1       5.060   6.612  16.681  0.00  0.00    +0.000 A 
ATOM     29  C   UNL     1       6.419   6.402  16.442  0.00  0.00    +0.000 A 
ATOM     30  C   UNL     1       7.216   5.805  17.414  0.00  0.00    +0.000 A 
ATOM     31  C   UNL     1       6.651   5.415  18.625  0.00  0.00    +0.000 A 
ATOM     32  C   UNL     1       5.285   5.608  18.857  0.00  0.00    +0.000 A 
ENDBRANCH  20  27
ENDBRANCH  19  20
ENDBRANCH  18  19
ENDBRANCH   1  18
TORSDOF 8
ENDMDL
MODEL 4
REMARK VINA RESULT:      -8.3      1.670      3.978
REMARK  Name = 
REMARK  8 active torsions:
REMARK  status: ('A' for Active; 'I' for Inactive)
REMARK    1  A    between atoms: C_4  and  C_5
REMARK    2  A    between atoms: C_5  and  O_6
REMARK    3  A    between atoms: C_5  and  C_25
REMARK    4  A    between atoms: O_6  and  C_7
REMARK    5  A    between atoms: C_7  and  C_8
REMARK    6  A    between atoms: C_8  and  N_9
REMARK    7  A    between atoms: N_12  and  C_13
REMARK    8  A    between atoms: C_13  and  C_14
REMARK                            x       y       z     vdW  Elec       q    Type
REMARK                         _______ _______ _______ _____ _____    ______ ____
ROOT
ATOM      1  C   UNL     1       2.159   9.683  18.054  0.00  0.00    +0.000 C 
ENDROOT
BRANCH   1   2
ATOM      2  N   UNL     1       0.888  10.160  18.629  0.00  0.00    +0.000 NA
ATOM      3  C   UNL     1       0.443   9.378  19.798  0.00  0.00    +0.000 C 
ATOM      4  C   UNL     1       0.945   9.906  21.155  0.00  0.00    +0.000 C 
ATOM      5  N   UNL     1       0.581  11.319  21.391  0.00  0.00    +0.000 NA
ATOM      6  C   UNL     1       1.178  12.099  20.284  0.00  0.00    +0.000 C 
ATOM      7  C   UNL     1       0.813  11.612  18.861  0.00  0.00    +0.000 C 
BRANCH   5   8
ATOM      8  C   UNL     1      -0.894  11.414  21.442  0.00  0.00    +0.000 C 
BRANCH   8   9
ATOM      9  C   UNL     1      -1.430  12.574  22.215  0.00  0.00    +0.000 A 
ATOM     10  C   UNL     1      -0.767  13.433  23.063  0.00  0.00    +0.000 A 
ATOM     11  C   UNL     1      -1.651  14.321  23.759  0.00  0.00    +0.000 A 
ATOM     12  C   UNL     1      -1.380  15.311  24.734  0.00  0.00    +0.000 A 
ATOM     13  C   UNL     1      -2.430  16.032  25.313  0.00  0.00    +0.000 A 
ATOM     14  C   UNL     1      -3.745  15.788  24.942  0.00  0.00    +0.000 A 
ATOM     15  C   UNL     1      -4.041  14.826  23.975  0.00  0.00    +0.000 A 
ATOM     16  C   UNL     1      -2.981  14.106  23.392  0.00  0.00    +0.000 A 
ATOM     17  S   UNL     1      -3.111  12.883  22.195  0.00  0.00    +0.000 S 
ENDBRANCH   8   9
ENDBRANCH   5   8
ENDBRANCH   1   2
BRANCH   1  18
ATOM     18  C   UNL     1       2.057   8.154  17.956  0.00  0.00    +0.000 C 
BRANCH  18  19
ATOM     19  O   UNL     1       3.109   7.392  18.538  0.00  0.00    +0.000 OA
BRANCH  19  20
ATOM     20  C   UNL     1       3.222   6.065  17.937  0.00  0.00    +0.000 C 
BRANCH  20  24
ATOM     21  C   UNL     1       0.744   3.089  19.940  0.00  0.00    +0.000 A 
ATOM     22  C   UNL     1       1.015   2.988  18.583  0.00  0.00    +0.000 A 
ATOM     23  C   UNL     1       1.826   3.939  17.951  0.00  0.00    +0.000 A 
ATOM     24  C   UNL     1       2.388   5.002  18.672  0.00  0.00    +0.000 A 
ATOM     25  C   UNL     1       2.140   5.047  20.058  0.00  0.00    +0.000 A 
ATOM     26  C   UNL     1       1.307   4.120  20.683  0.00  0.00    +0.000 A 
ENDBRANCH  20  24
BRANCH  20  27
ATOM     27  C   UNL     1       4.675   5.704  17.586  0.00  0.00    +0.000 A 
ATOM     28  C   UNL     1       5.657   5.411  18.549  0.00  0.00    +0.000 A 
ATOM     29  C   UNL     1       6.973   5.129  18.181  0.00  0.00    +0.000 A 
ATOM     30  C   UNL     1       7.332   5.101  16.837  0.00  0.00    +0.000 A 
ATOM     31  C   UNL     1       6.373   5.358  15.861  0.00  0.00    +0.000 A 
ATOM     32  C   UNL     1       5.058   5.659  16.231  0.00  0.00    +0.000 A 
ENDBRANCH  20  27
ENDBRANCH  19  20
ENDBRANCH  18  19
ENDBRANCH   1  18
TORSDOF 8
ENDMDL
MODEL 5
REMARK VINA RESULT:      -8.2      0.593      3.377
REMARK  Name = 
REMARK  8 active torsions:
REMARK  status: ('A' for Active; 'I' for Inactive)
REMARK    1  A    between atoms: C_4  and  C_5
REMARK    2  A    between atoms: C_5  and  O_6
REMARK    3  A    between atoms: C_5  and  C_25
REMARK    4  A    between atoms: O_6  and  C_7
REMARK    5  A    between atoms: C_7  and  C_8
REMARK    6  A    between atoms: C_8  and  N_9
REMARK    7  A    between atoms: N_12  and  C_13
REMARK    8  A    between atoms: C_13  and  C_14
REMARK                            x       y       z     vdW  Elec       q    Type
REMARK                         _______ _______ _______ _____ _____    ______ ____
ROOT
ATOM      1  C   UNL     1       1.787   9.529  17.650  0.00  0.00    +0.000 C 
ENDROOT
BRANCH   1   2
ATOM      2  N   UNL     1       1.333  10.160  18.903  0.00  0.00    +0.000 NA
ATOM      3  C   UNL     1       1.565  11.616  18.945  0.00  0.00    +0.000 C 
ATOM      4  C   UNL     1       0.400  12.469  18.408  0.00  0.00    +0.000 C 
ATOM      5  N   UNL     1      -0.877  12.195  19.098  0.00  0.00    +0.000 NA
ATOM      6  C   UNL     1      -1.162  10.756  18.903  0.00  0.00    +0.000 C 
ATOM      7  C   UNL     1      -0.028   9.793  19.330  0.00  0.00    +0.000 C 
BRANCH   5   8
ATOM      8  C   UNL     1      -0.724  12.570  20.521  0.00  0.00    +0.000 C 
BRANCH   8   9
ATOM      9  C   UNL     1      -1.974  12.495  21.336  0.00  0.00    +0.000 A 
ATOM     10  C   UNL     1      -3.270  12.770  20.965  0.00  0.00    +0.000 A 
ATOM     11  C   UNL     1      -4.183  12.751  22.070  0.00  0.00    +0.000 A 
ATOM     12  C   UNL     1      -5.573  13.016  22.121  0.00  0.00    +0.000 A 
ATOM     13  C   UNL     1      -6.250  12.979  23.344  0.00  0.00    +0.000 A 
ATOM     14  C   UNL     1      -5.573  12.682  24.519  0.00  0.00    +0.000 A 
ATOM     15  C   UNL     1      -4.206  12.406  24.497  0.00  0.00    +0.000 A 
ATOM     16  C   UNL     1      -3.528  12.440  23.263  0.00  0.00    +0.000 A 
ATOM     17  S   UNL     1      -1.859  12.138  23.004  0.00  0.00    +0.000 S 
ENDBRANCH   8   9
ENDBRANCH   5   8
ENDBRANCH   1   2
BRANCH   1  18
ATOM     18  C   UNL     1       2.837   8.478  18.037  0.00  0.00    +0.000 C 
BRANCH  18  19
ATOM     19  O   UNL     1       2.389   7.351  18.780  0.00  0.00    +0.000 OA
BRANCH  19  20
ATOM     20  C   UNL     1       2.797   6.090  18.165  0.00  0.00    +0.000 C 
BRANCH  20  24
ATOM     21  C   UNL     1       0.753   2.643  19.883  0.00  0.00    +0.000 A 
ATOM     22  C   UNL     1       1.093   2.667  18.538  0.00  0.00    +0.000 A 
ATOM     23  C   UNL     1       1.765   3.771  17.998  0.00  0.00    +0.000 A 
ATOM     24  C   UNL     1       2.117   4.866  18.800  0.00  0.00    +0.000 A 
ATOM     25  C   UNL     1       1.806   4.789  20.172  0.00  0.00    +0.000 A 
ATOM     26  C   UNL     1       1.109   3.705  20.706  0.00  0.00    +0.000 A 
ENDBRANCH  20  24
BRANCH  20  27
ATOM     27  C   UNL     1       4.316   6.014  17.937  0.00  0.00    +0.000 A 
ATOM     28  C   UNL     1       4.935   6.324  16.714  0.00  0.00    +0.000 A 
ATOM     29  C   UNL     1       6.315   6.199  16.547  0.00  0.00    +0.000 A 
ATOM     30  C   UNL     1       7.114   5.791  17.610  0.00  0.00    +0.000 A 
ATOM     31  C   UNL     1       6.530   5.507  18.842  0.00  0.00    +0.000 A 
ATOM     32  C   UNL     1       5.145   5.614  19.004  0.00  0.00    +0.000 A 
ENDBRANCH  20  27
ENDBRANCH  19  20
ENDBRANCH  18  19
ENDBRANCH   1  18
TORSDOF 8
ENDMDL
MODEL 6
REMARK VINA RESULT:      -8.2      0.816      1.236
REMARK  Name = 
REMARK  8 active torsions:
REMARK  status: ('A' for Active; 'I' for Inactive)
REMARK    1  A    between atoms: C_4  and  C_5
REMARK    2  A    between atoms: C_5  and  O_6
REMARK    3  A    between atoms: C_5  and  C_25
REMARK    4  A    between atoms: O_6  and  C_7
REMARK    5  A    between atoms: C_7  and  C_8
REMARK    6  A    between atoms: C_8  and  N_9
REMARK    7  A    between atoms: N_12  and  C_13
REMARK    8  A    between atoms: C_13  and  C_14
REMARK                            x       y       z     vdW  Elec       q    Type
REMARK                         _______ _______ _______ _____ _____    ______ ____
ROOT
ATOM      1  C   UNL     1       1.842   9.600  18.074  0.00  0.00    +0.000 C 
ENDROOT
BRANCH   1   2
ATOM      2  N   UNL     1       1.342  10.323  19.258  0.00  0.00    +0.000 NA
ATOM      3  C   UNL     1       1.387  11.790  19.112  0.00  0.00    +0.000 C 
ATOM      4  C   UNL     1       0.110  12.418  18.522  0.00  0.00    +0.000 C 
ATOM      5  N   UNL     1      -1.105  12.078  19.291  0.00  0.00    +0.000 NA
ATOM      6  C   UNL     1      -1.208  10.601  19.284  0.00  0.00    +0.000 C 
ATOM      7  C   UNL     1       0.050   9.848  19.780  0.00  0.00    +0.000 C 
BRANCH   5   8
ATOM      8  C   UNL     1      -0.967  12.645  20.650  0.00  0.00    +0.000 C 
BRANCH   8   9
ATOM      9  C   UNL     1      -2.243  12.788  21.412  0.00  0.00    +0.000 A 
ATOM     10  C   UNL     1      -2.460  12.686  22.768  0.00  0.00    +0.000 A 
ATOM     11  C   UNL     1      -3.851  12.714  23.113  0.00  0.00    +0.000 A 
ATOM     12  C   UNL     1      -4.490  12.596  24.372  0.00  0.00    +0.000 A 
ATOM     13  C   UNL     1      -5.886  12.607  24.454  0.00  0.00    +0.000 A 
ATOM     14  C   UNL     1      -6.661  12.734  23.309  0.00  0.00    +0.000 A 
ATOM     15  C   UNL     1      -6.059  12.863  22.057  0.00  0.00    +0.000 A 
ATOM     16  C   UNL     1      -4.653  12.856  21.979  0.00  0.00    +0.000 A 
ATOM     17  S   UNL     1      -3.707  12.996  20.554  0.00  0.00    +0.000 S 
ENDBRANCH   8   9
ENDBRANCH   5   8
ENDBRANCH   1   2
BRANCH   1  18
ATOM     18  C   UNL     1       2.087   8.148  18.510  0.00  0.00    +0.000 C 
BRANCH  18  19
ATOM     19  O   UNL     1       2.781   7.302  17.601  0.00  0.00    +0.000 OA
BRANCH  19  20
ATOM     20  C   UNL     1       3.537   6.259  18.289  0.00  0.00    +0.000 C 
BRANCH  20  24
ATOM     21  C   UNL     1       7.002   4.770  16.102  0.00  0.00    +0.000 A 
ATOM     22  C   UNL     1       5.798   4.080  16.076  0.00  0.00    +0.000 A 
ATOM     23  C   UNL     1       4.685   4.575  16.767  0.00  0.00    +0.000 A 
ATOM     24  C   UNL     1       4.757   5.776  17.488  0.00  0.00    +0.000 A 
ATOM     25  C   UNL     1       5.976   6.480  17.451  0.00  0.00    +0.000 A 
ATOM     26  C   UNL     1       7.095   5.974  16.790  0.00  0.00    +0.000 A 
ENDBRANCH  20  24
BRANCH  20  27
ATOM     27  C   UNL     1       2.624   5.183  18.902  0.00  0.00    +0.000 A 
ATOM     28  C   UNL     1       2.548   4.924  20.282  0.00  0.00    +0.000 A 
ATOM     29  C   UNL     1       1.734   3.907  20.785  0.00  0.00    +0.000 A 
ATOM     30  C   UNL     1       0.953   3.146  19.922  0.00  0.00    +0.000 A 
ATOM     31  C   UNL     1       0.987   3.401  18.553  0.00  0.00    +0.000 A 
ATOM     32  C   UNL     1       1.816   4.408  18.048  0.00  0.00    +0.000 A 
ENDBRANCH  20  27
ENDBRANCH  19  20
ENDBRANCH  18  19
ENDBRANCH   1  18
TORSDOF 8
ENDMDL
MODEL 7
REMARK VINA RESULT:      -8.2      0.855      1.753
REMARK  Name = 
REMARK  8 active torsions:
REMARK  status: ('A' for Active; 'I' for Inactive)
REMARK    1  A    between atoms: C_4  and  C_5
REMARK    2  A    between atoms: C_5  and  O_6
REMARK    3  A    between atoms: C_5  and  C_25
REMARK    4  A    between atoms: O_6  and  C_7
REMARK    5  A    between atoms: C_7  and  C_8
REMARK    6  A    between atoms: C_8  and  N_9
REMARK    7  A    between atoms: N_12  and  C_13
REMARK    8  A    between atoms: C_13  and  C_14
REMARK                            x       y       z     vdW  Elec       q    Type
REMARK                         _______ _______ _______ _____ _____    ______ ____
ROOT
ATOM      1  C   UNL     1       2.437   9.536  18.427  0.00  0.00    +0.000 C 
ENDROOT
BRANCH   1   2
ATOM      2  N   UNL     1       1.253  10.415  18.401  0.00  0.00    +0.000 NA
ATOM      3  C   UNL     1       0.129   9.909  19.211  0.00  0.00    +0.000 C 
ATOM      4  C   UNL     1       0.121  10.390  20.674  0.00  0.00    +0.000 C 
ATOM      5  N   UNL     1       0.137  11.862  20.794  0.00  0.00    +0.000 NA
ATOM      6  C   UNL     1       1.363  12.328  20.107  0.00  0.00    +0.000 C 
ATOM      7  C   UNL     1       1.528  11.840  18.648  0.00  0.00    +0.000 C 
BRANCH   5   8
ATOM      8  C   UNL     1      -1.105  12.390  20.190  0.00  0.00    +0.000 C 
BRANCH   8   9
ATOM      9  C   UNL     1      -2.239  12.592  21.140  0.00  0.00    +0.000 A 
ATOM     10  C   UNL     1      -2.265  12.432  22.507  0.00  0.00    +0.000 A 
ATOM     11  C   UNL     1      -3.583  12.552  23.058  0.00  0.00    +0.000 A 
ATOM     12  C   UNL     1      -4.039  12.417  24.392  0.00  0.00    +0.000 A 
ATOM     13  C   UNL     1      -5.402  12.535  24.682  0.00  0.00    +0.000 A 
ATOM     14  C   UNL     1      -6.322  12.787  23.674  0.00  0.00    +0.000 A 
ATOM     15  C   UNL     1      -5.899  12.937  22.352  0.00  0.00    +0.000 A 
ATOM     16  C   UNL     1      -4.526  12.821  22.064  0.00  0.00    +0.000 A 
ATOM     17  S   UNL     1      -3.789  12.964  20.521  0.00  0.00    +0.000 S 
ENDBRANCH   8   9
ENDBRANCH   5   8
ENDBRANCH   1   2
BRANCH   1  18
ATOM     18  C   UNL     1       1.932   8.104  18.195  0.00  0.00    +0.000 C 
BRANCH  18  19
ATOM     19  O   UNL     1       2.762   7.237  17.431  0.00  0.00    +0.000 OA
BRANCH  19  20
ATOM     20  C   UNL     1       3.463   6.268  18.270  0.00  0.00    +0.000 C 
BRANCH  20  24
ATOM     21  C   UNL     1       7.229   4.903  16.549  0.00  0.00    +0.000 A 
ATOM     22  C   UNL     1       6.944   4.689  17.890  0.00  0.00    +0.000 A 
ATOM     23  C   UNL     1       5.725   5.116  18.431  0.00  0.00    +0.000 A 
ATOM     24  C   UNL     1       4.765   5.755  17.633  0.00  0.00    +0.000 A 
ATOM     25  C   UNL     1       5.060   5.909  16.264  0.00  0.00    +0.000 A 
ATOM     26  C   UNL     1       6.286   5.514  15.730  0.00  0.00    +0.000 A 
ENDBRANCH  20  24
BRANCH  20  27
ATOM     27  C   UNL     1       2.512   5.220  18.874  0.00  0.00    +0.000 A 
ATOM     28  C   UNL     1       2.174   5.173  20.238  0.00  0.00    +0.000 A 
ATOM     29  C   UNL     1       1.339   4.175  20.744  0.00  0.00    +0.000 A 
ATOM     30  C   UNL     1       0.796   3.220  19.891  0.00  0.00    +0.000 A 
ATOM     31  C   UNL     1       1.090   3.261  18.531  0.00  0.00    +0.000 A 
ATOM     32  C   UNL     1       1.942   4.250  18.027  0.00  0.00    +0.000 A 
ENDBRANCH  20  27
ENDBRANCH  19  20
ENDBRANCH  18  19
ENDBRANCH   1  18
TORSDOF 8
ENDMDL
MODEL 8
REMARK VINA RESULT:      -8.1      0.479      1.277
REMARK  Name = 
REMARK  8 active torsions:
REMARK  status: ('A' for Active; 'I' for Inactive)
REMARK    1  A    between atoms: C_4  and  C_5
REMARK    2  A    between atoms: C_5  and  O_6
REMARK    3  A    between atoms: C_5  and  C_25
REMARK    4  A    between atoms: O_6  and  C_7
REMARK    5  A    between atoms: C_7  and  C_8
REMARK    6  A    between atoms: C_8  and  N_9
REMARK    7  A    between atoms: N_12  and  C_13
REMARK    8  A    between atoms: C_13  and  C_14
REMARK                            x       y       z     vdW  Elec       q    Type
REMARK                         _______ _______ _______ _____ _____    ______ ____
ROOT
ATOM      1  C   UNL     1       1.975   9.555  18.226  0.00  0.00    +0.000 C 
ENDROOT
BRANCH   1   2
ATOM      2  N   UNL     1       1.411  10.432  19.268  0.00  0.00    +0.000 NA
ATOM      3  C   UNL     1       1.380  11.856  18.883  0.00  0.00    +0.000 C 
ATOM      4  C   UNL     1       0.084  12.305  18.183  0.00  0.00    +0.000 C 
ATOM      5  N   UNL     1      -1.127  12.027  18.982  0.00  0.00    +0.000 NA
ATOM      6  C   UNL     1      -1.150  10.565  19.217  0.00  0.00    +0.000 C 
ATOM      7  C   UNL     1       0.135   9.976  19.846  0.00  0.00    +0.000 C 
BRANCH   5   8
ATOM      8  C   UNL     1      -1.049  12.816  20.230  0.00  0.00    +0.000 C 
BRANCH   8   9
ATOM      9  C   UNL     1      -2.214  12.663  21.154  0.00  0.00    +0.000 A 
ATOM     10  C   UNL     1      -3.551  12.874  20.905  0.00  0.00    +0.000 A 
ATOM     11  C   UNL     1      -4.357  12.791  22.088  0.00  0.00    +0.000 A 
ATOM     12  C   UNL     1      -5.748  12.981  22.269  0.00  0.00    +0.000 A 
ATOM     13  C   UNL     1      -6.309  12.891  23.547  0.00  0.00    +0.000 A 
ATOM     14  C   UNL     1      -5.513  12.613  24.651  0.00  0.00    +0.000 A 
ATOM     15  C   UNL     1      -4.141  12.409  24.501  0.00  0.00    +0.000 A 
ATOM     16  C   UNL     1      -3.582  12.497  23.211  0.00  0.00    +0.000 A 
ATOM     17  S   UNL     1      -1.930  12.287  22.797  0.00  0.00    +0.000 S 
ENDBRANCH   8   9
ENDBRANCH   5   8
ENDBRANCH   1   2
BRANCH   1  18
ATOM     18  C   UNL     1       2.103   8.155  18.844  0.00  0.00    +0.000 C 
BRANCH  18  19
ATOM     19  O   UNL     1       2.423   7.082  17.967  0.00  0.00    +0.000 OA
BRANCH  19  20
ATOM     20  C   UNL     1       3.204   6.043  18.633  0.00  0.00    +0.000 C 
BRANCH  20  24
ATOM     21  C   UNL     1       7.251   5.696  17.046  0.00  0.00    +0.000 A 
ATOM     22  C   UNL     1       6.986   5.417  18.380  0.00  0.00    +0.000 A 
ATOM     23  C   UNL     1       5.681   5.515  18.878  0.00  0.00    +0.000 A 
ATOM     24  C   UNL     1       4.615   5.883  18.043  0.00  0.00    +0.000 A 
ATOM     25  C   UNL     1       4.906   6.106  16.683  0.00  0.00    +0.000 A 
ATOM     26  C   UNL     1       6.209   6.042  16.192  0.00  0.00    +0.000 A 
ENDBRANCH  20  24
BRANCH  20  27
ATOM     27  C   UNL     1       2.390   4.760  18.871  0.00  0.00    +0.000 A 
ATOM     28  C   UNL     1       2.405   3.657  17.999  0.00  0.00    +0.000 A 
ATOM     29  C   UNL     1       1.615   2.531  18.239  0.00  0.00    +0.000 A 
ATOM     30  C   UNL     1       0.814   2.469  19.375  0.00  0.00    +0.000 A 
ATOM     31  C   UNL     1       0.803   3.534  20.271  0.00  0.00    +0.000 A 
ATOM     32  C   UNL     1       1.581   4.670  20.021  0.00  0.00    +0.000 A 
ENDBRANCH  20  27
ENDBRANCH  19  20
ENDBRANCH  18  19
ENDBRANCH   1  18
TORSDOF 8
ENDMDL
MODEL 9
REMARK VINA RESULT:      -8.1      0.987      1.790
REMARK  Name = 
REMARK  8 active torsions:
REMARK  status: ('A' for Active; 'I' for Inactive)
REMARK    1  A    between atoms: C_4  and  C_5
REMARK    2  A    between atoms: C_5  and  O_6
REMARK    3  A    between atoms: C_5  and  C_25
REMARK    4  A    between atoms: O_6  and  C_7
REMARK    5  A    between atoms: C_7  and  C_8
REMARK    6  A    between atoms: C_8  and  N_9
REMARK    7  A    between atoms: N_12  and  C_13
REMARK    8  A    between atoms: C_13  and  C_14
REMARK                            x       y       z     vdW  Elec       q    Type
REMARK                         _______ _______ _______ _____ _____    ______ ____
ROOT
ATOM      1  C   UNL     1       2.081   9.837  18.148  0.00  0.00    +0.000 C 
ENDROOT
BRANCH   1   2
ATOM      2  N   UNL     1       1.497  10.743  19.155  0.00  0.00    +0.000 NA
ATOM      3  C   UNL     1       0.764  11.880  18.566  0.00  0.00    +0.000 C 
ATOM      4  C   UNL     1      -0.735  11.622  18.321  0.00  0.00    +0.000 C 
ATOM      5  N   UNL     1      -1.453  11.205  19.543  0.00  0.00    +0.000 NA
ATOM      6  C   UNL     1      -0.791   9.970  20.020  0.00  0.00    +0.000 C 
ATOM      7  C   UNL     1       0.739  10.078  20.228  0.00  0.00    +0.000 C 
BRANCH   5   8
ATOM      8  C   UNL     1      -1.389  12.314  20.518  0.00  0.00    +0.000 C 
BRANCH   8   9
ATOM      9  C   UNL     1      -2.656  12.578  21.265  0.00  0.00    +0.000 A 
ATOM     10  C   UNL     1      -2.889  12.534  22.620  0.00  0.00    +0.000 A 
ATOM     11  C   UNL     1      -4.276  12.680  22.953  0.00  0.00    +0.000 A 
ATOM     12  C   UNL     1      -4.930  12.650  24.208  0.00  0.00    +0.000 A 
ATOM     13  C   UNL     1      -6.322  12.772  24.277  0.00  0.00    +0.000 A 
ATOM     14  C   UNL     1      -7.077  12.924  23.123  0.00  0.00    +0.000 A 
ATOM     15  C   UNL     1      -6.459  12.969  21.873  0.00  0.00    +0.000 A 
ATOM     16  C   UNL     1      -5.057  12.850  21.808  0.00  0.00    +0.000 A 
ATOM     17  S   UNL     1      -4.093  12.874  20.388  0.00  0.00    +0.000 S 
ENDBRANCH   8   9
ENDBRANCH   5   8
ENDBRANCH   1   2
BRANCH   1  18
ATOM     18  C   UNL     1       1.936   8.410  18.696  0.00  0.00    +0.000 C 
BRANCH  18  19
ATOM     19  O   UNL     1       2.504   7.356  17.929  0.00  0.00    +0.000 OA
BRANCH  19  20
ATOM     20  C   UNL     1       3.197   6.380  18.765  0.00  0.00    +0.000 C 
BRANCH  20  24
ATOM     21  C   UNL     1       7.402   5.874  17.729  0.00  0.00    +0.000 A 
ATOM     22  C   UNL     1       6.876   5.277  18.866  0.00  0.00    +0.000 A 
ATOM     23  C   UNL     1       5.520   5.430  19.182  0.00  0.00    +0.000 A 
ATOM     24  C   UNL     1       4.666   6.177  18.357  0.00  0.00    +0.000 A 
ATOM     25  C   UNL     1       5.217   6.725  17.183  0.00  0.00    +0.000 A 
ATOM     26  C   UNL     1       6.573   6.600  16.882  0.00  0.00    +0.000 A 
ENDBRANCH  20  24
BRANCH  20  27
ATOM     27  C   UNL     1       2.353   5.118  19.014  0.00  0.00    +0.000 A 
ATOM     28  C   UNL     1       2.046   4.180  18.013  0.00  0.00    +0.000 A 
ATOM     29  C   UNL     1       1.240   3.071  18.282  0.00  0.00    +0.000 A 
ATOM     30  C   UNL     1       0.750   2.857  19.566  0.00  0.00    +0.000 A 
ATOM     31  C   UNL     1       1.065   3.755  20.583  0.00  0.00    +0.000 A 
ATOM     32  C   UNL     1       1.856   4.876  20.310  0.00  0.00    +0.000 A 
ENDBRANCH  20  27
ENDBRANCH  19  20
ENDBRANCH  18  19
ENDBRANCH   1  18
TORSDOF 8
ENDMDL
