MODEL 1
REMARK VINA RESULT:      -7.2      0.000      0.000
REMARK  Name = 
REMARK  7 active torsions:
REMARK  status: ('A' for Active; 'I' for Inactive)
REMARK    1  A    between atoms: C_1  and  N_2
REMARK    2  A    between atoms: N_2  and  C_3
REMARK    3  A    between atoms: N_2  and  S_14
REMARK    4  A    between atoms: C_3  and  C_4
REMARK    5  A    between atoms: N_6  and  C_7
REMARK    6  A    between atoms: C_7  and  C_8
REMARK    7  A    between atoms: S_14  and  C_17
REMARK                            x       y       z     vdW  Elec       q    Type
REMARK                         _______ _______ _______ _____ _____    ______ ____
ROOT
ATOM      1  C   UNL     1       1.449   4.292  17.643  0.00  0.00    +0.000 C 
ATOM      2  N   UNL     1       2.753   4.758  18.166  0.00  0.00    +0.000 NA
ENDROOT
BRANCH   2   3
ATOM      3  S   UNL     1       3.957   3.552  18.268  0.00  0.00    +0.000 S 
ATOM      4  O   UNL     1       4.481   3.503  19.615  0.00  0.00    +0.000 OA
ATOM      5  O   UNL     1       3.387   2.361  17.669  0.00  0.00    +0.000 OA
BRANCH   3   6
ATOM      6  C   UNL     1       5.248   4.138  17.203  0.00  0.00    +0.000 A 
ATOM      7  C   UNL     1       5.260   3.698  15.868  0.00  0.00    +0.000 A 
ATOM      8  C   UNL     1       6.246   4.154  14.996  0.00  0.00    +0.000 A 
ATOM      9 CL   UNL     1       6.254   3.627  13.360  0.00  0.00    +0.000 Cl
ATOM     10  C   UNL     1       7.222   5.041  15.441  0.00  0.00    +0.000 A 
ATOM     11  C   UNL     1       7.218   5.466  16.770  0.00  0.00    +0.000 A 
ATOM     12  C   UNL     1       6.233   5.016  17.661  0.00  0.00    +0.000 A 
ATOM     13 CL   UNL     1       6.326   5.610  19.277  0.00  0.00    +0.000 Cl
ENDBRANCH   3   6
ENDBRANCH   2   3
BRANCH   2  14
ATOM     14  C   UNL     1       2.622   5.553  19.422  0.00  0.00    +0.000 C 
BRANCH  14  15
ATOM     15  C   UNL     1       2.433   7.045  19.150  0.00  0.00    +0.000 C 
ATOM     16  O   UNL     1       2.673   7.558  18.059  0.00  0.00    +0.000 OA
ATOM     17  N   UNL     1       1.913   7.769  20.205  0.00  0.00    +0.000 N 
ATOM     18  H   UNL     1       1.876   7.367  21.133  0.00  0.00    +0.000 HD
BRANCH  17  19
ATOM     19  C   UNL     1       1.689   9.201  20.106  0.00  0.00    +0.000 C 
BRANCH  19  20
ATOM     20  C   UNL     1       0.704   9.717  21.132  0.00  0.00    +0.000 A 
ATOM     21  C   UNL     1       0.591   9.098  22.375  0.00  0.00    +0.000 A 
ATOM     22  C   UNL     1      -0.305   9.607  23.308  0.00  0.00    +0.000 A 
ATOM     23  C   UNL     1      -1.070  10.717  22.978  0.00  0.00    +0.000 A 
ATOM     24  C   UNL     1      -0.911  11.270  21.718  0.00  0.00    +0.000 A 
ATOM     25  N   UNL     1      -0.052  10.793  20.786  0.00  0.00    +0.000 NA
ENDBRANCH  19  20
ENDBRANCH  17  19
ENDBRANCH  14  15
ENDBRANCH   2  14
TORSDOF 6
ENDMDL
MODEL 2
REMARK VINA RESULT:      -7.2      3.420      4.742
REMARK  Name = 
REMARK  7 active torsions:
REMARK  status: ('A' for Active; 'I' for Inactive)
REMARK    1  A    between atoms: C_1  and  N_2
REMARK    2  A    between atoms: N_2  and  C_3
REMARK    3  A    between atoms: N_2  and  S_14
REMARK    4  A    between atoms: C_3  and  C_4
REMARK    5  A    between atoms: N_6  and  C_7
REMARK    6  A    between atoms: C_7  and  C_8
REMARK    7  A    between atoms: S_14  and  C_17
REMARK                            x       y       z     vdW  Elec       q    Type
REMARK                         _______ _______ _______ _____ _____    ______ ____
ROOT
ATOM      1  C   UNL     1       7.715   7.338  18.086  0.00  0.00    +0.000 C 
ATOM      2  N   UNL     1       6.525   6.458  18.065  0.00  0.00    +0.000 NA
ENDROOT
BRANCH   2   3
ATOM      3  S   UNL     1       6.865   4.798  17.865  0.00  0.00    +0.000 S 
ATOM      4  O   UNL     1       8.279   4.565  18.060  0.00  0.00    +0.000 OA
ATOM      5  O   UNL     1       5.895   4.086  18.676  0.00  0.00    +0.000 OA
BRANCH   3   6
ATOM      6  C   UNL     1       6.492   4.481  16.160  0.00  0.00    +0.000 A 
ATOM      7  C   UNL     1       7.350   5.014  15.182  0.00  0.00    +0.000 A 
ATOM      8  C   UNL     1       7.102   4.768  13.834  0.00  0.00    +0.000 A 
ATOM      9 CL   UNL     1       8.158   5.407  12.638  0.00  0.00    +0.000 Cl
ATOM     10  C   UNL     1       6.007   3.999  13.449  0.00  0.00    +0.000 A 
ATOM     11  C   UNL     1       5.148   3.483  14.421  0.00  0.00    +0.000 A 
ATOM     12  C   UNL     1       5.383   3.722  15.783  0.00  0.00    +0.000 A 
ATOM     13 CL   UNL     1       4.257   3.032  16.891  0.00  0.00    +0.000 Cl
ENDBRANCH   3   6
ENDBRANCH   2   3
BRANCH   2  14
ATOM     14  C   UNL     1       5.461   6.947  17.139  0.00  0.00    +0.000 C 
BRANCH  14  15
ATOM     15  C   UNL     1       4.098   7.055  17.823  0.00  0.00    +0.000 C 
ATOM     16  O   UNL     1       3.197   7.776  17.401  0.00  0.00    +0.000 OA
ATOM     17  N   UNL     1       3.931   6.234  18.921  0.00  0.00    +0.000 N 
ATOM     18  H   UNL     1       4.727   5.776  19.345  0.00  0.00    +0.000 HD
BRANCH  17  19
ATOM     19  C   UNL     1       2.696   6.232  19.687  0.00  0.00    +0.000 C 
BRANCH  19  20
ATOM     20  C   UNL     1       2.039   4.871  19.747  0.00  0.00    +0.000 A 
ATOM     21  C   UNL     1       1.595   4.250  18.581  0.00  0.00    +0.000 A 
ATOM     22  C   UNL     1       1.016   2.989  18.662  0.00  0.00    +0.000 A 
ATOM     23  C   UNL     1       0.888   2.380  19.903  0.00  0.00    +0.000 A 
ATOM     24  C   UNL     1       1.341   3.066  21.017  0.00  0.00    +0.000 A 
ATOM     25  N   UNL     1       1.903   4.297  20.972  0.00  0.00    +0.000 NA
ENDBRANCH  19  20
ENDBRANCH  17  19
ENDBRANCH  14  15
ENDBRANCH   2  14
TORSDOF 6
ENDMDL
MODEL 3
REMARK VINA RESULT:      -6.9      1.941      2.501
REMARK  Name = 
REMARK  7 active torsions:
REMARK  status: ('A' for Active; 'I' for Inactive)
REMARK    1  A    between atoms: C_1  and  N_2
REMARK    2  A    between atoms: N_2  and  C_3
REMARK    3  A    between atoms: N_2  and  S_14
REMARK    4  A    between atoms: C_3  and  C_4
REMARK    5  A    between atoms: N_6  and  C_7
REMARK    6  A    between atoms: C_7  and  C_8
REMARK    7  A    between atoms: S_14  and  C_17
REMARK                            x       y       z     vdW  Elec       q    Type
REMARK                         _______ _______ _______ _____ _____    ______ ____
ROOT
ATOM      1  C   UNL     1       1.551   3.093  18.104  0.00  0.00    +0.000 C 
ATOM      2  N   UNL     1       2.749   3.607  18.805  0.00  0.00    +0.000 NA
ENDROOT
BRANCH   2   3
ATOM      3  S   UNL     1       4.194   2.767  18.463  0.00  0.00    +0.000 S 
ATOM      4  O   UNL     1       4.984   2.650  19.669  0.00  0.00    +0.000 OA
ATOM      5  O   UNL     1       3.807   1.576  17.732  0.00  0.00    +0.000 OA
BRANCH   3   6
ATOM      6  C   UNL     1       5.064   3.837  17.347  0.00  0.00    +0.000 A 
ATOM      7  C   UNL     1       5.205   3.429  16.009  0.00  0.00    +0.000 A 
ATOM      8  C   UNL     1       5.862   4.253  15.099  0.00  0.00    +0.000 A 
ATOM      9 CL   UNL     1       6.023   3.761  13.460  0.00  0.00    +0.000 Cl
ATOM     10  C   UNL     1       6.383   5.477  15.507  0.00  0.00    +0.000 A 
ATOM     11  C   UNL     1       6.254   5.875  16.839  0.00  0.00    +0.000 A 
ATOM     12  C   UNL     1       5.597   5.057  17.769  0.00  0.00    +0.000 A 
ATOM     13 CL   UNL     1       5.497   5.653  19.384  0.00  0.00    +0.000 Cl
ENDBRANCH   3   6
ENDBRANCH   2   3
BRANCH   2  14
ATOM     14  C   UNL     1       2.524   3.802  20.267  0.00  0.00    +0.000 C 
BRANCH  14  15
ATOM     15  C   UNL     1       1.584   4.971  20.561  0.00  0.00    +0.000 C 
ATOM     16  O   UNL     1       0.363   4.845  20.619  0.00  0.00    +0.000 OA
ATOM     17  N   UNL     1       2.213   6.174  20.817  0.00  0.00    +0.000 N 
ATOM     18  H   UNL     1       3.195   6.294  20.607  0.00  0.00    +0.000 HD
BRANCH  17  19
ATOM     19  C   UNL     1       1.456   7.382  21.099  0.00  0.00    +0.000 C 
BRANCH  19  20
ATOM     20  C   UNL     1       1.522   8.397  19.980  0.00  0.00    +0.000 A 
ATOM     21  C   UNL     1       2.156   8.082  18.779  0.00  0.00    +0.000 A 
ATOM     22  C   UNL     1       2.182   9.025  17.757  0.00  0.00    +0.000 A 
ATOM     23  C   UNL     1       1.581  10.260  17.959  0.00  0.00    +0.000 A 
ATOM     24  C   UNL     1       0.983  10.503  19.184  0.00  0.00    +0.000 A 
ATOM     25  N   UNL     1       0.947   9.609  20.200  0.00  0.00    +0.000 NA
ENDBRANCH  19  20
ENDBRANCH  17  19
ENDBRANCH  14  15
ENDBRANCH   2  14
TORSDOF 6
ENDMDL
MODEL 4
REMARK VINA RESULT:      -6.9      5.208      7.378
REMARK  Name = 
REMARK  7 active torsions:
REMARK  status: ('A' for Active; 'I' for Inactive)
REMARK    1  A    between atoms: C_1  and  N_2
REMARK    2  A    between atoms: N_2  and  C_3
REMARK    3  A    between atoms: N_2  and  S_14
REMARK    4  A    between atoms: C_3  and  C_4
REMARK    5  A    between atoms: N_6  and  C_7
REMARK    6  A    between atoms: C_7  and  C_8
REMARK    7  A    between atoms: S_14  and  C_17
REMARK                            x       y       z     vdW  Elec       q    Type
REMARK                         _______ _______ _______ _____ _____    ______ ____
ROOT
ATOM      1  C   UNL     1       7.210   5.034  18.189  0.00  0.00    +0.000 C 
ATOM      2  N   UNL     1       6.523   6.139  17.482  0.00  0.00    +0.000 NA
ENDROOT
BRANCH   2   3
ATOM      3  S   UNL     1       5.425   5.642  16.274  0.00  0.00    +0.000 S 
ATOM      4  O   UNL     1       5.061   6.776  15.453  0.00  0.00    +0.000 OA
ATOM      5  O   UNL     1       6.004   4.462  15.661  0.00  0.00    +0.000 OA
BRANCH   3   6
ATOM      6  C   UNL     1       3.984   5.141  17.177  0.00  0.00    +0.000 A 
ATOM      7  C   UNL     1       3.665   3.772  17.215  0.00  0.00    +0.000 A 
ATOM      8  C   UNL     1       2.553   3.338  17.933  0.00  0.00    +0.000 A 
ATOM      9 CL   UNL     1       2.171   1.664  17.992  0.00  0.00    +0.000 Cl
ATOM     10  C   UNL     1       1.753   4.254  18.611  0.00  0.00    +0.000 A 
ATOM     11  C   UNL     1       2.062   5.614  18.560  0.00  0.00    +0.000 A 
ATOM     12  C   UNL     1       3.177   6.068  17.841  0.00  0.00    +0.000 A 
ATOM     13 CL   UNL     1       3.461   7.768  17.852  0.00  0.00    +0.000 Cl
ENDBRANCH   3   6
ENDBRANCH   2   3
BRANCH   2  14
ATOM     14  C   UNL     1       7.463   7.197  17.010  0.00  0.00    +0.000 C 
BRANCH  14  15
ATOM     15  C   UNL     1       8.182   7.894  18.166  0.00  0.00    +0.000 C 
ATOM     16  O   UNL     1       8.637   7.283  19.131  0.00  0.00    +0.000 OA
ATOM     17  N   UNL     1       8.337   9.258  18.018  0.00  0.00    +0.000 N 
ATOM     18  H   UNL     1       7.820   9.759  17.307  0.00  0.00    +0.000 HD
BRANCH  17  19
ATOM     19  C   UNL     1       8.987  10.063  19.038  0.00  0.00    +0.000 C 
BRANCH  19  20
ATOM     20  C   UNL     1       9.706  11.267  18.471  0.00  0.00    +0.000 A 
ATOM     21  C   UNL     1       8.986  12.313  17.898  0.00  0.00    +0.000 A 
ATOM     22  C   UNL     1       9.670  13.420  17.406  0.00  0.00    +0.000 A 
ATOM     23  C   UNL     1      11.055  13.454  17.492  0.00  0.00    +0.000 A 
ATOM     24  C   UNL     1      11.701  12.370  18.063  0.00  0.00    +0.000 A 
ATOM     25  N   UNL     1      11.064  11.277  18.545  0.00  0.00    +0.000 NA
ENDBRANCH  19  20
ENDBRANCH  17  19
ENDBRANCH  14  15
ENDBRANCH   2  14
TORSDOF 6
ENDMDL
MODEL 5
REMARK VINA RESULT:      -6.9      1.300      1.589
REMARK  Name = 
REMARK  7 active torsions:
REMARK  status: ('A' for Active; 'I' for Inactive)
REMARK    1  A    between atoms: C_1  and  N_2
REMARK    2  A    between atoms: N_2  and  C_3
REMARK    3  A    between atoms: N_2  and  S_14
REMARK    4  A    between atoms: C_3  and  C_4
REMARK    5  A    between atoms: N_6  and  C_7
REMARK    6  A    between atoms: C_7  and  C_8
REMARK    7  A    between atoms: S_14  and  C_17
REMARK                            x       y       z     vdW  Elec       q    Type
REMARK                         _______ _______ _______ _____ _____    ______ ____
ROOT
ATOM      1  C   UNL     1       4.373   6.812  17.434  0.00  0.00    +0.000 C 
ATOM      2  N   UNL     1       3.930   5.795  18.414  0.00  0.00    +0.000 NA
ENDROOT
BRANCH   2   3
ATOM      3  S   UNL     1       4.536   4.224  18.139  0.00  0.00    +0.000 S 
ATOM      4  O   UNL     1       5.389   3.833  19.241  0.00  0.00    +0.000 OA
ATOM      5  O   UNL     1       3.393   3.405  17.783  0.00  0.00    +0.000 OA
BRANCH   3   6
ATOM      6  C   UNL     1       5.556   4.399  16.699  0.00  0.00    +0.000 A 
ATOM      7  C   UNL     1       5.025   4.009  15.457  0.00  0.00    +0.000 A 
ATOM      8  C   UNL     1       5.788   4.152  14.301  0.00  0.00    +0.000 A 
ATOM      9 CL   UNL     1       5.136   3.690  12.780  0.00  0.00    +0.000 Cl
ATOM     10  C   UNL     1       7.076   4.677  14.369  0.00  0.00    +0.000 A 
ATOM     11  C   UNL     1       7.607   5.050  15.604  0.00  0.00    +0.000 A 
ATOM     12  C   UNL     1       6.853   4.911  16.778  0.00  0.00    +0.000 A 
ATOM     13 CL   UNL     1       7.611   5.408  18.245  0.00  0.00    +0.000 Cl
ENDBRANCH   3   6
ENDBRANCH   2   3
BRANCH   2  14
ATOM     14  C   UNL     1       2.455   5.814  18.641  0.00  0.00    +0.000 C 
BRANCH  14  15
ATOM     15  C   UNL     1       2.093   6.146  20.089  0.00  0.00    +0.000 C 
ATOM     16  O   UNL     1       2.079   5.302  20.982  0.00  0.00    +0.000 OA
ATOM     17  N   UNL     1       1.839   7.481  20.335  0.00  0.00    +0.000 N 
ATOM     18  H   UNL     1       1.697   8.126  19.567  0.00  0.00    +0.000 HD
BRANCH  17  19
ATOM     19  C   UNL     1       1.468   7.953  21.658  0.00  0.00    +0.000 C 
BRANCH  19  20
ATOM     20  C   UNL     1       0.583   9.179  21.622  0.00  0.00    +0.000 A 
ATOM     21  C   UNL     1      -0.018   9.649  22.789  0.00  0.00    +0.000 A 
ATOM     22  C   UNL     1      -0.808  10.791  22.733  0.00  0.00    +0.000 A 
ATOM     23  C   UNL     1      -0.986  11.434  21.515  0.00  0.00    +0.000 A 
ATOM     24  C   UNL     1      -0.368  10.899  20.397  0.00  0.00    +0.000 A 
ATOM     25  N   UNL     1       0.402   9.785  20.418  0.00  0.00    +0.000 NA
ENDBRANCH  19  20
ENDBRANCH  17  19
ENDBRANCH  14  15
ENDBRANCH   2  14
TORSDOF 6
ENDMDL
MODEL 6
REMARK VINA RESULT:      -6.7      1.390      1.781
REMARK  Name = 
REMARK  7 active torsions:
REMARK  status: ('A' for Active; 'I' for Inactive)
REMARK    1  A    between atoms: C_1  and  N_2
REMARK    2  A    between atoms: N_2  and  C_3
REMARK    3  A    between atoms: N_2  and  S_14
REMARK    4  A    between atoms: C_3  and  C_4
REMARK    5  A    between atoms: N_6  and  C_7
REMARK    6  A    between atoms: C_7  and  C_8
REMARK    7  A    between atoms: S_14  and  C_17
REMARK                            x       y       z     vdW  Elec       q    Type
REMARK                         _______ _______ _______ _____ _____    ______ ____
ROOT
ATOM      1  C   UNL     1       4.116   6.791  17.495  0.00  0.00    +0.000 C 
ATOM      2  N   UNL     1       3.826   5.776  18.532  0.00  0.00    +0.000 NA
ENDROOT
BRANCH   2   3
ATOM      3  S   UNL     1       4.614   4.279  18.310  0.00  0.00    +0.000 S 
ATOM      4  O   UNL     1       5.539   4.051  19.399  0.00  0.00    +0.000 OA
ATOM      5  O   UNL     1       3.571   3.310  18.032  0.00  0.00    +0.000 OA
BRANCH   3   6
ATOM      6  C   UNL     1       5.563   4.504  16.829  0.00  0.00    +0.000 A 
ATOM      7  C   UNL     1       5.015   4.057  15.614  0.00  0.00    +0.000 A 
ATOM      8  C   UNL     1       5.722   4.236  14.427  0.00  0.00    +0.000 A 
ATOM      9 CL   UNL     1       5.048   3.702  12.939  0.00  0.00    +0.000 Cl
ATOM     10  C   UNL     1       6.969   4.855  14.438  0.00  0.00    +0.000 A 
ATOM     11  C   UNL     1       7.518   5.286  15.647  0.00  0.00    +0.000 A 
ATOM     12  C   UNL     1       6.820   5.111  16.851  0.00  0.00    +0.000 A 
ATOM     13 CL   UNL     1       7.595   5.686  18.280  0.00  0.00    +0.000 Cl
ENDBRANCH   3   6
ENDBRANCH   2   3
BRANCH   2  14
ATOM     14  C   UNL     1       2.366   5.627  18.804  0.00  0.00    +0.000 C 
BRANCH  14  15
ATOM     15  C   UNL     1       1.974   6.153  20.185  0.00  0.00    +0.000 C 
ATOM     16  O   UNL     1       1.723   5.411  21.133  0.00  0.00    +0.000 OA
ATOM     17  N   UNL     1       1.980   7.528  20.308  0.00  0.00    +0.000 N 
ATOM     18  H   UNL     1       2.028   8.116  19.486  0.00  0.00    +0.000 HD
BRANCH  17  19
ATOM     19  C   UNL     1       1.616   8.181  21.554  0.00  0.00    +0.000 C 
BRANCH  19  20
ATOM     20  C   UNL     1       0.710   9.375  21.354  0.00  0.00    +0.000 A 
ATOM     21  C   UNL     1       0.259   9.713  20.080  0.00  0.00    +0.000 A 
ATOM     22  C   UNL     1      -0.592  10.801  19.926  0.00  0.00    +0.000 A 
ATOM     23  C   UNL     1      -0.969  11.530  21.046  0.00  0.00    +0.000 A 
ATOM     24  C   UNL     1      -0.469  11.142  22.277  0.00  0.00    +0.000 A 
ATOM     25  N   UNL     1       0.367  10.091  22.458  0.00  0.00    +0.000 NA
ENDBRANCH  19  20
ENDBRANCH  17  19
ENDBRANCH  14  15
ENDBRANCH   2  14
TORSDOF 6
ENDMDL
MODEL 7
REMARK VINA RESULT:      -6.7      1.654      2.304
REMARK  Name = 
REMARK  7 active torsions:
REMARK  status: ('A' for Active; 'I' for Inactive)
REMARK    1  A    between atoms: C_1  and  N_2
REMARK    2  A    between atoms: N_2  and  C_3
REMARK    3  A    between atoms: N_2  and  S_14
REMARK    4  A    between atoms: C_3  and  C_4
REMARK    5  A    between atoms: N_6  and  C_7
REMARK    6  A    between atoms: C_7  and  C_8
REMARK    7  A    between atoms: S_14  and  C_17
REMARK                            x       y       z     vdW  Elec       q    Type
REMARK                         _______ _______ _______ _____ _____    ______ ____
ROOT
ATOM      1  C   UNL     1       2.876   1.754  18.713  0.00  0.00    +0.000 C 
ATOM      2  N   UNL     1       3.136   3.208  18.621  0.00  0.00    +0.000 NA
ENDROOT
BRANCH   2   3
ATOM      3  S   UNL     1       4.610   3.718  19.313  0.00  0.00    +0.000 S 
ATOM      4  O   UNL     1       4.371   4.843  20.190  0.00  0.00    +0.000 OA
ATOM      5  O   UNL     1       5.249   2.522  19.829  0.00  0.00    +0.000 OA
BRANCH   3   6
ATOM      6  C   UNL     1       5.561   4.296  17.933  0.00  0.00    +0.000 A 
ATOM      7  C   UNL     1       5.126   3.961  16.639  0.00  0.00    +0.000 A 
ATOM      8  C   UNL     1       5.835   4.416  15.530  0.00  0.00    +0.000 A 
ATOM      9 CL   UNL     1       5.297   4.019  13.947  0.00  0.00    +0.000 Cl
ATOM     10  C   UNL     1       6.975   5.199  15.696  0.00  0.00    +0.000 A 
ATOM     11  C   UNL     1       7.413   5.519  16.981  0.00  0.00    +0.000 A 
ATOM     12  C   UNL     1       6.712   5.068  18.109  0.00  0.00    +0.000 A 
ATOM     13 CL   UNL     1       7.345   5.528  19.645  0.00  0.00    +0.000 Cl
ENDBRANCH   3   6
ENDBRANCH   2   3
BRANCH   2  14
ATOM     14  C   UNL     1       1.974   4.034  19.061  0.00  0.00    +0.000 C 
BRANCH  14  15
ATOM     15  C   UNL     1       1.831   5.321  18.248  0.00  0.00    +0.000 C 
ATOM     16  O   UNL     1       1.135   5.395  17.237  0.00  0.00    +0.000 OA
ATOM     17  N   UNL     1       2.496   6.414  18.766  0.00  0.00    +0.000 N 
ATOM     18  H   UNL     1       3.187   6.295  19.496  0.00  0.00    +0.000 HD
BRANCH  17  19
ATOM     19  C   UNL     1       2.470   7.705  18.100  0.00  0.00    +0.000 C 
BRANCH  19  20
ATOM     20  C   UNL     1       1.562   8.704  18.782  0.00  0.00    +0.000 A 
ATOM     21  C   UNL     1       0.898   9.677  18.038  0.00  0.00    +0.000 A 
ATOM     22  C   UNL     1       0.051  10.569  18.686  0.00  0.00    +0.000 A 
ATOM     23  C   UNL     1      -0.109  10.473  20.062  0.00  0.00    +0.000 A 
ATOM     24  C   UNL     1       0.595   9.488  20.735  0.00  0.00    +0.000 A 
ATOM     25  N   UNL     1       1.432   8.610  20.133  0.00  0.00    +0.000 NA
ENDBRANCH  19  20
ENDBRANCH  17  19
ENDBRANCH  14  15
ENDBRANCH   2  14
TORSDOF 6
ENDMDL
MODEL 8
REMARK VINA RESULT:      -6.7      4.816      8.621
REMARK  Name = 
REMARK  7 active torsions:
REMARK  status: ('A' for Active; 'I' for Inactive)
REMARK    1  A    between atoms: C_1  and  N_2
REMARK    2  A    between atoms: N_2  and  C_3
REMARK    3  A    between atoms: N_2  and  S_14
REMARK    4  A    between atoms: C_3  and  C_4
REMARK    5  A    between atoms: N_6  and  C_7
REMARK    6  A    between atoms: C_7  and  C_8
REMARK    7  A    between atoms: S_14  and  C_17
REMARK                            x       y       z     vdW  Elec       q    Type
REMARK                         _______ _______ _______ _____ _____    ______ ____
ROOT
ATOM      1  C   UNL     1       1.887  10.562  18.155  0.00  0.00    +0.000 C 
ATOM      2  N   UNL     1       0.785  10.003  18.970  0.00  0.00    +0.000 NA
ENDROOT
BRANCH   2   3
ATOM      3  S   UNL     1      -0.213  11.166  19.720  0.00  0.00    +0.000 S 
ATOM      4  O   UNL     1      -0.554  10.724  21.055  0.00  0.00    +0.000 OA
ATOM      5  O   UNL     1       0.442  12.446  19.527  0.00  0.00    +0.000 OA
BRANCH   3   6
ATOM      6  C   UNL     1      -1.696  11.156  18.749  0.00  0.00    +0.000 A 
ATOM      7  C   UNL     1      -1.688  10.455  17.530  0.00  0.00    +0.000 A 
ATOM      8  C   UNL     1      -2.841  10.407  16.751  0.00  0.00    +0.000 A 
ATOM      9 CL   UNL     1      -2.838   9.539  15.267  0.00  0.00    +0.000 Cl
ATOM     10  C   UNL     1      -4.002  11.052  17.170  0.00  0.00    +0.000 A 
ATOM     11  C   UNL     1      -4.004  11.759  18.374  0.00  0.00    +0.000 A 
ATOM     12  C   UNL     1      -2.851  11.819  19.170  0.00  0.00    +0.000 A 
ATOM     13 CL   UNL     1      -2.973  12.719  20.635  0.00  0.00    +0.000 Cl
ENDBRANCH   3   6
ENDBRANCH   2   3
BRANCH   2  14
ATOM     14  C   UNL     1       1.244   8.940  19.912  0.00  0.00    +0.000 C 
BRANCH  14  15
ATOM     15  C   UNL     1       1.976   7.804  19.196  0.00  0.00    +0.000 C 
ATOM     16  O   UNL     1       1.994   7.691  17.972  0.00  0.00    +0.000 OA
ATOM     17  N   UNL     1       2.669   6.944  20.024  0.00  0.00    +0.000 N 
ATOM     18  H   UNL     1       2.510   6.956  21.024  0.00  0.00    +0.000 HD
BRANCH  17  19
ATOM     19  C   UNL     1       3.403   5.807  19.496  0.00  0.00    +0.000 C 
BRANCH  19  20
ATOM     20  C   UNL     1       2.538   4.581  19.306  0.00  0.00    +0.000 A 
ATOM     21  C   UNL     1       1.548   4.265  20.234  0.00  0.00    +0.000 A 
ATOM     22  C   UNL     1       0.751   3.145  20.024  0.00  0.00    +0.000 A 
ATOM     23  C   UNL     1       0.964   2.364  18.896  0.00  0.00    +0.000 A 
ATOM     24  C   UNL     1       1.976   2.734  18.026  0.00  0.00    +0.000 A 
ATOM     25  N   UNL     1       2.773   3.815  18.207  0.00  0.00    +0.000 NA
ENDBRANCH  19  20
ENDBRANCH  17  19
ENDBRANCH  14  15
ENDBRANCH   2  14
TORSDOF 6
ENDMDL
MODEL 9
REMARK VINA RESULT:      -6.6      3.788      9.033
REMARK  Name = 
REMARK  7 active torsions:
REMARK  status: ('A' for Active; 'I' for Inactive)
REMARK    1  A    between atoms: C_1  and  N_2
REMARK    2  A    between atoms: N_2  and  C_3
REMARK    3  A    between atoms: N_2  and  S_14
REMARK    4  A    between atoms: C_3  and  C_4
REMARK    5  A    between atoms: N_6  and  C_7
REMARK    6  A    between atoms: C_7  and  C_8
REMARK    7  A    between atoms: S_14  and  C_17
REMARK                            x       y       z     vdW  Elec       q    Type
REMARK                         _______ _______ _______ _____ _____    ______ ____
ROOT
ATOM      1  C   UNL     1       7.446   6.314  18.289  0.00  0.00    +0.000 C 
ATOM      2  N   UNL     1       6.573   5.513  17.401  0.00  0.00    +0.000 NA
ENDROOT
BRANCH   2   3
ATOM      3  S   UNL     1       5.269   4.741  18.184  0.00  0.00    +0.000 S 
ATOM      4  O   UNL     1       4.721   3.719  17.321  0.00  0.00    +0.000 OA
ATOM      5  O   UNL     1       5.743   4.392  19.510  0.00  0.00    +0.000 OA
BRANCH   3   6
ATOM      6  C   UNL     1       4.050   6.018  18.356  0.00  0.00    +0.000 A 
ATOM      7  C   UNL     1       3.268   6.038  19.525  0.00  0.00    +0.000 A 
ATOM      8  C   UNL     1       2.316   7.038  19.705  0.00  0.00    +0.000 A 
ATOM      9 CL   UNL     1       1.369   7.072  21.139  0.00  0.00    +0.000 Cl
ATOM     10  C   UNL     1       2.132   8.017  18.732  0.00  0.00    +0.000 A 
ATOM     11  C   UNL     1       2.899   7.988  17.567  0.00  0.00    +0.000 A 
ATOM     12  C   UNL     1       3.861   6.987  17.368  0.00  0.00    +0.000 A 
ATOM     13 CL   UNL     1       4.750   7.054  15.893  0.00  0.00    +0.000 Cl
ENDBRANCH   3   6
ENDBRANCH   2   3
BRANCH   2  14
ATOM     14  C   UNL     1       7.342   4.593  16.512  0.00  0.00    +0.000 C 
BRANCH  14  15
ATOM     15  C   UNL     1       7.061   4.846  15.030  0.00  0.00    +0.000 C 
ATOM     16  O   UNL     1       7.810   5.507  14.314  0.00  0.00    +0.000 OA
ATOM     17  N   UNL     1       5.931   4.225  14.537  0.00  0.00    +0.000 N 
ATOM     18  H   UNL     1       5.248   3.826  15.169  0.00  0.00    +0.000 HD
BRANCH  17  19
ATOM     19  C   UNL     1       5.522   4.380  13.152  0.00  0.00    +0.000 C 
BRANCH  19  20
ATOM     20  C   UNL     1       6.004   3.255  12.263  0.00  0.00    +0.000 A 
ATOM     21  C   UNL     1       7.339   3.188  11.872  0.00  0.00    +0.000 A 
ATOM     22  C   UNL     1       7.762   2.131  11.074  0.00  0.00    +0.000 A 
ATOM     23  C   UNL     1       6.841   1.169  10.681  0.00  0.00    +0.000 A 
ATOM     24  C   UNL     1       5.528   1.311  11.098  0.00  0.00    +0.000 A 
ATOM     25  N   UNL     1       5.086   2.333  11.870  0.00  0.00    +0.000 NA
ENDBRANCH  19  20
ENDBRANCH  17  19
ENDBRANCH  14  15
ENDBRANCH   2  14
TORSDOF 6
ENDMDL
