MODEL 1
REMARK VINA RESULT:      -7.9      0.000      0.000
REMARK  Name = 
REMARK  5 active torsions:
REMARK  status: ('A' for Active; 'I' for Inactive)
REMARK    1  A    between atoms: C_1  and  O_2
REMARK    2  A    between atoms: O_2  and  C_3
REMARK    3  A    between atoms: C_5  and  N_6
REMARK    4  A    between atoms: C_14  and  N_15
REMARK    5  A    between atoms: C_21  and  C_22
REMARK                            x       y       z     vdW  Elec       q    Type
REMARK                         _______ _______ _______ _____ _____    ______ ____
ROOT
ATOM      1  N   UNL     1       1.660  10.099  17.887  0.00  0.00    +0.000 N 
ATOM      2  C   UNL     1       1.756   8.883  18.583  0.00  0.00    +0.000 A 
ATOM      3  N   UNL     1       1.315   8.817  19.850  0.00  0.00    +0.000 NA
ATOM      4  C   UNL     1       1.532   7.696  20.555  0.00  0.00    +0.000 A 
ATOM      5  C   UNL     1       2.159   6.594  20.042  0.00  0.00    +0.000 A 
ATOM      6 CL   UNL     1       2.417   5.239  21.066  0.00  0.00    +0.000 Cl
ATOM      7  C   UNL     1       2.522   6.699  18.709  0.00  0.00    +0.000 A 
ATOM      8  N   UNL     1       2.344   7.837  17.976  0.00  0.00    +0.000 NA
ATOM      9  H   UNL     1       2.378  10.173  17.179  0.00  0.00    +0.000 HD
ENDROOT
BRANCH   7  10
ATOM     10  C   UNL     1       3.162   5.608  17.972  0.00  0.00    +0.000 A 
ATOM     11  C   UNL     1       2.656   4.374  17.594  0.00  0.00    +0.000 A 
ATOM     12  N   UNL     1       3.556   3.641  16.874  0.00  0.00    +0.000 NA
ATOM     13  C   UNL     1       4.625   4.397  16.794  0.00  0.00    +0.000 A 
ATOM     14  C   UNL     1       5.876   4.162  16.153  0.00  0.00    +0.000 A 
ATOM     15  C   UNL     1       6.834   5.099  16.186  0.00  0.00    +0.000 A 
ATOM     16  C   UNL     1       6.623   6.368  16.864  0.00  0.00    +0.000 A 
ATOM     17  C   UNL     1       5.447   6.600  17.471  0.00  0.00    +0.000 A 
ATOM     18  N   UNL     1       4.447   5.620  17.448  0.00  0.00    +0.000 N 
ENDBRANCH   7  10
BRANCH   1  24
ATOM     19  C   UNL     1      -0.156  11.656  18.507  0.00  0.00    +0.000 A 
ATOM     20  C   UNL     1      -0.538  12.963  18.864  0.00  0.00    +0.000 A 
ATOM     21  C   UNL     1       0.387  13.971  19.161  0.00  0.00    +0.000 A 
ATOM     22  C   UNL     1       1.730  13.605  19.161  0.00  0.00    +0.000 A 
ATOM     23  C   UNL     1       2.131  12.314  18.808  0.00  0.00    +0.000 A 
ATOM     24  C   UNL     1       1.211  11.336  18.408  0.00  0.00    +0.000 A 
BRANCH  21  25
ATOM     25  N   UNL     1      -0.000  15.272  19.389  0.00  0.00    +0.000 N 
ATOM     26  C   UNL     1      -0.800  15.668  20.555  0.00  0.00    +0.000 C 
ATOM     27  C   UNL     1      -1.889  16.654  20.101  0.00  0.00    +0.000 C 
ATOM     28  O   UNL     1      -1.332  17.784  19.405  0.00  0.00    +0.000 OA
ATOM     29  C   UNL     1      -0.603  17.346  18.243  0.00  0.00    +0.000 C 
ATOM     30  C   UNL     1       0.544  16.398  18.622  0.00  0.00    +0.000 C 
ENDBRANCH  21  25
BRANCH  19  32
ATOM     31  C   UNL     1      -2.189  11.109  17.416  0.00  0.00    +0.000 C 
ATOM     32  O   UNL     1      -1.067  10.672  18.189  0.00  0.00    +0.000 OA
ENDBRANCH  19  32
ENDBRANCH   1  24
TORSDOF 4
ENDMDL
MODEL 2
REMARK VINA RESULT:      -7.8      2.912      3.445
REMARK  Name = 
REMARK  5 active torsions:
REMARK  status: ('A' for Active; 'I' for Inactive)
REMARK    1  A    between atoms: C_1  and  O_2
REMARK    2  A    between atoms: O_2  and  C_3
REMARK    3  A    between atoms: C_5  and  N_6
REMARK    4  A    between atoms: C_14  and  N_15
REMARK    5  A    between atoms: C_21  and  C_22
REMARK                            x       y       z     vdW  Elec       q    Type
REMARK                         _______ _______ _______ _____ _____    ______ ____
ROOT
ATOM      1  N   UNL     1       1.969   8.831  19.512  0.00  0.00    +0.000 N 
ATOM      2  C   UNL     1       2.282   7.467  19.631  0.00  0.00    +0.000 A 
ATOM      3  N   UNL     1       1.427   6.654  20.274  0.00  0.00    +0.000 NA
ATOM      4  C   UNL     1       1.791   5.383  20.506  0.00  0.00    +0.000 A 
ATOM      5  C   UNL     1       2.983   4.855  20.094  0.00  0.00    +0.000 A 
ATOM      6 CL   UNL     1       3.347   3.225  20.496  0.00  0.00    +0.000 Cl
ATOM      7  C   UNL     1       3.786   5.723  19.372  0.00  0.00    +0.000 A 
ATOM      8  N   UNL     1       3.458   7.029  19.150  0.00  0.00    +0.000 NA
ATOM      9  H   UNL     1       2.808   9.393  19.439  0.00  0.00    +0.000 HD
ENDROOT
BRANCH   7  10
ATOM     10  C   UNL     1       5.078   5.327  18.808  0.00  0.00    +0.000 A 
ATOM     11  C   UNL     1       6.307   5.168  19.430  0.00  0.00    +0.000 A 
ATOM     12  N   UNL     1       7.276   4.744  18.567  0.00  0.00    +0.000 NA
ATOM     13  C   UNL     1       6.674   4.633  17.407  0.00  0.00    +0.000 A 
ATOM     14  C   UNL     1       7.179   4.218  16.140  0.00  0.00    +0.000 A 
ATOM     15  C   UNL     1       6.364   4.164  15.077  0.00  0.00    +0.000 A 
ATOM     16  C   UNL     1       4.958   4.517  15.187  0.00  0.00    +0.000 A 
ATOM     17  C   UNL     1       4.471   4.908  16.378  0.00  0.00    +0.000 A 
ATOM     18  N   UNL     1       5.321   4.976  17.488  0.00  0.00    +0.000 N 
ENDBRANCH   7  10
BRANCH   1  24
ATOM     19  C   UNL     1      -0.159  10.066  19.294  0.00  0.00    +0.000 A 
ATOM     20  C   UNL     1      -1.145  10.865  19.905  0.00  0.00    +0.000 A 
ATOM     21  C   UNL     1      -1.183  11.102  21.284  0.00  0.00    +0.000 A 
ATOM     22  C   UNL     1      -0.232  10.442  22.058  0.00  0.00    +0.000 A 
ATOM     23  C   UNL     1       0.755   9.646  21.472  0.00  0.00    +0.000 A 
ATOM     24  C   UNL     1       0.857   9.496  20.082  0.00  0.00    +0.000 A 
BRANCH  21  25
ATOM     25  N   UNL     1      -2.078  11.982  21.848  0.00  0.00    +0.000 N 
ATOM     26  C   UNL     1      -2.007  12.393  23.256  0.00  0.00    +0.000 C 
ATOM     27  C   UNL     1      -3.425  12.388  23.850  0.00  0.00    +0.000 C 
ATOM     28  O   UNL     1      -4.329  13.204  23.083  0.00  0.00    +0.000 OA
ATOM     29  C   UNL     1      -4.403  12.729  21.726  0.00  0.00    +0.000 C 
ATOM     30  C   UNL     1      -3.029  12.758  21.043  0.00  0.00    +0.000 C 
ENDBRANCH  21  25
BRANCH  19  32
ATOM     31  C   UNL     1      -1.370   9.902  17.261  0.00  0.00    +0.000 C 
ATOM     32  O   UNL     1      -0.107   9.855  17.933  0.00  0.00    +0.000 OA
ENDBRANCH  19  32
ENDBRANCH   1  24
TORSDOF 4
ENDMDL
MODEL 3
REMARK VINA RESULT:      -7.8      3.799     10.054
REMARK  Name = 
REMARK  5 active torsions:
REMARK  status: ('A' for Active; 'I' for Inactive)
REMARK    1  A    between atoms: C_1  and  O_2
REMARK    2  A    between atoms: O_2  and  C_3
REMARK    3  A    between atoms: C_5  and  N_6
REMARK    4  A    between atoms: C_14  and  N_15
REMARK    5  A    between atoms: C_21  and  C_22
REMARK                            x       y       z     vdW  Elec       q    Type
REMARK                         _______ _______ _______ _____ _____    ______ ____
ROOT
ATOM      1  N   UNL     1       1.147   8.248  19.863  0.00  0.00    +0.000 N 
ATOM      2  C   UNL     1       0.806   9.606  19.747  0.00  0.00    +0.000 A 
ATOM      3  N   UNL     1       1.423  10.359  18.821  0.00  0.00    +0.000 NA
ATOM      4  C   UNL     1       1.196  11.681  18.803  0.00  0.00    +0.000 A 
ATOM      5  C   UNL     1       0.340  12.309  19.665  0.00  0.00    +0.000 A 
ATOM      6 CL   UNL     1       0.174  14.016  19.568  0.00  0.00    +0.000 Cl
ATOM      7  C   UNL     1      -0.322  11.467  20.544  0.00  0.00    +0.000 A 
ATOM      8  N   UNL     1      -0.086  10.124  20.609  0.00  0.00    +0.000 NA
ATOM      9  H   UNL     1       0.993   7.912  20.805  0.00  0.00    +0.000 HD
ENDROOT
BRANCH   7  10
ATOM     10  C   UNL     1      -1.310  11.947  21.512  0.00  0.00    +0.000 A 
ATOM     11  C   UNL     1      -1.190  12.154  22.877  0.00  0.00    +0.000 A 
ATOM     12  N   UNL     1      -2.334  12.654  23.431  0.00  0.00    +0.000 NA
ATOM     13  C   UNL     1      -3.176  12.765  22.431  0.00  0.00    +0.000 A 
ATOM     14  C   UNL     1      -4.519  13.241  22.403  0.00  0.00    +0.000 A 
ATOM     15  C   UNL     1      -5.194  13.280  21.246  0.00  0.00    +0.000 A 
ATOM     16  C   UNL     1      -4.579  12.850  20.001  0.00  0.00    +0.000 A 
ATOM     17  C   UNL     1      -3.313  12.400  20.015  0.00  0.00    +0.000 A 
ATOM     18  N   UNL     1      -2.608  12.347  21.224  0.00  0.00    +0.000 N 
ENDBRANCH   7  10
BRANCH   1  24
ATOM     19  C   UNL     1       2.711   6.355  19.600  0.00  0.00    +0.000 A 
ATOM     20  C   UNL     1       3.837   5.817  18.946  0.00  0.00    +0.000 A 
ATOM     21  C   UNL     1       4.431   6.424  17.833  0.00  0.00    +0.000 A 
ATOM     22  C   UNL     1       3.808   7.566  17.338  0.00  0.00    +0.000 A 
ATOM     23  C   UNL     1       2.691   8.117  17.972  0.00  0.00    +0.000 A 
ATOM     24  C   UNL     1       2.163   7.569  19.149  0.00  0.00    +0.000 A 
BRANCH  21  25
ATOM     25  N   UNL     1       5.600   5.951  17.283  0.00  0.00    +0.000 N 
ATOM     26  C   UNL     1       5.708   5.547  15.875  0.00  0.00    +0.000 C 
ATOM     27  C   UNL     1       6.508   4.236  15.792  0.00  0.00    +0.000 C 
ATOM     28  O   UNL     1       7.792   4.353  16.432  0.00  0.00    +0.000 OA
ATOM     29  C   UNL     1       7.630   4.699  17.820  0.00  0.00    +0.000 C 
ATOM     30  C   UNL     1       6.886   6.031  17.985  0.00  0.00    +0.000 C 
ENDBRANCH  21  25
BRANCH  19  32
ATOM     31  C   UNL     1       2.301   4.351  20.800  0.00  0.00    +0.000 C 
ATOM     32  O   UNL     1       2.144   5.771  20.712  0.00  0.00    +0.000 OA
ENDBRANCH  19  32
ENDBRANCH   1  24
TORSDOF 4
ENDMDL
MODEL 4
REMARK VINA RESULT:      -7.7      2.742      3.323
REMARK  Name = 
REMARK  5 active torsions:
REMARK  status: ('A' for Active; 'I' for Inactive)
REMARK    1  A    between atoms: C_1  and  O_2
REMARK    2  A    between atoms: O_2  and  C_3
REMARK    3  A    between atoms: C_5  and  N_6
REMARK    4  A    between atoms: C_14  and  N_15
REMARK    5  A    between atoms: C_21  and  C_22
REMARK                            x       y       z     vdW  Elec       q    Type
REMARK                         _______ _______ _______ _____ _____    ______ ____
ROOT
ATOM      1  N   UNL     1       1.849   9.538  18.377  0.00  0.00    +0.000 N 
ATOM      2  C   UNL     1       2.426   8.266  18.524  0.00  0.00    +0.000 A 
ATOM      3  N   UNL     1       1.889   7.401  19.402  0.00  0.00    +0.000 NA
ATOM      4  C   UNL     1       2.521   6.241  19.639  0.00  0.00    +0.000 A 
ATOM      5  C   UNL     1       3.678   5.873  19.009  0.00  0.00    +0.000 A 
ATOM      6 CL   UNL     1       4.412   4.380  19.438  0.00  0.00    +0.000 Cl
ATOM      7  C   UNL     1       4.137   6.773  18.062  0.00  0.00    +0.000 A 
ATOM      8  N   UNL     1       3.536   7.975  17.823  0.00  0.00    +0.000 NA
ATOM      9  H   UNL     1       2.535  10.218  18.076  0.00  0.00    +0.000 HD
ENDROOT
BRANCH   7  10
ATOM     10  C   UNL     1       5.334   6.533  17.253  0.00  0.00    +0.000 A 
ATOM     11  C   UNL     1       6.574   7.151  17.296  0.00  0.00    +0.000 A 
ATOM     12  N   UNL     1       7.454   6.615  16.400  0.00  0.00    +0.000 NA
ATOM     13  C   UNL     1       6.784   5.666  15.791  0.00  0.00    +0.000 A 
ATOM     14  C   UNL     1       7.189   4.760  14.768  0.00  0.00    +0.000 A 
ATOM     15  C   UNL     1       6.328   3.847  14.298  0.00  0.00    +0.000 A 
ATOM     16  C   UNL     1       4.973   3.753  14.819  0.00  0.00    +0.000 A 
ATOM     17  C   UNL     1       4.581   4.602  15.784  0.00  0.00    +0.000 A 
ATOM     18  N   UNL     1       5.474   5.564  16.269  0.00  0.00    +0.000 N 
ENDBRANCH   7  10
BRANCH   1  24
ATOM     19  C   UNL     1      -0.519  10.203  18.603  0.00  0.00    +0.000 A 
ATOM     20  C   UNL     1      -1.500  10.901  19.334  0.00  0.00    +0.000 A 
ATOM     21  C   UNL     1      -1.255  11.454  20.597  0.00  0.00    +0.000 A 
ATOM     22  C   UNL     1       0.001  11.219  21.148  0.00  0.00    +0.000 A 
ATOM     23  C   UNL     1       0.989  10.531  20.439  0.00  0.00    +0.000 A 
ATOM     24  C   UNL     1       0.777  10.071  19.132  0.00  0.00    +0.000 A 
BRANCH  21  25
ATOM     25  N   UNL     1      -2.185  12.236  21.243  0.00  0.00    +0.000 N 
ATOM     26  C   UNL     1      -2.045  12.637  22.649  0.00  0.00    +0.000 C 
ATOM     27  C   UNL     1      -3.406  12.487  23.349  0.00  0.00    +0.000 C 
ATOM     28  O   UNL     1      -4.441  13.218  22.668  0.00  0.00    +0.000 OA
ATOM     29  C   UNL     1      -4.574  12.752  21.312  0.00  0.00    +0.000 C 
ATOM     30  C   UNL     1      -3.266  12.923  20.527  0.00  0.00    +0.000 C 
ENDBRANCH  21  25
BRANCH  19  32
ATOM     31  C   UNL     1      -2.060   9.933  16.820  0.00  0.00    +0.000 C 
ATOM     32  O   UNL     1      -0.754   9.683  17.348  0.00  0.00    +0.000 OA
ENDBRANCH  19  32
ENDBRANCH   1  24
TORSDOF 4
ENDMDL
MODEL 5
REMARK VINA RESULT:      -7.7      0.500      1.017
REMARK  Name = 
REMARK  5 active torsions:
REMARK  status: ('A' for Active; 'I' for Inactive)
REMARK    1  A    between atoms: C_1  and  O_2
REMARK    2  A    between atoms: O_2  and  C_3
REMARK    3  A    between atoms: C_5  and  N_6
REMARK    4  A    between atoms: C_14  and  N_15
REMARK    5  A    between atoms: C_21  and  C_22
REMARK                            x       y       z     vdW  Elec       q    Type
REMARK                         _______ _______ _______ _____ _____    ______ ____
ROOT
ATOM      1  N   UNL     1       1.703  10.004  17.864  0.00  0.00    +0.000 N 
ATOM      2  C   UNL     1       1.796   8.790  18.563  0.00  0.00    +0.000 A 
ATOM      3  N   UNL     1       1.373   8.734  19.837  0.00  0.00    +0.000 NA
ATOM      4  C   UNL     1       1.588   7.614  20.544  0.00  0.00    +0.000 A 
ATOM      5  C   UNL     1       2.194   6.503  20.026  0.00  0.00    +0.000 A 
ATOM      6 CL   UNL     1       2.451   5.149  21.051  0.00  0.00    +0.000 Cl
ATOM      7  C   UNL     1       2.536   6.597  18.687  0.00  0.00    +0.000 A 
ATOM      8  N   UNL     1       2.362   7.734  17.952  0.00  0.00    +0.000 NA
ATOM      9  H   UNL     1       2.411  10.066  17.144  0.00  0.00    +0.000 HD
ENDROOT
BRANCH   7  10
ATOM     10  C   UNL     1       3.152   5.495  17.945  0.00  0.00    +0.000 A 
ATOM     11  C   UNL     1       2.619   4.275  17.562  0.00  0.00    +0.000 A 
ATOM     12  N   UNL     1       3.501   3.524  16.839  0.00  0.00    +0.000 NA
ATOM     13  C   UNL     1       4.586   4.257  16.760  0.00  0.00    +0.000 A 
ATOM     14  C   UNL     1       5.832   3.998  16.116  0.00  0.00    +0.000 A 
ATOM     15  C   UNL     1       6.810   4.913  16.152  0.00  0.00    +0.000 A 
ATOM     16  C   UNL     1       6.627   6.184  16.835  0.00  0.00    +0.000 A 
ATOM     17  C   UNL     1       5.457   6.440  17.444  0.00  0.00    +0.000 A 
ATOM     18  N   UNL     1       4.436   5.482  17.419  0.00  0.00    +0.000 N 
ENDBRANCH   7  10
BRANCH   1  24
ATOM     19  C   UNL     1      -0.080  11.542  18.611  0.00  0.00    +0.000 A 
ATOM     20  C   UNL     1      -0.458  12.853  18.962  0.00  0.00    +0.000 A 
ATOM     21  C   UNL     1       0.467  13.890  19.131  0.00  0.00    +0.000 A 
ATOM     22  C   UNL     1       1.812  13.554  19.009  0.00  0.00    +0.000 A 
ATOM     23  C   UNL     1       2.209  12.260  18.660  0.00  0.00    +0.000 A 
ATOM     24  C   UNL     1       1.277  11.249  18.386  0.00  0.00    +0.000 A 
BRANCH  21  25
ATOM     25  N   UNL     1       0.072  15.189  19.354  0.00  0.00    +0.000 N 
ATOM     26  C   UNL     1       0.671  16.332  18.651  0.00  0.00    +0.000 C 
ATOM     27  C   UNL     1       0.916  17.465  19.661  0.00  0.00    +0.000 C 
ATOM     28  O   UNL     1      -0.286  17.821  20.368  0.00  0.00    +0.000 OA
ATOM     29  C   UNL     1      -0.803  16.682  21.081  0.00  0.00    +0.000 C 
ATOM     30  C   UNL     1      -1.129  15.523  20.129  0.00  0.00    +0.000 C 
ENDBRANCH  21  25
BRANCH  19  32
ATOM     31  C   UNL     1      -1.941  10.755  17.370  0.00  0.00    +0.000 C 
ATOM     32  O   UNL     1      -0.994  10.528  18.418  0.00  0.00    +0.000 OA
ENDBRANCH  19  32
ENDBRANCH   1  24
TORSDOF 4
ENDMDL
MODEL 6
REMARK VINA RESULT:      -7.6      2.963      4.022
REMARK  Name = 
REMARK  5 active torsions:
REMARK  status: ('A' for Active; 'I' for Inactive)
REMARK    1  A    between atoms: C_1  and  O_2
REMARK    2  A    between atoms: O_2  and  C_3
REMARK    3  A    between atoms: C_5  and  N_6
REMARK    4  A    between atoms: C_14  and  N_15
REMARK    5  A    between atoms: C_21  and  C_22
REMARK                            x       y       z     vdW  Elec       q    Type
REMARK                         _______ _______ _______ _____ _____    ______ ____
ROOT
ATOM      1  N   UNL     1       0.808   8.644  20.420  0.00  0.00    +0.000 N 
ATOM      2  C   UNL     1       1.795   8.268  19.494  0.00  0.00    +0.000 A 
ATOM      3  N   UNL     1       2.093   9.100  18.481  0.00  0.00    +0.000 NA
ATOM      4  C   UNL     1       2.935   8.680  17.524  0.00  0.00    +0.000 A 
ATOM      5  C   UNL     1       3.536   7.452  17.536  0.00  0.00    +0.000 A 
ATOM      6 CL   UNL     1       4.558   7.020  16.225  0.00  0.00    +0.000 Cl
ATOM      7  C   UNL     1       3.247   6.674  18.645  0.00  0.00    +0.000 A 
ATOM      8  N   UNL     1       2.369   7.058  19.617  0.00  0.00    +0.000 NA
ATOM      9  H   UNL     1       0.361   7.833  20.827  0.00  0.00    +0.000 HD
ENDROOT
BRANCH   7  10
ATOM     10  C   UNL     1       3.831   5.348  18.859  0.00  0.00    +0.000 A 
ATOM     11  C   UNL     1       5.113   4.994  19.249  0.00  0.00    +0.000 A 
ATOM     12  N   UNL     1       5.263   3.643  19.381  0.00  0.00    +0.000 NA
ATOM     13  C   UNL     1       4.091   3.139  19.078  0.00  0.00    +0.000 A 
ATOM     14  C   UNL     1       3.646   1.785  19.052  0.00  0.00    +0.000 A 
ATOM     15  C   UNL     1       2.378   1.500  18.723  0.00  0.00    +0.000 A 
ATOM     16  C   UNL     1       1.431   2.553  18.394  0.00  0.00    +0.000 A 
ATOM     17  C   UNL     1       1.839   3.834  18.416  0.00  0.00    +0.000 A 
ATOM     18  N   UNL     1       3.165   4.135  18.749  0.00  0.00    +0.000 N 
ENDBRANCH   7  10
BRANCH   1  24
ATOM     19  C   UNL     1      -0.168  10.652  21.475  0.00  0.00    +0.000 A 
ATOM     20  C   UNL     1      -1.122  11.688  21.419  0.00  0.00    +0.000 A 
ATOM     21  C   UNL     1      -1.906  11.938  20.286  0.00  0.00    +0.000 A 
ATOM     22  C   UNL     1      -1.649  11.155  19.164  0.00  0.00    +0.000 A 
ATOM     23  C   UNL     1      -0.709  10.122  19.199  0.00  0.00    +0.000 A 
ATOM     24  C   UNL     1      -0.002   9.803  20.366  0.00  0.00    +0.000 A 
BRANCH  21  25
ATOM     25  N   UNL     1      -2.915  12.873  20.291  0.00  0.00    +0.000 N 
ATOM     26  C   UNL     1      -2.714  14.256  20.744  0.00  0.00    +0.000 C 
ATOM     27  C   UNL     1      -3.908  14.673  21.617  0.00  0.00    +0.000 C 
ATOM     28  O   UNL     1      -5.161  14.495  20.932  0.00  0.00    +0.000 OA
ATOM     29  C   UNL     1      -5.334  13.116  20.556  0.00  0.00    +0.000 C 
ATOM     30  C   UNL     1      -4.205  12.638  19.631  0.00  0.00    +0.000 C 
ENDBRANCH  21  25
BRANCH  19  32
ATOM     31  C   UNL     1      -0.059   9.573  23.584  0.00  0.00    +0.000 C 
ATOM     32  O   UNL     1       0.583  10.390  22.600  0.00  0.00    +0.000 OA
ENDBRANCH  19  32
ENDBRANCH   1  24
TORSDOF 4
ENDMDL
MODEL 7
REMARK VINA RESULT:      -7.6      3.750     10.086
REMARK  Name = 
REMARK  5 active torsions:
REMARK  status: ('A' for Active; 'I' for Inactive)
REMARK    1  A    between atoms: C_1  and  O_2
REMARK    2  A    between atoms: O_2  and  C_3
REMARK    3  A    between atoms: C_5  and  N_6
REMARK    4  A    between atoms: C_14  and  N_15
REMARK    5  A    between atoms: C_21  and  C_22
REMARK                            x       y       z     vdW  Elec       q    Type
REMARK                         _______ _______ _______ _____ _____    ______ ____
ROOT
ATOM      1  N   UNL     1       1.251   8.204  20.141  0.00  0.00    +0.000 N 
ATOM      2  C   UNL     1       0.809   9.487  19.781  0.00  0.00    +0.000 A 
ATOM      3  N   UNL     1       1.165   9.991  18.587  0.00  0.00    +0.000 NA
ATOM      4  C   UNL     1       0.857  11.266  18.303  0.00  0.00    +0.000 A 
ATOM      5  C   UNL     1       0.169  12.082  19.157  0.00  0.00    +0.000 A 
ATOM      6 CL   UNL     1      -0.121  13.709  18.692  0.00  0.00    +0.000 Cl
ATOM      7  C   UNL     1      -0.235  11.480  20.339  0.00  0.00    +0.000 A 
ATOM      8  N   UNL     1       0.092  10.197  20.670  0.00  0.00    +0.000 NA
ATOM      9  H   UNL     1       1.325   8.111  21.146  0.00  0.00    +0.000 HD
ENDROOT
BRANCH   7  10
ATOM     10  C   UNL     1      -1.020  12.178  21.358  0.00  0.00    +0.000 A 
ATOM     11  C   UNL     1      -0.651  12.612  22.621  0.00  0.00    +0.000 A 
ATOM     12  N   UNL     1      -1.663  13.268  23.263  0.00  0.00    +0.000 NA
ATOM     13  C   UNL     1      -2.667  13.252  22.420  0.00  0.00    +0.000 A 
ATOM     14  C   UNL     1      -3.980  13.794  22.537  0.00  0.00    +0.000 A 
ATOM     15  C   UNL     1      -4.851  13.672  21.526  0.00  0.00    +0.000 A 
ATOM     16  C   UNL     1      -4.481  12.996  20.292  0.00  0.00    +0.000 A 
ATOM     17  C   UNL     1      -3.246  12.482  20.170  0.00  0.00    +0.000 A 
ATOM     18  N   UNL     1      -2.337  12.598  21.229  0.00  0.00    +0.000 N 
ENDBRANCH   7  10
BRANCH   1  24
ATOM     19  C   UNL     1       2.389   6.042  19.771  0.00  0.00    +0.000 A 
ATOM     20  C   UNL     1       3.402   5.324  19.107  0.00  0.00    +0.000 A 
ATOM     21  C   UNL     1       4.159   5.868  18.063  0.00  0.00    +0.000 A 
ATOM     22  C   UNL     1       3.815   7.150  17.644  0.00  0.00    +0.000 A 
ATOM     23  C   UNL     1       2.814   7.880  18.289  0.00  0.00    +0.000 A 
ATOM     24  C   UNL     1       2.130   7.375  19.403  0.00  0.00    +0.000 A 
BRANCH  21  25
ATOM     25  N   UNL     1       5.225   5.196  17.509  0.00  0.00    +0.000 N 
ATOM     26  C   UNL     1       6.219   4.480  18.319  0.00  0.00    +0.000 C 
ATOM     27  C   UNL     1       7.622   4.779  17.766  0.00  0.00    +0.000 C 
ATOM     28  O   UNL     1       7.723   4.466  16.366  0.00  0.00    +0.000 OA
ATOM     29  C   UNL     1       6.765   5.231  15.611  0.00  0.00    +0.000 C 
ATOM     30  C   UNL     1       5.329   4.942  16.067  0.00  0.00    +0.000 C 
ENDBRANCH  21  25
BRANCH  19  32
ATOM     31  C   UNL     1       1.107   4.218  20.578  0.00  0.00    +0.000 C 
ATOM     32  O   UNL     1       1.662   5.515  20.817  0.00  0.00    +0.000 OA
ENDBRANCH  19  32
ENDBRANCH   1  24
TORSDOF 4
ENDMDL
MODEL 8
REMARK VINA RESULT:      -7.6      2.660      3.112
REMARK  Name = 
REMARK  5 active torsions:
REMARK  status: ('A' for Active; 'I' for Inactive)
REMARK    1  A    between atoms: C_1  and  O_2
REMARK    2  A    between atoms: O_2  and  C_3
REMARK    3  A    between atoms: C_5  and  N_6
REMARK    4  A    between atoms: C_14  and  N_15
REMARK    5  A    between atoms: C_21  and  C_22
REMARK                            x       y       z     vdW  Elec       q    Type
REMARK                         _______ _______ _______ _____ _____    ______ ____
ROOT
ATOM      1  N   UNL     1       1.493   8.717  19.395  0.00  0.00    +0.000 N 
ATOM      2  C   UNL     1       1.800   7.359  19.579  0.00  0.00    +0.000 A 
ATOM      3  N   UNL     1       1.181   6.675  20.557  0.00  0.00    +0.000 NA
ATOM      4  C   UNL     1       1.574   5.419  20.819  0.00  0.00    +0.000 A 
ATOM      5  C   UNL     1       2.559   4.778  20.120  0.00  0.00    +0.000 A 
ATOM      6 CL   UNL     1       2.999   3.185  20.587  0.00  0.00    +0.000 Cl
ATOM      7  C   UNL     1       3.103   5.510  19.077  0.00  0.00    +0.000 A 
ATOM      8  N   UNL     1       2.749   6.800  18.808  0.00  0.00    +0.000 NA
ATOM      9  H   UNL     1       2.275   9.216  18.990  0.00  0.00    +0.000 HD
ENDROOT
BRANCH   7  10
ATOM     10  C   UNL     1       4.137   4.976  18.188  0.00  0.00    +0.000 A 
ATOM     11  C   UNL     1       4.013   4.330  16.968  0.00  0.00    +0.000 A 
ATOM     12  N   UNL     1       5.223   4.018  16.418  0.00  0.00    +0.000 NA
ATOM     13  C   UNL     1       6.111   4.460  17.276  0.00  0.00    +0.000 A 
ATOM     14  C   UNL     1       7.535   4.426  17.232  0.00  0.00    +0.000 A 
ATOM     15  C   UNL     1       8.251   4.962  18.230  0.00  0.00    +0.000 A 
ATOM     16  C   UNL     1       7.603   5.590  19.370  0.00  0.00    +0.000 A 
ATOM     17  C   UNL     1       6.260   5.628  19.422  0.00  0.00    +0.000 A 
ATOM     18  N   UNL     1       5.508   5.060  18.386  0.00  0.00    +0.000 N 
ENDBRANCH   7  10
BRANCH   1  24
ATOM     19  C   UNL     1      -0.349  10.343  19.647  0.00  0.00    +0.000 A 
ATOM     20  C   UNL     1      -1.049  11.236  20.482  0.00  0.00    +0.000 A 
ATOM     21  C   UNL     1      -0.830  11.315  21.862  0.00  0.00    +0.000 A 
ATOM     22  C   UNL     1       0.074  10.404  22.404  0.00  0.00    +0.000 A 
ATOM     23  C   UNL     1       0.779   9.511  21.594  0.00  0.00    +0.000 A 
ATOM     24  C   UNL     1       0.638   9.507  20.200  0.00  0.00    +0.000 A 
BRANCH  21  25
ATOM     25  N   UNL     1      -1.432  12.275  22.642  0.00  0.00    +0.000 N 
ATOM     26  C   UNL     1      -2.643  12.011  23.431  0.00  0.00    +0.000 C 
ATOM     27  C   UNL     1      -3.608  13.198  23.276  0.00  0.00    +0.000 C 
ATOM     28  O   UNL     1      -2.983  14.445  23.627  0.00  0.00    +0.000 OA
ATOM     29  C   UNL     1      -1.834  14.682  22.792  0.00  0.00    +0.000 C 
ATOM     30  C   UNL     1      -0.793  13.563  22.936  0.00  0.00    +0.000 C 
ENDBRANCH  21  25
BRANCH  19  32
ATOM     31  C   UNL     1      -1.910  10.144  17.873  0.00  0.00    +0.000 C 
ATOM     32  O   UNL     1      -0.547  10.285  18.284  0.00  0.00    +0.000 OA
ENDBRANCH  19  32
ENDBRANCH   1  24
TORSDOF 4
ENDMDL
MODEL 9
REMARK VINA RESULT:      -7.5      2.660      3.259
REMARK  Name = 
REMARK  5 active torsions:
REMARK  status: ('A' for Active; 'I' for Inactive)
REMARK    1  A    between atoms: C_1  and  O_2
REMARK    2  A    between atoms: O_2  and  C_3
REMARK    3  A    between atoms: C_5  and  N_6
REMARK    4  A    between atoms: C_14  and  N_15
REMARK    5  A    between atoms: C_21  and  C_22
REMARK                            x       y       z     vdW  Elec       q    Type
REMARK                         _______ _______ _______ _____ _____    ______ ____
ROOT
ATOM      1  N   UNL     1       1.999   8.835  19.488  0.00  0.00    +0.000 N 
ATOM      2  C   UNL     1       2.299   7.468  19.607  0.00  0.00    +0.000 A 
ATOM      3  N   UNL     1       1.438   6.664  20.253  0.00  0.00    +0.000 NA
ATOM      4  C   UNL     1       1.790   5.390  20.485  0.00  0.00    +0.000 A 
ATOM      5  C   UNL     1       2.976   4.850  20.070  0.00  0.00    +0.000 A 
ATOM      6 CL   UNL     1       3.326   3.217  20.472  0.00  0.00    +0.000 Cl
ATOM      7  C   UNL     1       3.784   5.710  19.344  0.00  0.00    +0.000 A 
ATOM      8  N   UNL     1       3.469   7.019  19.122  0.00  0.00    +0.000 NA
ATOM      9  H   UNL     1       2.842   9.389  19.412  0.00  0.00    +0.000 HD
ENDROOT
BRANCH   7  10
ATOM     10  C   UNL     1       5.071   5.301  18.777  0.00  0.00    +0.000 A 
ATOM     11  C   UNL     1       6.298   5.119  19.397  0.00  0.00    +0.000 A 
ATOM     12  N   UNL     1       7.261   4.689  18.530  0.00  0.00    +0.000 NA
ATOM     13  C   UNL     1       6.657   4.597  17.369  0.00  0.00    +0.000 A 
ATOM     14  C   UNL     1       7.156   4.187  16.098  0.00  0.00    +0.000 A 
ATOM     15  C   UNL     1       6.341   4.155  15.035  0.00  0.00    +0.000 A 
ATOM     16  C   UNL     1       4.940   4.525  15.149  0.00  0.00    +0.000 A 
ATOM     17  C   UNL     1       4.458   4.913  16.342  0.00  0.00    +0.000 A 
ATOM     18  N   UNL     1       5.309   4.959  17.453  0.00  0.00    +0.000 N 
ENDBRANCH   7  10
BRANCH   1  24
ATOM     19  C   UNL     1      -0.136  10.060  19.276  0.00  0.00    +0.000 A 
ATOM     20  C   UNL     1      -1.113  10.872  19.885  0.00  0.00    +0.000 A 
ATOM     21  C   UNL     1      -1.129  11.141  21.258  0.00  0.00    +0.000 A 
ATOM     22  C   UNL     1      -0.163  10.501  22.031  0.00  0.00    +0.000 A 
ATOM     23  C   UNL     1       0.815   9.693  21.448  0.00  0.00    +0.000 A 
ATOM     24  C   UNL     1       0.894   9.511  20.060  0.00  0.00    +0.000 A 
BRANCH  21  25
ATOM     25  N   UNL     1      -2.016  12.032  21.816  0.00  0.00    +0.000 N 
ATOM     26  C   UNL     1      -3.072  12.693  21.037  0.00  0.00    +0.000 C 
ATOM     27  C   UNL     1      -3.133  14.176  21.440  0.00  0.00    +0.000 C 
ATOM     28  O   UNL     1      -3.312  14.339  22.858  0.00  0.00    +0.000 OA
ATOM     29  C   UNL     1      -2.226  13.719  23.573  0.00  0.00    +0.000 C 
ATOM     30  C   UNL     1      -2.135  12.218  23.267  0.00  0.00    +0.000 C 
ENDBRANCH  21  25
BRANCH  19  32
ATOM     31  C   UNL     1      -1.383   9.825  17.273  0.00  0.00    +0.000 C 
ATOM     32  O   UNL     1      -0.106   9.817  17.919  0.00  0.00    +0.000 OA
ENDBRANCH  19  32
ENDBRANCH   1  24
TORSDOF 4
ENDMDL
