MODEL 1
REMARK VINA RESULT:      -7.8      0.000      0.000
REMARK  Name = 
REMARK  8 active torsions:
REMARK  status: ('A' for Active; 'I' for Inactive)
REMARK    1  A    between atoms: C_1  and  O_2
REMARK    2  A    between atoms: O_2  and  C_3
REMARK    3  A    between atoms: C_5  and  C_6
REMARK    4  A    between atoms: C_9  and  C_10
REMARK    5  A    between atoms: C_22  and  O_23
REMARK    6  A    between atoms: O_23  and  C_24
REMARK    7  A    between atoms: C_25  and  O_26
REMARK    8  A    between atoms: O_26  and  C_27
REMARK                            x       y       z     vdW  Elec       q    Type
REMARK                         _______ _______ _______ _____ _____    ______ ____
ROOT
ATOM      1  C   UNL     1       2.599   7.437  18.769  0.00  0.00    +0.000 A 
ATOM      2  N   UNL     1       2.234   7.183  20.008  0.00  0.00    +0.000 NA
ATOM      3  N   UNL     1       1.376   8.130  20.495  0.00  0.00    +0.000 NA
ATOM      4  C   UNL     1       1.095   9.087  19.627  0.00  0.00    +0.000 A 
ATOM      5  S   UNL     1       1.832   8.856  18.109  0.00  0.00    +0.000 S 
ENDROOT
BRANCH   4   6
ATOM      6  C   UNL     1       0.181  10.198  20.047  0.00  0.00    +0.000 A 
ATOM      7  C   UNL     1       0.616  11.010  21.076  0.00  0.00    +0.000 A 
ATOM      8  N   UNL     1      -0.410  11.815  21.446  0.00  0.00    +0.000 N 
ATOM      9  C   UNL     1      -1.369  11.798  20.464  0.00  0.00    +0.000 A 
ATOM     10  C   UNL     1      -2.461  12.660  20.317  0.00  0.00    +0.000 A 
ATOM     11  C   UNL     1      -3.283  12.463  19.216  0.00  0.00    +0.000 A 
ATOM     12  C   UNL     1      -3.061  11.391  18.353  0.00  0.00    +0.000 A 
ATOM     13 BR   UNL     1      -4.212  11.194  16.860  0.00  0.00    +0.000 Br
ATOM     14  C   UNL     1      -1.992  10.492  18.541  0.00  0.00    +0.000 A 
ATOM     15  C   UNL     1      -1.073  10.731  19.605  0.00  0.00    +0.000 A 
ATOM     16  H   UNL     1      -0.417  12.412  22.256  0.00  0.00    +0.000 HD
ENDBRANCH   4   6
BRANCH   1  19
ATOM     17  C   UNL     1       5.625   6.206  16.867  0.00  0.00    +0.000 A 
ATOM     18  C   UNL     1       4.675   7.060  17.449  0.00  0.00    +0.000 A 
ATOM     19  C   UNL     1       3.470   6.566  17.972  0.00  0.00    +0.000 A 
ATOM     20  C   UNL     1       3.161   5.233  17.733  0.00  0.00    +0.000 A 
ATOM     21  C   UNL     1       4.057   4.372  17.095  0.00  0.00    +0.000 A 
ATOM     22  C   UNL     1       5.323   4.837  16.687  0.00  0.00    +0.000 A 
BRANCH  17  24
ATOM     23  C   UNL     1       7.617   7.405  17.391  0.00  0.00    +0.000 C 
ATOM     24  O   UNL     1       6.832   6.694  16.429  0.00  0.00    +0.000 OA
ENDBRANCH  17  24
BRANCH  21  25
ATOM     25  O   UNL     1       3.515   3.118  16.990  0.00  0.00    +0.000 OA
ATOM     26  C   UNL     1       3.437   2.286  18.131  0.00  0.00    +0.000 C 
ENDBRANCH  21  25
BRANCH  22  27
ATOM     27  O   UNL     1       6.147   3.916  16.102  0.00  0.00    +0.000 OA
ATOM     28  C   UNL     1       6.208   3.824  14.686  0.00  0.00    +0.000 C 
ENDBRANCH  22  27
ENDBRANCH   1  19
TORSDOF 5
ENDMDL
MODEL 2
REMARK VINA RESULT:      -7.8      0.339      2.464
REMARK  Name = 
REMARK  8 active torsions:
REMARK  status: ('A' for Active; 'I' for Inactive)
REMARK    1  A    between atoms: C_1  and  O_2
REMARK    2  A    between atoms: O_2  and  C_3
REMARK    3  A    between atoms: C_5  and  C_6
REMARK    4  A    between atoms: C_9  and  C_10
REMARK    5  A    between atoms: C_22  and  O_23
REMARK    6  A    between atoms: O_23  and  C_24
REMARK    7  A    between atoms: C_25  and  O_26
REMARK    8  A    between atoms: O_26  and  C_27
REMARK                            x       y       z     vdW  Elec       q    Type
REMARK                         _______ _______ _______ _____ _____    ______ ____
ROOT
ATOM      1  C   UNL     1       2.732   7.190  18.899  0.00  0.00    +0.000 A 
ATOM      2  N   UNL     1       2.320   6.994  20.133  0.00  0.00    +0.000 NA
ATOM      3  N   UNL     1       1.449   7.966  20.544  0.00  0.00    +0.000 NA
ATOM      4  C   UNL     1       1.207   8.884  19.624  0.00  0.00    +0.000 A 
ATOM      5  S   UNL     1       1.999   8.580  18.146  0.00  0.00    +0.000 S 
ENDROOT
BRANCH   4   6
ATOM      6  C   UNL     1       0.284  10.016  19.958  0.00  0.00    +0.000 A 
ATOM      7  C   UNL     1       0.671  10.856  20.983  0.00  0.00    +0.000 A 
ATOM      8  N   UNL     1      -0.365  11.682  21.270  0.00  0.00    +0.000 N 
ATOM      9  C   UNL     1      -1.268  11.643  20.238  0.00  0.00    +0.000 A 
ATOM     10  C   UNL     1      -2.340  12.511  20.004  0.00  0.00    +0.000 A 
ATOM     11  C   UNL     1      -3.103  12.287  18.866  0.00  0.00    +0.000 A 
ATOM     12  C   UNL     1      -2.846  11.186  18.051  0.00  0.00    +0.000 A 
ATOM     13 BR   UNL     1      -3.916  10.953  16.503  0.00  0.00    +0.000 Br
ATOM     14  C   UNL     1      -1.800  10.283  18.325  0.00  0.00    +0.000 A 
ATOM     15  C   UNL     1      -0.938  10.547  19.430  0.00  0.00    +0.000 A 
ATOM     16  H   UNL     1      -0.409  12.304  22.060  0.00  0.00    +0.000 HD
ENDBRANCH   4   6
BRANCH   1  19
ATOM     17  C   UNL     1       3.996   4.096  17.132  0.00  0.00    +0.000 A 
ATOM     18  C   UNL     1       3.271   4.936  17.993  0.00  0.00    +0.000 A 
ATOM     19  C   UNL     1       3.628   6.280  18.175  0.00  0.00    +0.000 A 
ATOM     20  C   UNL     1       4.827   6.711  17.622  0.00  0.00    +0.000 A 
ATOM     21  C   UNL     1       5.607   5.879  16.816  0.00  0.00    +0.000 A 
ATOM     22  C   UNL     1       5.182   4.568  16.525  0.00  0.00    +0.000 A 
BRANCH  17  24
ATOM     23  C   UNL     1       3.447   1.969  18.059  0.00  0.00    +0.000 C 
ATOM     24  O   UNL     1       3.589   2.804  16.905  0.00  0.00    +0.000 OA
ENDBRANCH  17  24
BRANCH  21  25
ATOM     25  O   UNL     1       6.729   6.544  16.395  0.00  0.00    +0.000 OA
ATOM     26  C   UNL     1       7.476   7.317  17.314  0.00  0.00    +0.000 C 
ENDBRANCH  21  25
BRANCH  22  27
ATOM     27  O   UNL     1       5.992   3.837  15.699  0.00  0.00    +0.000 OA
ATOM     28  C   UNL     1       5.941   4.047  14.296  0.00  0.00    +0.000 C 
ENDBRANCH  22  27
ENDBRANCH   1  19
TORSDOF 5
ENDMDL
MODEL 3
REMARK VINA RESULT:      -7.7      2.025      2.245
REMARK  Name = 
REMARK  8 active torsions:
REMARK  status: ('A' for Active; 'I' for Inactive)
REMARK    1  A    between atoms: C_1  and  O_2
REMARK    2  A    between atoms: O_2  and  C_3
REMARK    3  A    between atoms: C_5  and  C_6
REMARK    4  A    between atoms: C_9  and  C_10
REMARK    5  A    between atoms: C_22  and  O_23
REMARK    6  A    between atoms: O_23  and  C_24
REMARK    7  A    between atoms: C_25  and  O_26
REMARK    8  A    between atoms: O_26  and  C_27
REMARK                            x       y       z     vdW  Elec       q    Type
REMARK                         _______ _______ _______ _____ _____    ______ ____
ROOT
ATOM      1  C   UNL     1       2.220   7.818  18.718  0.00  0.00    +0.000 A 
ATOM      2  N   UNL     1       1.791   8.943  18.187  0.00  0.00    +0.000 NA
ATOM      3  N   UNL     1       1.059   9.683  19.074  0.00  0.00    +0.000 NA
ATOM      4  C   UNL     1       0.942   9.120  20.264  0.00  0.00    +0.000 A 
ATOM      5  S   UNL     1       1.785   7.645  20.396  0.00  0.00    +0.000 S 
ENDROOT
BRANCH   4   6
ATOM      6  C   UNL     1       0.144   9.823  21.320  0.00  0.00    +0.000 A 
ATOM      7  C   UNL     1      -0.009   9.167  22.526  0.00  0.00    +0.000 A 
ATOM      8  N   UNL     1      -0.911   9.853  23.271  0.00  0.00    +0.000 N 
ATOM      9  C   UNL     1      -1.073  11.106  22.737  0.00  0.00    +0.000 A 
ATOM     10  C   UNL     1      -1.706  12.211  23.318  0.00  0.00    +0.000 A 
ATOM     11  C   UNL     1      -1.716  13.393  22.590  0.00  0.00    +0.000 A 
ATOM     12  C   UNL     1      -1.188  13.432  21.300  0.00  0.00    +0.000 A 
ATOM     13 BR   UNL     1      -1.220  15.084  20.373  0.00  0.00    +0.000 Br
ATOM     14  C   UNL     1      -0.604  12.299  20.700  0.00  0.00    +0.000 A 
ATOM     15  C   UNL     1      -0.488  11.100  21.463  0.00  0.00    +0.000 A 
ATOM     16  H   UNL     1      -1.313   9.532  24.136  0.00  0.00    +0.000 HD
ENDBRANCH   4   6
BRANCH   1  19
ATOM     17  C   UNL     1       5.218   6.337  16.954  0.00  0.00    +0.000 A 
ATOM     18  C   UNL     1       4.283   7.264  17.440  0.00  0.00    +0.000 A 
ATOM     19  C   UNL     1       3.075   6.850  18.020  0.00  0.00    +0.000 A 
ATOM     20  C   UNL     1       2.746   5.503  17.935  0.00  0.00    +0.000 A 
ATOM     21  C   UNL     1       3.627   4.563  17.395  0.00  0.00    +0.000 A 
ATOM     22  C   UNL     1       4.896   4.961  16.931  0.00  0.00    +0.000 A 
BRANCH  17  24
ATOM     23  C   UNL     1       7.446   7.041  17.424  0.00  0.00    +0.000 C 
ATOM     24  O   UNL     1       6.429   6.755  16.459  0.00  0.00    +0.000 OA
ENDBRANCH  17  24
BRANCH  21  25
ATOM     25  O   UNL     1       3.067   3.312  17.435  0.00  0.00    +0.000 OA
ATOM     26  C   UNL     1       1.944   3.069  18.260  0.00  0.00    +0.000 C 
ENDBRANCH  21  25
BRANCH  22  27
ATOM     27  O   UNL     1       5.705   3.967  16.450  0.00  0.00    +0.000 OA
ATOM     28  C   UNL     1       5.938   3.863  15.054  0.00  0.00    +0.000 C 
ENDBRANCH  22  27
ENDBRANCH   1  19
TORSDOF 5
ENDMDL
MODEL 4
REMARK VINA RESULT:      -7.7      1.983      3.248
REMARK  Name = 
REMARK  8 active torsions:
REMARK  status: ('A' for Active; 'I' for Inactive)
REMARK    1  A    between atoms: C_1  and  O_2
REMARK    2  A    between atoms: O_2  and  C_3
REMARK    3  A    between atoms: C_5  and  C_6
REMARK    4  A    between atoms: C_9  and  C_10
REMARK    5  A    between atoms: C_22  and  O_23
REMARK    6  A    between atoms: O_23  and  C_24
REMARK    7  A    between atoms: C_25  and  O_26
REMARK    8  A    between atoms: O_26  and  C_27
REMARK                            x       y       z     vdW  Elec       q    Type
REMARK                         _______ _______ _______ _____ _____    ______ ____
ROOT
ATOM      1  C   UNL     1       2.324   7.675  18.809  0.00  0.00    +0.000 A 
ATOM      2  N   UNL     1       1.912   8.786  18.236  0.00  0.00    +0.000 NA
ATOM      3  N   UNL     1       1.165   9.555  19.086  0.00  0.00    +0.000 NA
ATOM      4  C   UNL     1       1.018   9.026  20.288  0.00  0.00    +0.000 A 
ATOM      5  S   UNL     1       1.851   7.552  20.481  0.00  0.00    +0.000 S 
ENDROOT
BRANCH   4   6
ATOM      6  C   UNL     1       0.201   9.762  21.306  0.00  0.00    +0.000 A 
ATOM      7  C   UNL     1       0.006   9.135  22.522  0.00  0.00    +0.000 A 
ATOM      8  N   UNL     1      -0.907   9.849  23.225  0.00  0.00    +0.000 N 
ATOM      9  C   UNL     1      -1.038  11.092  22.660  0.00  0.00    +0.000 A 
ATOM     10  C   UNL     1      -1.672  12.217  23.198  0.00  0.00    +0.000 A 
ATOM     11  C   UNL     1      -1.647  13.382  22.445  0.00  0.00    +0.000 A 
ATOM     12  C   UNL     1      -1.083  13.386  21.170  0.00  0.00    +0.000 A 
ATOM     13 BR   UNL     1      -1.068  15.018  20.206  0.00  0.00    +0.000 Br
ATOM     14  C   UNL     1      -0.497  12.233  20.611  0.00  0.00    +0.000 A 
ATOM     15  C   UNL     1      -0.418  11.050  21.403  0.00  0.00    +0.000 A 
ATOM     16  H   UNL     1      -1.337   9.552  24.086  0.00  0.00    +0.000 HD
ENDBRANCH   4   6
BRANCH   1  19
ATOM     17  C   UNL     1       3.470   4.430  17.244  0.00  0.00    +0.000 A 
ATOM     18  C   UNL     1       2.770   5.350  18.040  0.00  0.00    +0.000 A 
ATOM     19  C   UNL     1       3.189   6.684  18.158  0.00  0.00    +0.000 A 
ATOM     20  C   UNL     1       4.419   7.025  17.611  0.00  0.00    +0.000 A 
ATOM     21  C   UNL     1       5.175   6.113  16.871  0.00  0.00    +0.000 A 
ATOM     22  C   UNL     1       4.691   4.809  16.642  0.00  0.00    +0.000 A 
BRANCH  17  24
ATOM     23  C   UNL     1       3.314   2.219  18.121  0.00  0.00    +0.000 C 
ATOM     24  O   UNL     1       3.005   3.148  17.078  0.00  0.00    +0.000 OA
ENDBRANCH  17  24
BRANCH  21  25
ATOM     25  O   UNL     1       6.337   6.699  16.442  0.00  0.00    +0.000 OA
ATOM     26  C   UNL     1       7.347   7.025  17.376  0.00  0.00    +0.000 C 
ENDBRANCH  21  25
BRANCH  22  27
ATOM     27  O   UNL     1       5.482   3.996  15.877  0.00  0.00    +0.000 OA
ATOM     28  C   UNL     1       5.555   4.200  14.473  0.00  0.00    +0.000 C 
ENDBRANCH  22  27
ENDBRANCH   1  19
TORSDOF 5
ENDMDL
MODEL 5
REMARK VINA RESULT:      -7.7      3.121      4.179
REMARK  Name = 
REMARK  8 active torsions:
REMARK  status: ('A' for Active; 'I' for Inactive)
REMARK    1  A    between atoms: C_1  and  O_2
REMARK    2  A    between atoms: O_2  and  C_3
REMARK    3  A    between atoms: C_5  and  C_6
REMARK    4  A    between atoms: C_9  and  C_10
REMARK    5  A    between atoms: C_22  and  O_23
REMARK    6  A    between atoms: O_23  and  C_24
REMARK    7  A    between atoms: C_25  and  O_26
REMARK    8  A    between atoms: O_26  and  C_27
REMARK                            x       y       z     vdW  Elec       q    Type
REMARK                         _______ _______ _______ _____ _____    ______ ____
ROOT
ATOM      1  C   UNL     1       2.375   7.787  18.581  0.00  0.00    +0.000 A 
ATOM      2  N   UNL     1       2.522   8.458  17.459  0.00  0.00    +0.000 NA
ATOM      3  N   UNL     1       1.924   9.687  17.514  0.00  0.00    +0.000 NA
ATOM      4  C   UNL     1       1.335   9.939  18.670  0.00  0.00    +0.000 A 
ATOM      5  S   UNL     1       1.527   8.687  19.810  0.00  0.00    +0.000 S 
ENDROOT
BRANCH   4   6
ATOM      6  C   UNL     1       0.625  11.246  18.851  0.00  0.00    +0.000 A 
ATOM      7  C   UNL     1      -0.661  11.194  19.352  0.00  0.00    +0.000 A 
ATOM      8  N   UNL     1      -1.205  12.432  19.257  0.00  0.00    +0.000 N 
ATOM      9  C   UNL     1      -0.204  13.347  19.044  0.00  0.00    +0.000 A 
ATOM     10  C   UNL     1      -0.282  14.741  19.133  0.00  0.00    +0.000 A 
ATOM     11  C   UNL     1       0.883  15.459  18.902  0.00  0.00    +0.000 A 
ATOM     12  C   UNL     1       2.051  14.803  18.516  0.00  0.00    +0.000 A 
ATOM     13 BR   UNL     1       3.609  15.846  18.235  0.00  0.00    +0.000 Br
ATOM     14  C   UNL     1       2.107  13.403  18.373  0.00  0.00    +0.000 A 
ATOM     15  C   UNL     1       0.953  12.633  18.702  0.00  0.00    +0.000 A 
ATOM     16  H   UNL     1      -2.172  12.656  19.424  0.00  0.00    +0.000 HD
ENDBRANCH   4   6
BRANCH   1  19
ATOM     17  C   UNL     1       2.921   4.366  20.096  0.00  0.00    +0.000 A 
ATOM     18  C   UNL     1       2.547   5.711  19.943  0.00  0.00    +0.000 A 
ATOM     19  C   UNL     1       2.956   6.463  18.832  0.00  0.00    +0.000 A 
ATOM     20  C   UNL     1       3.893   5.895  17.977  0.00  0.00    +0.000 A 
ATOM     21  C   UNL     1       4.338   4.581  18.141  0.00  0.00    +0.000 A 
ATOM     22  C   UNL     1       3.827   3.781  19.182  0.00  0.00    +0.000 A 
BRANCH  17  24
ATOM     23  C   UNL     1       1.158   3.030  20.981  0.00  0.00    +0.000 C 
ATOM     24  O   UNL     1       2.450   3.622  21.149  0.00  0.00    +0.000 OA
ENDBRANCH  17  24
BRANCH  21  25
ATOM     25  O   UNL     1       5.250   4.266  17.167  0.00  0.00    +0.000 OA
ATOM     26  C   UNL     1       6.607   4.631  17.329  0.00  0.00    +0.000 C 
ENDBRANCH  21  25
BRANCH  22  27
ATOM     27  O   UNL     1       4.295   2.497  19.244  0.00  0.00    +0.000 OA
ATOM     28  C   UNL     1       3.596   1.460  18.571  0.00  0.00    +0.000 C 
ENDBRANCH  22  27
ENDBRANCH   1  19
TORSDOF 5
ENDMDL
MODEL 6
REMARK VINA RESULT:      -7.6      2.949      3.472
REMARK  Name = 
REMARK  8 active torsions:
REMARK  status: ('A' for Active; 'I' for Inactive)
REMARK    1  A    between atoms: C_1  and  O_2
REMARK    2  A    between atoms: O_2  and  C_3
REMARK    3  A    between atoms: C_5  and  C_6
REMARK    4  A    between atoms: C_9  and  C_10
REMARK    5  A    between atoms: C_22  and  O_23
REMARK    6  A    between atoms: O_23  and  C_24
REMARK    7  A    between atoms: C_25  and  O_26
REMARK    8  A    between atoms: O_26  and  C_27
REMARK                            x       y       z     vdW  Elec       q    Type
REMARK                         _______ _______ _______ _____ _____    ______ ____
ROOT
ATOM      1  C   UNL     1       2.419   7.622  18.233  0.00  0.00    +0.000 A 
ATOM      2  N   UNL     1       2.567   8.469  17.236  0.00  0.00    +0.000 NA
ATOM      3  N   UNL     1       2.045   9.699  17.526  0.00  0.00    +0.000 NA
ATOM      4  C   UNL     1       1.511   9.777  18.732  0.00  0.00    +0.000 A 
ATOM      5  S   UNL     1       1.668   8.339  19.632  0.00  0.00    +0.000 S 
ENDROOT
BRANCH   4   6
ATOM      6  C   UNL     1       0.885  11.069  19.164  0.00  0.00    +0.000 A 
ATOM      7  C   UNL     1      -0.165  10.987  20.057  0.00  0.00    +0.000 A 
ATOM      8  N   UNL     1      -0.722  12.217  20.171  0.00  0.00    +0.000 N 
ATOM      9  C   UNL     1       0.145  13.152  19.664  0.00  0.00    +0.000 A 
ATOM     10  C   UNL     1       0.085  14.542  19.804  0.00  0.00    +0.000 A 
ATOM     11  C   UNL     1       1.104  15.284  19.221  0.00  0.00    +0.000 A 
ATOM     12  C   UNL     1       2.087  14.655  18.460  0.00  0.00    +0.000 A 
ATOM     13 BR   UNL     1       3.457  15.729  17.709  0.00  0.00    +0.000 Br
ATOM     14  C   UNL     1       2.108  13.259  18.276  0.00  0.00    +0.000 A 
ATOM     15  C   UNL     1       1.133  12.463  18.946  0.00  0.00    +0.000 A 
ATOM     16  H   UNL     1      -1.584  12.422  20.650  0.00  0.00    +0.000 HD
ENDBRANCH   4   6
BRANCH   1  19
ATOM     17  C   UNL     1       4.769   4.695  18.679  0.00  0.00    +0.000 A 
ATOM     18  C   UNL     1       4.289   5.996  18.468  0.00  0.00    +0.000 A 
ATOM     19  C   UNL     1       2.929   6.246  18.228  0.00  0.00    +0.000 A 
ATOM     20  C   UNL     1       2.098   5.152  18.024  0.00  0.00    +0.000 A 
ATOM     21  C   UNL     1       2.560   3.841  18.159  0.00  0.00    +0.000 A 
ATOM     22  C   UNL     1       3.897   3.592  18.529  0.00  0.00    +0.000 A 
BRANCH  17  24
ATOM     23  C   UNL     1       7.041   4.776  17.964  0.00  0.00    +0.000 C 
ATOM     24  O   UNL     1       6.089   4.474  18.988  0.00  0.00    +0.000 OA
ENDBRANCH  17  24
BRANCH  21  25
ATOM     25  O   UNL     1       1.545   2.953  17.912  0.00  0.00    +0.000 OA
ATOM     26  C   UNL     1       0.723   2.510  18.973  0.00  0.00    +0.000 C 
ENDBRANCH  21  25
BRANCH  22  27
ATOM     27  O   UNL     1       4.251   2.278  18.672  0.00  0.00    +0.000 OA
ATOM     28  C   UNL     1       4.396   1.725  19.972  0.00  0.00    +0.000 C 
ENDBRANCH  22  27
ENDBRANCH   1  19
TORSDOF 5
ENDMDL
MODEL 7
REMARK VINA RESULT:      -7.6      1.027      2.630
REMARK  Name = 
REMARK  8 active torsions:
REMARK  status: ('A' for Active; 'I' for Inactive)
REMARK    1  A    between atoms: C_1  and  O_2
REMARK    2  A    between atoms: O_2  and  C_3
REMARK    3  A    between atoms: C_5  and  C_6
REMARK    4  A    between atoms: C_9  and  C_10
REMARK    5  A    between atoms: C_22  and  O_23
REMARK    6  A    between atoms: O_23  and  C_24
REMARK    7  A    between atoms: C_25  and  O_26
REMARK    8  A    between atoms: O_26  and  C_27
REMARK                            x       y       z     vdW  Elec       q    Type
REMARK                         _______ _______ _______ _____ _____    ______ ____
ROOT
ATOM      1  C   UNL     1       2.578   7.998  18.105  0.00  0.00    +0.000 A 
ATOM      2  N   UNL     1       2.302   9.004  17.303  0.00  0.00    +0.000 NA
ATOM      3  N   UNL     1       1.458   9.908  17.886  0.00  0.00    +0.000 NA
ATOM      4  C   UNL     1       1.104   9.585  19.118  0.00  0.00    +0.000 A 
ATOM      5  S   UNL     1       1.843   8.155  19.676  0.00  0.00    +0.000 S 
ENDROOT
BRANCH   4   6
ATOM      6  C   UNL     1       0.163  10.486  19.859  0.00  0.00    +0.000 A 
ATOM      7  C   UNL     1       0.650  11.094  21.000  0.00  0.00    +0.000 A 
ATOM      8  N   UNL     1      -0.385  11.698  21.634  0.00  0.00    +0.000 N 
ATOM      9  C   UNL     1      -1.444  11.801  20.767  0.00  0.00    +0.000 A 
ATOM     10  C   UNL     1      -2.605  12.566  20.919  0.00  0.00    +0.000 A 
ATOM     11  C   UNL     1      -3.528  12.532  19.883  0.00  0.00    +0.000 A 
ATOM     12  C   UNL     1      -3.326  11.699  18.785  0.00  0.00    +0.000 A 
ATOM     13 BR   UNL     1      -4.619  11.719  17.399  0.00  0.00    +0.000 Br
ATOM     14  C   UNL     1      -2.180  10.888  18.666  0.00  0.00    +0.000 A 
ATOM     15  C   UNL     1      -1.168  10.978  19.666  0.00  0.00    +0.000 A 
ATOM     16  H   UNL     1      -0.345  12.102  22.555  0.00  0.00    +0.000 HD
ENDBRANCH   4   6
BRANCH   1  19
ATOM     17  C   UNL     1       3.841   4.530  17.286  0.00  0.00    +0.000 A 
ATOM     18  C   UNL     1       3.057   5.575  17.800  0.00  0.00    +0.000 A 
ATOM     19  C   UNL     1       3.499   6.906  17.769  0.00  0.00    +0.000 A 
ATOM     20  C   UNL     1       4.812   7.141  17.382  0.00  0.00    +0.000 A 
ATOM     21  C   UNL     1       5.642   6.113  16.928  0.00  0.00    +0.000 A 
ATOM     22  C   UNL     1       5.155   4.794  16.836  0.00  0.00    +0.000 A 
BRANCH  17  24
ATOM     23  C   UNL     1       3.246   2.576  18.514  0.00  0.00    +0.000 C 
ATOM     24  O   UNL     1       3.363   3.243  17.254  0.00  0.00    +0.000 OA
ENDBRANCH  17  24
BRANCH  21  25
ATOM     25  O   UNL     1       6.878   6.610  16.605  0.00  0.00    +0.000 OA
ATOM     26  C   UNL     1       7.572   7.426  17.528  0.00  0.00    +0.000 C 
ENDBRANCH  21  25
BRANCH  22  27
ATOM     27  O   UNL     1       6.027   3.859  16.349  0.00  0.00    +0.000 OA
ATOM     28  C   UNL     1       6.240   3.756  14.949  0.00  0.00    +0.000 C 
ENDBRANCH  22  27
ENDBRANCH   1  19
TORSDOF 5
ENDMDL
MODEL 8
REMARK VINA RESULT:      -7.6      3.067      4.223
REMARK  Name = 
REMARK  8 active torsions:
REMARK  status: ('A' for Active; 'I' for Inactive)
REMARK    1  A    between atoms: C_1  and  O_2
REMARK    2  A    between atoms: O_2  and  C_3
REMARK    3  A    between atoms: C_5  and  C_6
REMARK    4  A    between atoms: C_9  and  C_10
REMARK    5  A    between atoms: C_22  and  O_23
REMARK    6  A    between atoms: O_23  and  C_24
REMARK    7  A    between atoms: C_25  and  O_26
REMARK    8  A    between atoms: O_26  and  C_27
REMARK                            x       y       z     vdW  Elec       q    Type
REMARK                         _______ _______ _______ _____ _____    ______ ____
ROOT
ATOM      1  C   UNL     1       1.946   7.950  19.445  0.00  0.00    +0.000 A 
ATOM      2  N   UNL     1       1.340   8.333  20.549  0.00  0.00    +0.000 NA
ATOM      3  N   UNL     1       0.771   9.570  20.420  0.00  0.00    +0.000 NA
ATOM      4  C   UNL     1       0.946  10.111  19.227  0.00  0.00    +0.000 A 
ATOM      5  S   UNL     1       1.783   9.098  18.144  0.00  0.00    +0.000 S 
ENDROOT
BRANCH   4   6
ATOM      6  C   UNL     1       0.387  11.477  18.965  0.00  0.00    +0.000 A 
ATOM      7  C   UNL     1      -0.976  11.565  18.761  0.00  0.00    +0.000 A 
ATOM      8  N   UNL     1      -1.263  12.824  18.347  0.00  0.00    +0.000 N 
ATOM      9  C   UNL     1      -0.194  13.640  18.617  0.00  0.00    +0.000 A 
ATOM     10  C   UNL     1      -0.153  15.038  18.586  0.00  0.00    +0.000 A 
ATOM     11  C   UNL     1       1.047  15.646  18.932  0.00  0.00    +0.000 A 
ATOM     12  C   UNL     1       2.174  14.875  19.211  0.00  0.00    +0.000 A 
ATOM     13 BR   UNL     1       3.772  15.773  19.694  0.00  0.00    +0.000 Br
ATOM     14  C   UNL     1       2.139  13.467  19.184  0.00  0.00    +0.000 A 
ATOM     15  C   UNL     1       0.896  12.816  18.932  0.00  0.00    +0.000 A 
ATOM     16  H   UNL     1      -2.157  13.130  17.999  0.00  0.00    +0.000 HD
ENDBRANCH   4   6
BRANCH   1  19
ATOM     17  C   UNL     1       2.910   4.344  20.042  0.00  0.00    +0.000 A 
ATOM     18  C   UNL     1       2.483   5.662  20.265  0.00  0.00    +0.000 A 
ATOM     19  C   UNL     1       2.597   6.646  19.271  0.00  0.00    +0.000 A 
ATOM     20  C   UNL     1       3.311   6.326  18.124  0.00  0.00    +0.000 A 
ATOM     21  C   UNL     1       3.808   5.039  17.901  0.00  0.00    +0.000 A 
ATOM     22  C   UNL     1       3.580   4.016  18.842  0.00  0.00    +0.000 A 
BRANCH  17  24
ATOM     23  C   UNL     1       1.378   2.916  21.182  0.00  0.00    +0.000 C 
ATOM     24  O   UNL     1       2.722   3.374  20.997  0.00  0.00    +0.000 OA
ENDBRANCH  17  24
BRANCH  21  25
ATOM     25  O   UNL     1       4.465   4.987  16.699  0.00  0.00    +0.000 OA
ATOM     26  C   UNL     1       5.102   6.144  16.194  0.00  0.00    +0.000 C 
ENDBRANCH  21  25
BRANCH  22  27
ATOM     27  O   UNL     1       4.075   2.780  18.524  0.00  0.00    +0.000 OA
ATOM     28  C   UNL     1       3.206   1.788  17.997  0.00  0.00    +0.000 C 
ENDBRANCH  22  27
ENDBRANCH   1  19
TORSDOF 5
ENDMDL
MODEL 9
REMARK VINA RESULT:      -7.6      3.212      3.725
REMARK  Name = 
REMARK  8 active torsions:
REMARK  status: ('A' for Active; 'I' for Inactive)
REMARK    1  A    between atoms: C_1  and  O_2
REMARK    2  A    between atoms: O_2  and  C_3
REMARK    3  A    between atoms: C_5  and  C_6
REMARK    4  A    between atoms: C_9  and  C_10
REMARK    5  A    between atoms: C_22  and  O_23
REMARK    6  A    between atoms: O_23  and  C_24
REMARK    7  A    between atoms: C_25  and  O_26
REMARK    8  A    between atoms: O_26  and  C_27
REMARK                            x       y       z     vdW  Elec       q    Type
REMARK                         _______ _______ _______ _____ _____    ______ ____
ROOT
ATOM      1  C   UNL     1       2.303   7.823  18.564  0.00  0.00    +0.000 A 
ATOM      2  N   UNL     1       2.540   8.528  17.479  0.00  0.00    +0.000 NA
ATOM      3  N   UNL     1       1.976   9.773  17.541  0.00  0.00    +0.000 NA
ATOM      4  C   UNL     1       1.323  10.003  18.667  0.00  0.00    +0.000 A 
ATOM      5  S   UNL     1       1.406   8.706  19.770  0.00  0.00    +0.000 S 
ENDROOT
BRANCH   4   6
ATOM      6  C   UNL     1       0.642  11.325  18.851  0.00  0.00    +0.000 A 
ATOM      7  C   UNL     1      -0.628  11.303  19.394  0.00  0.00    +0.000 A 
ATOM      8  N   UNL     1      -1.152  12.549  19.298  0.00  0.00    +0.000 N 
ATOM      9  C   UNL     1      -0.143  13.442  19.041  0.00  0.00    +0.000 A 
ATOM     10  C   UNL     1      -0.194  14.839  19.112  0.00  0.00    +0.000 A 
ATOM     11  C   UNL     1       0.976  15.533  18.834  0.00  0.00    +0.000 A 
ATOM     12  C   UNL     1       2.119  14.851  18.420  0.00  0.00    +0.000 A 
ATOM     13 BR   UNL     1       3.685  15.862  18.076  0.00  0.00    +0.000 Br
ATOM     14  C   UNL     1       2.146  13.448  18.296  0.00  0.00    +0.000 A 
ATOM     15  C   UNL     1       0.990  12.703  18.672  0.00  0.00    +0.000 A 
ATOM     16  H   UNL     1      -2.110  12.793  19.492  0.00  0.00    +0.000 HD
ENDBRANCH   4   6
BRANCH   1  19
ATOM     17  C   UNL     1       4.473   4.743  18.262  0.00  0.00    +0.000 A 
ATOM     18  C   UNL     1       3.801   5.934  17.947  0.00  0.00    +0.000 A 
ATOM     19  C   UNL     1       2.828   6.473  18.801  0.00  0.00    +0.000 A 
ATOM     20  C   UNL     1       2.416   5.701  19.880  0.00  0.00    +0.000 A 
ATOM     21  C   UNL     1       3.018   4.478  20.182  0.00  0.00    +0.000 A 
ATOM     22  C   UNL     1       4.086   3.998  19.399  0.00  0.00    +0.000 A 
BRANCH  17  24
ATOM     23  C   UNL     1       6.777   4.831  17.658  0.00  0.00    +0.000 C 
ATOM     24  O   UNL     1       5.477   4.268  17.454  0.00  0.00    +0.000 OA
ENDBRANCH  17  24
BRANCH  21  25
ATOM     25  O   UNL     1       2.434   3.924  21.292  0.00  0.00    +0.000 OA
ATOM     26  C   UNL     1       1.352   3.026  21.143  0.00  0.00    +0.000 C 
ENDBRANCH  21  25
BRANCH  22  27
ATOM     27  O   UNL     1       4.637   2.808  19.790  0.00  0.00    +0.000 OA
ATOM     28  C   UNL     1       4.162   1.593  19.229  0.00  0.00    +0.000 C 
ENDBRANCH  22  27
ENDBRANCH   1  19
TORSDOF 5
ENDMDL
