MODEL 1
REMARK VINA RESULT:      -9.7      0.000      0.000
REMARK  Name = 
REMARK  4 active torsions:
REMARK  status: ('A' for Active; 'I' for Inactive)
REMARK    1  A    between atoms: C_1  and  C_2
REMARK    2  A    between atoms: C_6  and  N_7
REMARK    3  A    between atoms: C_10  and  C_11
REMARK    4  A    between atoms: N_13  and  C_14
REMARK                            x       y       z     vdW  Elec       q    Type
REMARK                         _______ _______ _______ _____ _____    ______ ____
ROOT
ATOM      1  C   UNL     1       7.752   7.227  17.862  0.00  0.00    +0.000 C 
ATOM      2  O   UNL     1       8.265   6.869  18.919  0.00  0.00    +0.000 OA
ATOM      3  N   UNL     1       7.649   8.545  17.439  0.00  0.00    +0.000 N 
ATOM      4  H   UNL     1       6.977   8.752  16.710  0.00  0.00    +0.000 HD
ENDROOT
BRANCH   3   5
ATOM      5  C   UNL     1       8.293   9.648  18.054  0.00  0.00    +0.000 A 
ATOM      6  C   UNL     1       9.051   9.507  19.223  0.00  0.00    +0.000 A 
ATOM      7  C   UNL     1       9.665  10.607  19.820  0.00  0.00    +0.000 A 
ATOM      8  C   UNL     1       9.524  11.867  19.258  0.00  0.00    +0.000 A 
ATOM      9  C   UNL     1       8.795  12.023  18.077  0.00  0.00    +0.000 A 
ATOM     10  C   UNL     1       8.191  10.913  17.463  0.00  0.00    +0.000 A 
ATOM     11  N   UNL     1       8.686  13.291  17.501  0.00  0.00    +0.000 N 
ATOM     12  C   UNL     1       9.178  14.406  18.126  0.00  0.00    +0.000 C 
ATOM     13  O   UNL     1       9.106  15.516  17.604  0.00  0.00    +0.000 OA
ATOM     14  C   UNL     1       9.725  14.178  19.532  0.00  0.00    +0.000 C 
ATOM     15  O   UNL     1      10.177  12.884  19.894  0.00  0.00    +0.000 OA
ATOM     16  H   UNL     1       8.245  13.430  16.602  0.00  0.00    +0.000 HD
ENDBRANCH   3   5
BRANCH   1  20
ATOM     17  N   UNL     1       4.655   5.180  17.985  0.00  0.00    +0.000 N 
ATOM     18  C   UNL     1       4.644   6.569  17.529  0.00  0.00    +0.000 C 
ATOM     19  C   UNL     1       5.729   6.700  16.444  0.00  0.00    +0.000 C 
ATOM     20  C   UNL     1       7.117   6.204  16.919  0.00  0.00    +0.000 C 
ATOM     21  C   UNL     1       7.006   4.815  17.567  0.00  0.00    +0.000 C 
ATOM     22  C   UNL     1       5.909   4.778  18.629  0.00  0.00    +0.000 C 
BRANCH  17  28
ATOM     23  C   UNL     1       2.163   3.000  21.723  0.00  0.00    +0.000 C 
ATOM     24  C   UNL     1       2.238   3.513  20.315  0.00  0.00    +0.000 A 
ATOM     25  C   UNL     1       1.157   3.340  19.445  0.00  0.00    +0.000 A 
ATOM     26  C   UNL     1       1.233   3.800  18.136  0.00  0.00    +0.000 A 
ATOM     27  C   UNL     1       2.401   4.416  17.691  0.00  0.00    +0.000 A 
ATOM     28  C   UNL     1       3.516   4.590  18.528  0.00  0.00    +0.000 A 
ATOM     29  C   UNL     1       3.407   4.151  19.852  0.00  0.00    +0.000 A 
ENDBRANCH  17  28
ENDBRANCH   1  20
TORSDOF 3
ENDMDL
MODEL 2
REMARK VINA RESULT:      -9.5      0.672      1.144
REMARK  Name = 
REMARK  4 active torsions:
REMARK  status: ('A' for Active; 'I' for Inactive)
REMARK    1  A    between atoms: C_1  and  C_2
REMARK    2  A    between atoms: C_6  and  N_7
REMARK    3  A    between atoms: C_10  and  C_11
REMARK    4  A    between atoms: N_13  and  C_14
REMARK                            x       y       z     vdW  Elec       q    Type
REMARK                         _______ _______ _______ _____ _____    ______ ____
ROOT
ATOM      1  C   UNL     1       7.756   7.343  17.949  0.00  0.00    +0.000 C 
ATOM      2  O   UNL     1       8.370   6.991  18.954  0.00  0.00    +0.000 OA
ATOM      3  N   UNL     1       7.619   8.658  17.526  0.00  0.00    +0.000 N 
ATOM      4  H   UNL     1       6.879   8.863  16.864  0.00  0.00    +0.000 HD
ENDROOT
BRANCH   3   5
ATOM      5  C   UNL     1       8.326   9.762  18.063  0.00  0.00    +0.000 A 
ATOM      6  C   UNL     1       9.216   9.623  19.135  0.00  0.00    +0.000 A 
ATOM      7  C   UNL     1       9.892  10.725  19.659  0.00  0.00    +0.000 A 
ATOM      8  C   UNL     1       9.682  11.985  19.119  0.00  0.00    +0.000 A 
ATOM      9  C   UNL     1       8.819  12.139  18.031  0.00  0.00    +0.000 A 
ATOM     10  C   UNL     1       8.152  11.028  17.490  0.00  0.00    +0.000 A 
ATOM     11  N   UNL     1       8.640  13.407  17.473  0.00  0.00    +0.000 N 
ATOM     12  C   UNL     1       9.198  14.524  18.039  0.00  0.00    +0.000 C 
ATOM     13  O   UNL     1       9.062  15.634  17.531  0.00  0.00    +0.000 OA
ATOM     14  C   UNL     1       9.906  14.296  19.372  0.00  0.00    +0.000 C 
ATOM     15  O   UNL     1      10.401  13.003  19.676  0.00  0.00    +0.000 OA
ATOM     16  H   UNL     1       8.097  13.546  16.632  0.00  0.00    +0.000 HD
ENDBRANCH   3   5
BRANCH   1  20
ATOM     17  N   UNL     1       4.566   5.474  18.303  0.00  0.00    +0.000 N 
ATOM     18  C   UNL     1       4.606   6.841  17.783  0.00  0.00    +0.000 C 
ATOM     19  C   UNL     1       5.645   6.865  16.647  0.00  0.00    +0.000 C 
ATOM     20  C   UNL     1       7.026   6.316  17.084  0.00  0.00    +0.000 C 
ATOM     21  C   UNL     1       6.872   4.965  17.800  0.00  0.00    +0.000 C 
ATOM     22  C   UNL     1       5.825   5.034  18.909  0.00  0.00    +0.000 C 
BRANCH  17  28
ATOM     23  C   UNL     1       0.794   2.220  18.643  0.00  0.00    +0.000 C 
ATOM     24  C   UNL     1       1.550   3.414  19.146  0.00  0.00    +0.000 A 
ATOM     25  C   UNL     1       1.074   4.137  20.245  0.00  0.00    +0.000 A 
ATOM     26  C   UNL     1       1.765   5.253  20.699  0.00  0.00    +0.000 A 
ATOM     27  C   UNL     1       2.924   5.659  20.041  0.00  0.00    +0.000 A 
ATOM     28  C   UNL     1       3.424   4.972  18.922  0.00  0.00    +0.000 A 
ATOM     29  C   UNL     1       2.732   3.830  18.501  0.00  0.00    +0.000 A 
ENDBRANCH  17  28
ENDBRANCH   1  20
TORSDOF 3
ENDMDL
MODEL 3
REMARK VINA RESULT:      -9.4      5.670      7.708
REMARK  Name = 
REMARK  4 active torsions:
REMARK  status: ('A' for Active; 'I' for Inactive)
REMARK    1  A    between atoms: C_1  and  C_2
REMARK    2  A    between atoms: C_6  and  N_7
REMARK    3  A    between atoms: C_10  and  C_11
REMARK    4  A    between atoms: N_13  and  C_14
REMARK                            x       y       z     vdW  Elec       q    Type
REMARK                         _______ _______ _______ _____ _____    ______ ____
ROOT
ATOM      1  C   UNL     1       3.050   5.547  18.740  0.00  0.00    +0.000 C 
ATOM      2  O   UNL     1       1.937   5.035  18.651  0.00  0.00    +0.000 OA
ATOM      3  N   UNL     1       3.289   6.911  18.839  0.00  0.00    +0.000 N 
ATOM      4  H   UNL     1       4.223   7.240  18.628  0.00  0.00    +0.000 HD
ENDROOT
BRANCH   3   5
ATOM      5  C   UNL     1       2.293   7.895  19.058  0.00  0.00    +0.000 A 
ATOM      6  C   UNL     1       1.737   8.634  18.006  0.00  0.00    +0.000 A 
ATOM      7  C   UNL     1       0.768   9.609  18.244  0.00  0.00    +0.000 A 
ATOM      8  C   UNL     1       0.345   9.861  19.540  0.00  0.00    +0.000 A 
ATOM      9  C   UNL     1       0.867   9.115  20.599  0.00  0.00    +0.000 A 
ATOM     10  C   UNL     1       1.829   8.120  20.360  0.00  0.00    +0.000 A 
ATOM     11  N   UNL     1       0.411   9.354  21.897  0.00  0.00    +0.000 N 
ATOM     12  C   UNL     1      -0.452  10.382  22.175  0.00  0.00    +0.000 C 
ATOM     13  O   UNL     1      -0.874  10.573  23.313  0.00  0.00    +0.000 OA
ATOM     14  C   UNL     1      -0.764  11.307  21.002  0.00  0.00    +0.000 C 
ATOM     15  O   UNL     1      -0.622  10.815  19.680  0.00  0.00    +0.000 OA
ATOM     16  H   UNL     1       0.696   8.776  22.676  0.00  0.00    +0.000 HD
ENDBRANCH   3   5
BRANCH   1  20
ATOM     17  N   UNL     1       5.417   4.576  16.047  0.00  0.00    +0.000 N 
ATOM     18  C   UNL     1       5.536   5.849  16.756  0.00  0.00    +0.000 C 
ATOM     19  C   UNL     1       5.531   5.532  18.263  0.00  0.00    +0.000 C 
ATOM     20  C   UNL     1       4.310   4.682  18.695  0.00  0.00    +0.000 C 
ATOM     21  C   UNL     1       4.141   3.466  17.771  0.00  0.00    +0.000 C 
ATOM     22  C   UNL     1       4.156   3.873  16.299  0.00  0.00    +0.000 C 
BRANCH  17  28
ATOM     23  C   UNL     1       5.297   2.557  11.482  0.00  0.00    +0.000 C 
ATOM     24  C   UNL     1       5.913   3.469  12.500  0.00  0.00    +0.000 A 
ATOM     25  C   UNL     1       7.093   4.161  12.203  0.00  0.00    +0.000 A 
ATOM     26  C   UNL     1       7.673   4.991  13.153  0.00  0.00    +0.000 A 
ATOM     27  C   UNL     1       7.085   5.116  14.410  0.00  0.00    +0.000 A 
ATOM     28  C   UNL     1       5.912   4.423  14.754  0.00  0.00    +0.000 A 
ATOM     29  C   UNL     1       5.323   3.618  13.772  0.00  0.00    +0.000 A 
ENDBRANCH  17  28
ENDBRANCH   1  20
TORSDOF 3
ENDMDL
MODEL 4
REMARK VINA RESULT:      -9.0      5.525      7.511
REMARK  Name = 
REMARK  4 active torsions:
REMARK  status: ('A' for Active; 'I' for Inactive)
REMARK    1  A    between atoms: C_1  and  C_2
REMARK    2  A    between atoms: C_6  and  N_7
REMARK    3  A    between atoms: C_10  and  C_11
REMARK    4  A    between atoms: N_13  and  C_14
REMARK                            x       y       z     vdW  Elec       q    Type
REMARK                         _______ _______ _______ _____ _____    ______ ____
ROOT
ATOM      1  C   UNL     1       4.460   5.546  19.030  0.00  0.00    +0.000 C 
ATOM      2  O   UNL     1       5.261   6.387  19.429  0.00  0.00    +0.000 OA
ATOM      3  N   UNL     1       3.085   5.724  18.980  0.00  0.00    +0.000 N 
ATOM      4  H   UNL     1       2.506   4.895  18.906  0.00  0.00    +0.000 HD
ENDROOT
BRANCH   3   5
ATOM      5  C   UNL     1       2.418   6.958  19.183  0.00  0.00    +0.000 A 
ATOM      6  C   UNL     1       2.214   7.871  18.142  0.00  0.00    +0.000 A 
ATOM      7  C   UNL     1       1.567   9.087  18.366  0.00  0.00    +0.000 A 
ATOM      8  C   UNL     1       1.120   9.407  19.639  0.00  0.00    +0.000 A 
ATOM      9  C   UNL     1       1.290   8.497  20.685  0.00  0.00    +0.000 A 
ATOM     10  C   UNL     1       1.924   7.264  20.458  0.00  0.00    +0.000 A 
ATOM     11  N   UNL     1       0.807   8.815  21.956  0.00  0.00    +0.000 N 
ATOM     12  C   UNL     1       0.274  10.047  22.232  0.00  0.00    +0.000 C 
ATOM     13  O   UNL     1      -0.176  10.316  23.343  0.00  0.00    +0.000 OA
ATOM     14  C   UNL     1       0.369  11.068  21.101  0.00  0.00    +0.000 C 
ATOM     15  O   UNL     1       0.478  10.606  19.765  0.00  0.00    +0.000 OA
ATOM     16  H   UNL     1       0.829   8.149  22.715  0.00  0.00    +0.000 HD
ENDBRANCH   3   5
BRANCH   1  20
ATOM     17  N   UNL     1       5.875   4.191  15.874  0.00  0.00    +0.000 N 
ATOM     18  C   UNL     1       6.708   4.877  16.862  0.00  0.00    +0.000 C 
ATOM     19  C   UNL     1       6.444   4.207  18.223  0.00  0.00    +0.000 C 
ATOM     20  C   UNL     1       4.940   4.162  18.589  0.00  0.00    +0.000 C 
ATOM     21  C   UNL     1       4.111   3.611  17.418  0.00  0.00    +0.000 C 
ATOM     22  C   UNL     1       4.436   4.333  16.112  0.00  0.00    +0.000 C 
BRANCH  17  28
ATOM     23  C   UNL     1       5.524   2.326  11.256  0.00  0.00    +0.000 C 
ATOM     24  C   UNL     1       6.115   3.287  12.245  0.00  0.00    +0.000 A 
ATOM     25  C   UNL     1       7.138   4.157  11.855  0.00  0.00    +0.000 A 
ATOM     26  C   UNL     1       7.697   5.035  12.775  0.00  0.00    +0.000 A 
ATOM     27  C   UNL     1       7.246   5.029  14.093  0.00  0.00    +0.000 A 
ATOM     28  C   UNL     1       6.234   4.156  14.529  0.00  0.00    +0.000 A 
ATOM     29  C   UNL     1       5.660   3.304  13.579  0.00  0.00    +0.000 A 
ENDBRANCH  17  28
ENDBRANCH   1  20
TORSDOF 3
ENDMDL
MODEL 5
REMARK VINA RESULT:      -9.0      5.621      7.473
REMARK  Name = 
REMARK  4 active torsions:
REMARK  status: ('A' for Active; 'I' for Inactive)
REMARK    1  A    between atoms: C_1  and  C_2
REMARK    2  A    between atoms: C_6  and  N_7
REMARK    3  A    between atoms: C_10  and  C_11
REMARK    4  A    between atoms: N_13  and  C_14
REMARK                            x       y       z     vdW  Elec       q    Type
REMARK                         _______ _______ _______ _____ _____    ______ ____
ROOT
ATOM      1  C   UNL     1       2.720   5.420  19.343  0.00  0.00    +0.000 C 
ATOM      2  O   UNL     1       1.607   4.988  19.052  0.00  0.00    +0.000 OA
ATOM      3  N   UNL     1       2.990   6.732  19.706  0.00  0.00    +0.000 N 
ATOM      4  H   UNL     1       3.952   7.045  19.653  0.00  0.00    +0.000 HD
ENDROOT
BRANCH   3   5
ATOM      5  C   UNL     1       2.009   7.713  19.994  0.00  0.00    +0.000 A 
ATOM      6  C   UNL     1       1.272   7.698  21.185  0.00  0.00    +0.000 A 
ATOM      7  C   UNL     1       0.301   8.665  21.443  0.00  0.00    +0.000 A 
ATOM      8  C   UNL     1       0.049   9.659  20.509  0.00  0.00    +0.000 A 
ATOM      9  C   UNL     1       0.793   9.706  19.328  0.00  0.00    +0.000 A 
ATOM     10  C   UNL     1       1.785   8.745  19.074  0.00  0.00    +0.000 A 
ATOM     11  N   UNL     1       0.556  10.730  18.408  0.00  0.00    +0.000 N 
ATOM     12  C   UNL     1      -0.470  11.623  18.579  0.00  0.00    +0.000 C 
ATOM     13  O   UNL     1      -0.660  12.540  17.784  0.00  0.00    +0.000 OA
ATOM     14  C   UNL     1      -1.393  11.337  19.761  0.00  0.00    +0.000 C 
ATOM     15  O   UNL     1      -0.901  10.578  20.852  0.00  0.00    +0.000 OA
ATOM     16  H   UNL     1       1.132  10.852  17.587  0.00  0.00    +0.000 HD
ENDBRANCH   3   5
BRANCH   1  20
ATOM     17  N   UNL     1       5.166   4.592  16.672  0.00  0.00    +0.000 N 
ATOM     18  C   UNL     1       5.299   5.793  17.495  0.00  0.00    +0.000 C 
ATOM     19  C   UNL     1       5.217   5.348  18.967  0.00  0.00    +0.000 C 
ATOM     20  C   UNL     1       3.949   4.513  19.272  0.00  0.00    +0.000 C 
ATOM     21  C   UNL     1       3.777   3.388  18.239  0.00  0.00    +0.000 C 
ATOM     22  C   UNL     1       3.870   3.920  16.811  0.00  0.00    +0.000 C 
BRANCH  17  28
ATOM     23  C   UNL     1       5.110   3.075  11.915  0.00  0.00    +0.000 C 
ATOM     24  C   UNL     1       5.747   3.820  13.051  0.00  0.00    +0.000 A 
ATOM     25  C   UNL     1       6.992   4.434  12.878  0.00  0.00    +0.000 A 
ATOM     26  C   UNL     1       7.590   5.108  13.935  0.00  0.00    +0.000 A 
ATOM     27  C   UNL     1       6.951   5.152  15.173  0.00  0.00    +0.000 A 
ATOM     28  C   UNL     1       5.710   4.531  15.392  0.00  0.00    +0.000 A 
ATOM     29  C   UNL     1       5.108   3.886  14.305  0.00  0.00    +0.000 A 
ENDBRANCH  17  28
ENDBRANCH   1  20
TORSDOF 3
ENDMDL
MODEL 6
REMARK VINA RESULT:      -9.0      5.672      7.676
REMARK  Name = 
REMARK  4 active torsions:
REMARK  status: ('A' for Active; 'I' for Inactive)
REMARK    1  A    between atoms: C_1  and  C_2
REMARK    2  A    between atoms: C_6  and  N_7
REMARK    3  A    between atoms: C_10  and  C_11
REMARK    4  A    between atoms: N_13  and  C_14
REMARK                            x       y       z     vdW  Elec       q    Type
REMARK                         _______ _______ _______ _____ _____    ______ ____
ROOT
ATOM      1  C   UNL     1       2.998   5.294  18.890  0.00  0.00    +0.000 C 
ATOM      2  O   UNL     1       1.860   4.831  18.897  0.00  0.00    +0.000 OA
ATOM      3  N   UNL     1       3.302   6.648  18.899  0.00  0.00    +0.000 N 
ATOM      4  H   UNL     1       4.236   6.921  18.613  0.00  0.00    +0.000 HD
ENDROOT
BRANCH   3   5
ATOM      5  C   UNL     1       2.367   7.689  19.120  0.00  0.00    +0.000 A 
ATOM      6  C   UNL     1       1.899   8.501  18.080  0.00  0.00    +0.000 A 
ATOM      7  C   UNL     1       0.989   9.529  18.321  0.00  0.00    +0.000 A 
ATOM      8  C   UNL     1       0.537   9.763  19.612  0.00  0.00    +0.000 A 
ATOM      9  C   UNL     1       0.971   8.947  20.658  0.00  0.00    +0.000 A 
ATOM     10  C   UNL     1       1.873   7.898  20.414  0.00  0.00    +0.000 A 
ATOM     11  N   UNL     1       0.485   9.170  21.949  0.00  0.00    +0.000 N 
ATOM     12  C   UNL     1      -0.317  10.243  22.236  0.00  0.00    +0.000 C 
ATOM     13  O   UNL     1      -0.767  10.421  23.366  0.00  0.00    +0.000 OA
ATOM     14  C   UNL     1      -0.525  11.228  21.089  0.00  0.00    +0.000 C 
ATOM     15  O   UNL     1      -0.369  10.774  19.755  0.00  0.00    +0.000 OA
ATOM     16  H   UNL     1       0.703   8.547  22.714  0.00  0.00    +0.000 HD
ENDBRANCH   3   5
BRANCH   1  20
ATOM     17  N   UNL     1       5.448   4.455  16.227  0.00  0.00    +0.000 N 
ATOM     18  C   UNL     1       5.595   5.646  17.063  0.00  0.00    +0.000 C 
ATOM     19  C   UNL     1       5.496   5.187  18.529  0.00  0.00    +0.000 C 
ATOM     20  C   UNL     1       4.214   4.368  18.818  0.00  0.00    +0.000 C 
ATOM     21  C   UNL     1       4.031   3.257  17.773  0.00  0.00    +0.000 C 
ATOM     22  C   UNL     1       4.142   3.802  16.350  0.00  0.00    +0.000 C 
BRANCH  17  28
ATOM     23  C   UNL     1       8.744   5.912  12.771  0.00  0.00    +0.000 C 
ATOM     24  C   UNL     1       7.583   5.069  13.208  0.00  0.00    +0.000 A 
ATOM     25  C   UNL     1       6.941   4.227  12.293  0.00  0.00    +0.000 A 
ATOM     26  C   UNL     1       5.854   3.460  12.694  0.00  0.00    +0.000 A 
ATOM     27  C   UNL     1       5.395   3.550  14.006  0.00  0.00    +0.000 A 
ATOM     28  C   UNL     1       5.999   4.399  14.950  0.00  0.00    +0.000 A 
ATOM     29  C   UNL     1       7.114   5.137  14.535  0.00  0.00    +0.000 A 
ENDBRANCH  17  28
ENDBRANCH   1  20
TORSDOF 3
ENDMDL
MODEL 7
REMARK VINA RESULT:      -8.7      1.358      1.384
REMARK  Name = 
REMARK  4 active torsions:
REMARK  status: ('A' for Active; 'I' for Inactive)
REMARK    1  A    between atoms: C_1  and  C_2
REMARK    2  A    between atoms: C_6  and  N_7
REMARK    3  A    between atoms: C_10  and  C_11
REMARK    4  A    between atoms: N_13  and  C_14
REMARK                            x       y       z     vdW  Elec       q    Type
REMARK                         _______ _______ _______ _____ _____    ______ ____
ROOT
ATOM      1  C   UNL     1       7.826   7.473  17.798  0.00  0.00    +0.000 C 
ATOM      2  O   UNL     1       8.246   6.926  18.815  0.00  0.00    +0.000 OA
ATOM      3  N   UNL     1       7.932   8.830  17.528  0.00  0.00    +0.000 N 
ATOM      4  H   UNL     1       7.322   9.216  16.817  0.00  0.00    +0.000 HD
ENDROOT
BRANCH   3   5
ATOM      5  C   UNL     1       8.710   9.749  18.276  0.00  0.00    +0.000 A 
ATOM      6  C   UNL     1       8.760   9.712  19.675  0.00  0.00    +0.000 A 
ATOM      7  C   UNL     1       9.521  10.634  20.393  0.00  0.00    +0.000 A 
ATOM      8  C   UNL     1      10.239  11.611  19.720  0.00  0.00    +0.000 A 
ATOM      9  C   UNL     1      10.223  11.647  18.324  0.00  0.00    +0.000 A 
ATOM     10  C   UNL     1       9.473  10.708  17.598  0.00  0.00    +0.000 A 
ATOM     11  N   UNL     1      10.976  12.615  17.655  0.00  0.00    +0.000 N 
ATOM     12  C   UNL     1      11.638  13.604  18.334  0.00  0.00    +0.000 C 
ATOM     13  O   UNL     1      12.322  14.437  17.745  0.00  0.00    +0.000 OA
ATOM     14  C   UNL     1      11.385  13.643  19.839  0.00  0.00    +0.000 C 
ATOM     15  O   UNL     1      10.974  12.458  20.499  0.00  0.00    +0.000 OA
ATOM     16  H   UNL     1      11.063  12.617  16.648  0.00  0.00    +0.000 HD
ENDBRANCH   3   5
BRANCH   1  20
ATOM     17  N   UNL     1       5.059   4.998  17.905  0.00  0.00    +0.000 N 
ATOM     18  C   UNL     1       4.806   6.439  17.916  0.00  0.00    +0.000 C 
ATOM     19  C   UNL     1       5.578   7.045  16.730  0.00  0.00    +0.000 C 
ATOM     20  C   UNL     1       7.080   6.668  16.733  0.00  0.00    +0.000 C 
ATOM     21  C   UNL     1       7.260   5.154  16.924  0.00  0.00    +0.000 C 
ATOM     22  C   UNL     1       6.463   4.641  18.121  0.00  0.00    +0.000 C 
BRANCH  17  28
ATOM     23  C   UNL     1       1.921   3.547  21.508  0.00  0.00    +0.000 C 
ATOM     24  C   UNL     1       2.597   3.330  20.186  0.00  0.00    +0.000 A 
ATOM     25  C   UNL     1       2.388   2.143  19.475  0.00  0.00    +0.000 A 
ATOM     26  C   UNL     1       3.028   1.935  18.260  0.00  0.00    +0.000 A 
ATOM     27  C   UNL     1       3.894   2.907  17.763  0.00  0.00    +0.000 A 
ATOM     28  C   UNL     1       4.146   4.103  18.457  0.00  0.00    +0.000 A 
ATOM     29  C   UNL     1       3.466   4.309  19.663  0.00  0.00    +0.000 A 
ENDBRANCH  17  28
ENDBRANCH   1  20
TORSDOF 3
ENDMDL
MODEL 8
REMARK VINA RESULT:      -8.6      5.551      7.516
REMARK  Name = 
REMARK  4 active torsions:
REMARK  status: ('A' for Active; 'I' for Inactive)
REMARK    1  A    between atoms: C_1  and  C_2
REMARK    2  A    between atoms: C_6  and  N_7
REMARK    3  A    between atoms: C_10  and  C_11
REMARK    4  A    between atoms: N_13  and  C_14
REMARK                            x       y       z     vdW  Elec       q    Type
REMARK                         _______ _______ _______ _____ _____    ______ ____
ROOT
ATOM      1  C   UNL     1       4.455   5.289  19.064  0.00  0.00    +0.000 C 
ATOM      2  O   UNL     1       5.201   6.006  19.727  0.00  0.00    +0.000 OA
ATOM      3  N   UNL     1       3.130   5.581  18.773  0.00  0.00    +0.000 N 
ATOM      4  H   UNL     1       2.536   4.817  18.471  0.00  0.00    +0.000 HD
ENDROOT
BRANCH   3   5
ATOM      5  C   UNL     1       2.500   6.828  19.017  0.00  0.00    +0.000 A 
ATOM      6  C   UNL     1       2.317   7.777  18.004  0.00  0.00    +0.000 A 
ATOM      7  C   UNL     1       1.708   9.003  18.267  0.00  0.00    +0.000 A 
ATOM      8  C   UNL     1       1.278   9.299  19.552  0.00  0.00    +0.000 A 
ATOM      9  C   UNL     1       1.427   8.355  20.569  0.00  0.00    +0.000 A 
ATOM     10  C   UNL     1       2.022   7.111  20.303  0.00  0.00    +0.000 A 
ATOM     11  N   UNL     1       0.961   8.649  21.853  0.00  0.00    +0.000 N 
ATOM     12  C   UNL     1       0.465   9.888  22.168  0.00  0.00    +0.000 C 
ATOM     13  O   UNL     1       0.030  10.137  23.289  0.00  0.00    +0.000 OA
ATOM     14  C   UNL     1       0.584  10.937  21.066  0.00  0.00    +0.000 C 
ATOM     15  O   UNL     1       0.672  10.512  19.716  0.00  0.00    +0.000 OA
ATOM     16  H   UNL     1       0.967   7.961  22.592  0.00  0.00    +0.000 HD
ENDBRANCH   3   5
BRANCH   1  20
ATOM     17  N   UNL     1       5.982   4.177  15.866  0.00  0.00    +0.000 N 
ATOM     18  C   UNL     1       6.781   4.773  16.937  0.00  0.00    +0.000 C 
ATOM     19  C   UNL     1       6.459   4.000  18.229  0.00  0.00    +0.000 C 
ATOM     20  C   UNL     1       4.942   3.941  18.532  0.00  0.00    +0.000 C 
ATOM     21  C   UNL     1       4.156   3.493  17.290  0.00  0.00    +0.000 C 
ATOM     22  C   UNL     1       4.536   4.313  16.060  0.00  0.00    +0.000 C 
BRANCH  17  28
ATOM     23  C   UNL     1       8.685   6.178  12.175  0.00  0.00    +0.000 C 
ATOM     24  C   UNL     1       7.686   5.181  12.682  0.00  0.00    +0.000 A 
ATOM     25  C   UNL     1       7.050   4.308  11.792  0.00  0.00    +0.000 A 
ATOM     26  C   UNL     1       6.111   3.397  12.259  0.00  0.00    +0.000 A 
ATOM     27  C   UNL     1       5.792   3.371  13.615  0.00  0.00    +0.000 A 
ATOM     28  C   UNL     1       6.393   4.245  14.537  0.00  0.00    +0.000 A 
ATOM     29  C   UNL     1       7.361   5.132  14.053  0.00  0.00    +0.000 A 
ENDBRANCH  17  28
ENDBRANCH   1  20
TORSDOF 3
ENDMDL
MODEL 9
REMARK VINA RESULT:      -8.6      1.416      2.002
REMARK  Name = 
REMARK  4 active torsions:
REMARK  status: ('A' for Active; 'I' for Inactive)
REMARK    1  A    between atoms: C_1  and  C_2
REMARK    2  A    between atoms: C_6  and  N_7
REMARK    3  A    between atoms: C_10  and  C_11
REMARK    4  A    between atoms: N_13  and  C_14
REMARK                            x       y       z     vdW  Elec       q    Type
REMARK                         _______ _______ _______ _____ _____    ______ ____
ROOT
ATOM      1  C   UNL     1       7.870   7.330  17.985  0.00  0.00    +0.000 C 
ATOM      2  O   UNL     1       7.151   7.740  17.077  0.00  0.00    +0.000 OA
ATOM      3  N   UNL     1       8.733   8.121  18.730  0.00  0.00    +0.000 N 
ATOM      4  H   UNL     1       9.469   7.655  19.248  0.00  0.00    +0.000 HD
ENDROOT
BRANCH   3   5
ATOM      5  C   UNL     1       8.767   9.538  18.698  0.00  0.00    +0.000 A 
ATOM      6  C   UNL     1       8.324  10.266  17.587  0.00  0.00    +0.000 A 
ATOM      7  C   UNL     1       8.378  11.659  17.570  0.00  0.00    +0.000 A 
ATOM      8  C   UNL     1       8.884  12.344  18.665  0.00  0.00    +0.000 A 
ATOM      9  C   UNL     1       9.306  11.637  19.793  0.00  0.00    +0.000 A 
ATOM     10  C   UNL     1       9.233  10.235  19.820  0.00  0.00    +0.000 A 
ATOM     11  N   UNL     1       9.783  12.338  20.903  0.00  0.00    +0.000 N 
ATOM     12  C   UNL     1       9.958  13.696  20.871  0.00  0.00    +0.000 C 
ATOM     13  O   UNL     1      10.350  14.314  21.858  0.00  0.00    +0.000 OA
ATOM     14  C   UNL     1       9.721  14.353  19.514  0.00  0.00    +0.000 C 
ATOM     15  O   UNL     1       8.880  13.707  18.573  0.00  0.00    +0.000 OA
ATOM     16  H   UNL     1      10.011  11.870  21.769  0.00  0.00    +0.000 HD
ENDBRANCH   3   5
BRANCH   1  20
ATOM     17  N   UNL     1       5.271   4.696  18.306  0.00  0.00    +0.000 N 
ATOM     18  C   UNL     1       5.844   5.061  17.011  0.00  0.00    +0.000 C 
ATOM     19  C   UNL     1       7.375   4.996  17.156  0.00  0.00    +0.000 C 
ATOM     20  C   UNL     1       7.904   5.843  18.340  0.00  0.00    +0.000 C 
ATOM     21  C   UNL     1       7.113   5.538  19.622  0.00  0.00    +0.000 C 
ATOM     22  C   UNL     1       5.607   5.628  19.386  0.00  0.00    +0.000 C 
BRANCH  17  28
ATOM     23  C   UNL     1       1.180   3.437  20.878  0.00  0.00    +0.000 C 
ATOM     24  C   UNL     1       1.965   3.495  19.600  0.00  0.00    +0.000 A 
ATOM     25  C   UNL     1       1.460   2.904  18.437  0.00  0.00    +0.000 A 
ATOM     26  C   UNL     1       2.195   2.942  17.259  0.00  0.00    +0.000 A 
ATOM     27  C   UNL     1       3.446   3.555  17.248  0.00  0.00    +0.000 A 
ATOM     28  C   UNL     1       3.997   4.142  18.400  0.00  0.00    +0.000 A 
ATOM     29  C   UNL     1       3.226   4.123  19.568  0.00  0.00    +0.000 A 
ENDBRANCH  17  28
ENDBRANCH   1  20
TORSDOF 3
ENDMDL
