MODEL 1
REMARK VINA RESULT:      -8.6      0.000      0.000
REMARK  Name = 
REMARK  7 active torsions:
REMARK  status: ('A' for Active; 'I' for Inactive)
REMARK    1  A    between atoms: C_1  and  C_2
REMARK    2  A    between atoms: C_3  and  C_4
REMARK    3  A    between atoms: C_4  and  C_5
REMARK    4  A    between atoms: C_8  and  O_9
REMARK    5  A    between atoms: C_13  and  C_14
REMARK    6  A    between atoms: C_18  and  C_19
REMARK    7  A    between atoms: C_18  and  O_20
REMARK                            x       y       z     vdW  Elec       q    Type
REMARK                         _______ _______ _______ _____ _____    ______ ____
ROOT
ATOM      1  C   UNL     1       0.851   8.501  20.977  0.00  0.00    +0.000 C 
ATOM      2  C   UNL     1       1.698   7.550  20.205  0.00  0.00    +0.000 C 
ATOM      3  C   UNL     1       2.384   7.732  19.045  0.00  0.00    +0.000 C 
ATOM      4  C   UNL     1       3.055   6.444  18.758  0.00  0.00    +0.000 C 
ATOM      5  C   UNL     1       3.947   6.052  17.816  0.00  0.00    +0.000 C 
ATOM      6  C   UNL     1       4.584   7.075  16.897  0.00  0.00    +0.000 C 
ATOM      7  C   UNL     1       4.382   4.584  17.668  0.00  0.00    +0.000 C 
ATOM      8  C   UNL     1       4.570   4.116  16.213  0.00  0.00    +0.000 C 
ATOM      9  C   UNL     1       5.771   4.297  17.074  0.00  0.00    +0.000 C 
ATOM     10  C   UNL     1       3.835   3.542  18.705  0.00  0.00    +0.000 C 
ATOM     11  C   UNL     1       2.876   2.517  18.068  0.00  0.00    +0.000 C 
ATOM     12  C   UNL     1       3.057   4.128  19.895  0.00  0.00    +0.000 C 
ATOM     13  O   UNL     1       2.729   3.458  20.881  0.00  0.00    +0.000 OA
ATOM     14  C   UNL     1       2.637   5.521  19.794  0.00  0.00    +0.000 C 
ATOM     15  C   UNL     1       1.862   6.183  20.664  0.00  0.00    +0.000 C 
ENDROOT
BRANCH  10  16
ATOM     16  O   UNL     1       4.953   2.833  19.268  0.00  0.00    +0.000 OA
ATOM     17  H   UNL     1       5.766   3.245  18.936  0.00  0.00    +0.000 HD
ENDBRANCH  10  16
BRANCH   3  18
ATOM     18  C   UNL     1       2.310   8.957  18.179  0.00  0.00    +0.000 C 
BRANCH  18  19
ATOM     19  C   UNL     1       1.015   9.747  18.223  0.00  0.00    +0.000 A 
ATOM     20  C   UNL     1      -0.187   9.281  17.670  0.00  0.00    +0.000 A 
ATOM     21  C   UNL     1      -1.311  10.108  17.604  0.00  0.00    +0.000 A 
ATOM     22  C   UNL     1      -1.242  11.399  18.113  0.00  0.00    +0.000 A 
ATOM     23  C   UNL     1      -0.096  11.850  18.753  0.00  0.00    +0.000 A 
ATOM     24  C   UNL     1       1.029  11.024  18.810  0.00  0.00    +0.000 A 
BRANCH  22  25
ATOM     25  O   UNL     1      -2.282  12.267  17.975  0.00  0.00    +0.000 OA
ATOM     26  H   UNL     1      -2.404  12.438  17.027  0.00  0.00    +0.000 HD
ENDBRANCH  22  25
ENDBRANCH  18  19
ENDBRANCH   3  18
TORSDOF 4
ENDMDL
MODEL 2
REMARK VINA RESULT:      -8.3      1.819      3.578
REMARK  Name = 
REMARK  7 active torsions:
REMARK  status: ('A' for Active; 'I' for Inactive)
REMARK    1  A    between atoms: C_1  and  C_2
REMARK    2  A    between atoms: C_3  and  C_4
REMARK    3  A    between atoms: C_4  and  C_5
REMARK    4  A    between atoms: C_8  and  O_9
REMARK    5  A    between atoms: C_13  and  C_14
REMARK    6  A    between atoms: C_18  and  C_19
REMARK    7  A    between atoms: C_18  and  O_20
REMARK                            x       y       z     vdW  Elec       q    Type
REMARK                         _______ _______ _______ _____ _____    ______ ____
ROOT
ATOM      1  C   UNL     1       6.529   6.920  17.760  0.00  0.00    +0.000 C 
ATOM      2  C   UNL     1       5.409   5.993  18.089  0.00  0.00    +0.000 C 
ATOM      3  C   UNL     1       4.078   6.105  17.835  0.00  0.00    +0.000 C 
ATOM      4  C   UNL     1       3.452   4.879  18.380  0.00  0.00    +0.000 C 
ATOM      5  C   UNL     1       2.192   4.382  18.333  0.00  0.00    +0.000 C 
ATOM      6  C   UNL     1       1.145   5.036  17.453  0.00  0.00    +0.000 C 
ATOM      7  C   UNL     1       1.784   3.125  19.121  0.00  0.00    +0.000 C 
ATOM      8  C   UNL     1       0.371   3.183  19.732  0.00  0.00    +0.000 C 
ATOM      9  C   UNL     1       0.622   2.276  18.577  0.00  0.00    +0.000 C 
ATOM     10  C   UNL     1       2.895   2.361  19.922  0.00  0.00    +0.000 C 
ATOM     11  C   UNL     1       2.690   2.442  21.448  0.00  0.00    +0.000 C 
ATOM     12  C   UNL     1       4.337   2.840  19.688  0.00  0.00    +0.000 C 
ATOM     13  O   UNL     1       5.326   2.223  20.098  0.00  0.00    +0.000 OA
ATOM     14  C   UNL     1       4.511   4.121  19.013  0.00  0.00    +0.000 C 
ATOM     15  C   UNL     1       5.670   4.763  18.813  0.00  0.00    +0.000 C 
ENDROOT
BRANCH  10  16
ATOM     16  O   UNL     1       2.864   0.977  19.530  0.00  0.00    +0.000 OA
ATOM     17  H   UNL     1       3.156   0.445  20.287  0.00  0.00    +0.000 HD
ENDBRANCH  10  16
BRANCH   3  18
ATOM     18  C   UNL     1       3.405   7.321  17.263  0.00  0.00    +0.000 C 
BRANCH  18  19
ATOM     19  C   UNL     1       2.549   8.137  18.214  0.00  0.00    +0.000 A 
ATOM     20  C   UNL     1       2.294   7.754  19.539  0.00  0.00    +0.000 A 
ATOM     21  C   UNL     1       1.380   8.462  20.324  0.00  0.00    +0.000 A 
ATOM     22  C   UNL     1       0.734   9.570  19.790  0.00  0.00    +0.000 A 
ATOM     23  C   UNL     1       1.041  10.027  18.517  0.00  0.00    +0.000 A 
ATOM     24  C   UNL     1       1.949   9.313  17.731  0.00  0.00    +0.000 A 
BRANCH  22  25
ATOM     25  O   UNL     1      -0.237  10.222  20.488  0.00  0.00    +0.000 OA
ATOM     26  H   UNL     1      -0.723   9.562  21.009  0.00  0.00    +0.000 HD
ENDBRANCH  22  25
ENDBRANCH  18  19
ENDBRANCH   3  18
TORSDOF 4
ENDMDL
MODEL 3
REMARK VINA RESULT:      -8.3      0.275      1.021
REMARK  Name = 
REMARK  7 active torsions:
REMARK  status: ('A' for Active; 'I' for Inactive)
REMARK    1  A    between atoms: C_1  and  C_2
REMARK    2  A    between atoms: C_3  and  C_4
REMARK    3  A    between atoms: C_4  and  C_5
REMARK    4  A    between atoms: C_8  and  O_9
REMARK    5  A    between atoms: C_13  and  C_14
REMARK    6  A    between atoms: C_18  and  C_19
REMARK    7  A    between atoms: C_18  and  O_20
REMARK                            x       y       z     vdW  Elec       q    Type
REMARK                         _______ _______ _______ _____ _____    ______ ____
ROOT
ATOM      1  C   UNL     1       0.884   8.504  20.935  0.00  0.00    +0.000 C 
ATOM      2  C   UNL     1       1.730   7.548  20.167  0.00  0.00    +0.000 C 
ATOM      3  C   UNL     1       2.428   7.727  19.015  0.00  0.00    +0.000 C 
ATOM      4  C   UNL     1       3.090   6.434  18.730  0.00  0.00    +0.000 C 
ATOM      5  C   UNL     1       3.987   6.037  17.795  0.00  0.00    +0.000 C 
ATOM      6  C   UNL     1       4.642   7.057  16.885  0.00  0.00    +0.000 C 
ATOM      7  C   UNL     1       4.410   4.566  17.646  0.00  0.00    +0.000 C 
ATOM      8  C   UNL     1       4.608   4.100  16.191  0.00  0.00    +0.000 C 
ATOM      9  C   UNL     1       5.803   4.269  17.064  0.00  0.00    +0.000 C 
ATOM     10  C   UNL     1       3.845   3.526  18.675  0.00  0.00    +0.000 C 
ATOM     11  C   UNL     1       2.882   2.511  18.026  0.00  0.00    +0.000 C 
ATOM     12  C   UNL     1       3.061   4.115  19.859  0.00  0.00    +0.000 C 
ATOM     13  O   UNL     1       2.718   3.445  20.840  0.00  0.00    +0.000 OA
ATOM     14  C   UNL     1       2.654   5.512  19.759  0.00  0.00    +0.000 C 
ATOM     15  C   UNL     1       1.877   6.178  20.624  0.00  0.00    +0.000 C 
ENDROOT
BRANCH  10  16
ATOM     16  O   UNL     1       4.951   2.805  19.246  0.00  0.00    +0.000 OA
ATOM     17  H   UNL     1       5.726   2.948  18.679  0.00  0.00    +0.000 HD
ENDBRANCH  10  16
BRANCH   3  18
ATOM     18  C   UNL     1       2.373   8.956  18.152  0.00  0.00    +0.000 C 
BRANCH  18  19
ATOM     19  C   UNL     1       1.122   9.808  18.257  0.00  0.00    +0.000 A 
ATOM     20  C   UNL     1       1.074  11.020  18.963  0.00  0.00    +0.000 A 
ATOM     21  C   UNL     1      -0.137  11.689  19.153  0.00  0.00    +0.000 A 
ATOM     22  C   UNL     1      -1.304  11.157  18.618  0.00  0.00    +0.000 A 
ATOM     23  C   UNL     1      -1.269  10.013  17.833  0.00  0.00    +0.000 A 
ATOM     24  C   UNL     1      -0.058   9.342  17.651  0.00  0.00    +0.000 A 
BRANCH  22  25
ATOM     25  O   UNL     1      -2.516  11.725  18.869  0.00  0.00    +0.000 OA
ATOM     26  H   UNL     1      -3.117  11.024  19.170  0.00  0.00    +0.000 HD
ENDBRANCH  22  25
ENDBRANCH  18  19
ENDBRANCH   3  18
TORSDOF 4
ENDMDL
MODEL 4
REMARK VINA RESULT:      -8.0      3.669      6.140
REMARK  Name = 
REMARK  7 active torsions:
REMARK  status: ('A' for Active; 'I' for Inactive)
REMARK    1  A    between atoms: C_1  and  C_2
REMARK    2  A    between atoms: C_3  and  C_4
REMARK    3  A    between atoms: C_4  and  C_5
REMARK    4  A    between atoms: C_8  and  O_9
REMARK    5  A    between atoms: C_13  and  C_14
REMARK    6  A    between atoms: C_18  and  C_19
REMARK    7  A    between atoms: C_18  and  O_20
REMARK                            x       y       z     vdW  Elec       q    Type
REMARK                         _______ _______ _______ _____ _____    ______ ____
ROOT
ATOM      1  C   UNL     1       6.330   4.095  14.841  0.00  0.00    +0.000 C 
ATOM      2  C   UNL     1       5.381   4.120  15.988  0.00  0.00    +0.000 C 
ATOM      3  C   UNL     1       4.809   5.174  16.629  0.00  0.00    +0.000 C 
ATOM      4  C   UNL     1       3.945   4.595  17.682  0.00  0.00    +0.000 C 
ATOM      5  C   UNL     1       3.059   5.133  18.555  0.00  0.00    +0.000 C 
ATOM      6  C   UNL     1       2.665   6.592  18.439  0.00  0.00    +0.000 C 
ATOM      7  C   UNL     1       2.388   4.294  19.655  0.00  0.00    +0.000 C 
ATOM      8  C   UNL     1       2.211   5.023  21.000  0.00  0.00    +0.000 C 
ATOM      9  C   UNL     1       1.009   4.742  20.167  0.00  0.00    +0.000 C 
ATOM     10  C   UNL     1       2.682   2.753  19.693  0.00  0.00    +0.000 C 
ATOM     11  C   UNL     1       3.487   2.333  20.939  0.00  0.00    +0.000 C 
ATOM     12  C   UNL     1       3.475   2.194  18.501  0.00  0.00    +0.000 C 
ATOM     13  O   UNL     1       3.620   0.984  18.297  0.00  0.00    +0.000 OA
ATOM     14  C   UNL     1       4.133   3.160  17.628  0.00  0.00    +0.000 C 
ATOM     15  C   UNL     1       4.956   2.878  16.609  0.00  0.00    +0.000 C 
ENDROOT
BRANCH  10  16
ATOM     16  O   UNL     1       1.426   2.052  19.703  0.00  0.00    +0.000 OA
ATOM     17  H   UNL     1       1.076   2.078  20.608  0.00  0.00    +0.000 HD
ENDBRANCH  10  16
BRANCH   3  18
ATOM     18  C   UNL     1       5.146   6.618  16.389  0.00  0.00    +0.000 C 
BRANCH  18  19
ATOM     19  C   UNL     1       6.364   7.164  17.110  0.00  0.00    +0.000 A 
ATOM     20  C   UNL     1       7.186   6.379  17.932  0.00  0.00    +0.000 A 
ATOM     21  C   UNL     1       8.204   6.961  18.690  0.00  0.00    +0.000 A 
ATOM     22  C   UNL     1       8.418   8.332  18.611  0.00  0.00    +0.000 A 
ATOM     23  C   UNL     1       7.684   9.116  17.732  0.00  0.00    +0.000 A 
ATOM     24  C   UNL     1       6.661   8.532  16.981  0.00  0.00    +0.000 A 
BRANCH  22  25
ATOM     25  O   UNL     1       9.332   8.950  19.410  0.00  0.00    +0.000 OA
ATOM     26  H   UNL     1       8.910   9.119  20.269  0.00  0.00    +0.000 HD
ENDBRANCH  22  25
ENDBRANCH  18  19
ENDBRANCH   3  18
TORSDOF 4
ENDMDL
MODEL 5
REMARK VINA RESULT:      -7.9      2.925      5.885
REMARK  Name = 
REMARK  7 active torsions:
REMARK  status: ('A' for Active; 'I' for Inactive)
REMARK    1  A    between atoms: C_1  and  C_2
REMARK    2  A    between atoms: C_3  and  C_4
REMARK    3  A    between atoms: C_4  and  C_5
REMARK    4  A    between atoms: C_8  and  O_9
REMARK    5  A    between atoms: C_13  and  C_14
REMARK    6  A    between atoms: C_18  and  C_19
REMARK    7  A    between atoms: C_18  and  O_20
REMARK                            x       y       z     vdW  Elec       q    Type
REMARK                         _______ _______ _______ _____ _____    ______ ____
ROOT
ATOM      1  C   UNL     1       2.685   8.602  17.633  0.00  0.00    +0.000 C 
ATOM      2  C   UNL     1       2.945   7.237  18.170  0.00  0.00    +0.000 C 
ATOM      3  C   UNL     1       4.066   6.471  18.108  0.00  0.00    +0.000 C 
ATOM      4  C   UNL     1       3.747   5.216  18.826  0.00  0.00    +0.000 C 
ATOM      5  C   UNL     1       4.486   4.136  19.181  0.00  0.00    +0.000 C 
ATOM      6  C   UNL     1       5.991   4.149  19.000  0.00  0.00    +0.000 C 
ATOM      7  C   UNL     1       3.849   2.888  19.815  0.00  0.00    +0.000 C 
ATOM      8  C   UNL     1       4.454   1.551  19.346  0.00  0.00    +0.000 C 
ATOM      9  C   UNL     1       4.724   2.018  20.734  0.00  0.00    +0.000 C 
ATOM     10  C   UNL     1       2.314   2.922  20.136  0.00  0.00    +0.000 C 
ATOM     11  C   UNL     1       1.503   1.944  19.263  0.00  0.00    +0.000 C 
ATOM     12  C   UNL     1       1.623   4.283  19.954  0.00  0.00    +0.000 C 
ATOM     13  O   UNL     1       0.472   4.511  20.342  0.00  0.00    +0.000 OA
ATOM     14  C   UNL     1       2.357   5.310  19.224  0.00  0.00    +0.000 C 
ATOM     15  C   UNL     1       1.894   6.515  18.865  0.00  0.00    +0.000 C 
ENDROOT
BRANCH  10  16
ATOM     16  O   UNL     1       2.131   2.561  21.516  0.00  0.00    +0.000 OA
ATOM     17  H   UNL     1       2.744   3.093  22.048  0.00  0.00    +0.000 HD
ENDBRANCH  10  16
BRANCH   3  18
ATOM     18  C   UNL     1       5.299   6.804  17.317  0.00  0.00    +0.000 C 
BRANCH  18  19
ATOM     19  C   UNL     1       5.713   5.810  16.248  0.00  0.00    +0.000 A 
ATOM     20  C   UNL     1       7.039   5.657  15.814  0.00  0.00    +0.000 A 
ATOM     21  C   UNL     1       7.343   4.837  14.725  0.00  0.00    +0.000 A 
ATOM     22  C   UNL     1       6.323   4.149  14.079  0.00  0.00    +0.000 A 
ATOM     23  C   UNL     1       5.019   4.206  14.550  0.00  0.00    +0.000 A 
ATOM     24  C   UNL     1       4.716   5.034  15.633  0.00  0.00    +0.000 A 
BRANCH  22  25
ATOM     25  O   UNL     1       6.567   3.422  12.953  0.00  0.00    +0.000 OA
ATOM     26  H   UNL     1       7.432   3.694  12.605  0.00  0.00    +0.000 HD
ENDBRANCH  22  25
ENDBRANCH  18  19
ENDBRANCH   3  18
TORSDOF 4
ENDMDL
MODEL 6
REMARK VINA RESULT:      -7.5      4.918      7.393
REMARK  Name = 
REMARK  7 active torsions:
REMARK  status: ('A' for Active; 'I' for Inactive)
REMARK    1  A    between atoms: C_1  and  C_2
REMARK    2  A    between atoms: C_3  and  C_4
REMARK    3  A    between atoms: C_4  and  C_5
REMARK    4  A    between atoms: C_8  and  O_9
REMARK    5  A    between atoms: C_13  and  C_14
REMARK    6  A    between atoms: C_18  and  C_19
REMARK    7  A    between atoms: C_18  and  O_20
REMARK                            x       y       z     vdW  Elec       q    Type
REMARK                         _______ _______ _______ _____ _____    ______ ____
ROOT
ATOM      1  C   UNL     1      -4.213  13.099  23.921  0.00  0.00    +0.000 C 
ATOM      2  C   UNL     1      -3.172  12.523  23.023  0.00  0.00    +0.000 C 
ATOM      3  C   UNL     1      -3.020  12.633  21.677  0.00  0.00    +0.000 C 
ATOM      4  C   UNL     1      -1.803  11.862  21.336  0.00  0.00    +0.000 C 
ATOM      5  C   UNL     1      -1.100  11.695  20.189  0.00  0.00    +0.000 C 
ATOM      6  C   UNL     1      -1.431  12.527  18.965  0.00  0.00    +0.000 C 
ATOM      7  C   UNL     1       0.074  10.707  20.090  0.00  0.00    +0.000 C 
ATOM      8  C   UNL     1       0.162   9.949  18.752  0.00  0.00    +0.000 C 
ATOM      9  C   UNL     1       1.177  10.995  19.058  0.00  0.00    +0.000 C 
ATOM     10  C   UNL     1       0.512   9.947  21.391  0.00  0.00    +0.000 C 
ATOM     11  C   UNL     1       0.237   8.432  21.314  0.00  0.00    +0.000 C 
ATOM     12  C   UNL     1      -0.161  10.407  22.694  0.00  0.00    +0.000 C 
ATOM     13  O   UNL     1       0.213  10.037  23.812  0.00  0.00    +0.000 OA
ATOM     14  C   UNL     1      -1.337  11.261  22.569  0.00  0.00    +0.000 C 
ATOM     15  C   UNL     1      -2.126  11.677  23.569  0.00  0.00    +0.000 C 
ENDROOT
BRANCH  10  16
ATOM     16  O   UNL     1       1.925  10.146  21.577  0.00  0.00    +0.000 OA
ATOM     17  H   UNL     1       2.043  10.826  22.259  0.00  0.00    +0.000 HD
ENDBRANCH  10  16
BRANCH   3  18
ATOM     18  C   UNL     1      -4.006  13.278  20.744  0.00  0.00    +0.000 C 
BRANCH  18  19
ATOM     19  C   UNL     1      -5.082  12.380  20.161  0.00  0.00    +0.000 A 
ATOM     20  C   UNL     1      -6.248  12.028  20.857  0.00  0.00    +0.000 A 
ATOM     21  C   UNL     1      -7.133  11.081  20.335  0.00  0.00    +0.000 A 
ATOM     22  C   UNL     1      -6.864  10.501  19.102  0.00  0.00    +0.000 A 
ATOM     23  C   UNL     1      -5.771  10.904  18.349  0.00  0.00    +0.000 A 
ATOM     24  C   UNL     1      -4.883  11.844  18.877  0.00  0.00    +0.000 A 
BRANCH  22  25
ATOM     25  O   UNL     1      -7.648   9.502  18.609  0.00  0.00    +0.000 OA
ATOM     26  H   UNL     1      -8.316   9.905  18.031  0.00  0.00    +0.000 HD
ENDBRANCH  22  25
ENDBRANCH  18  19
ENDBRANCH   3  18
TORSDOF 4
ENDMDL
MODEL 7
REMARK VINA RESULT:      -7.4      3.694      6.154
REMARK  Name = 
REMARK  7 active torsions:
REMARK  status: ('A' for Active; 'I' for Inactive)
REMARK    1  A    between atoms: C_1  and  C_2
REMARK    2  A    between atoms: C_3  and  C_4
REMARK    3  A    between atoms: C_4  and  C_5
REMARK    4  A    between atoms: C_8  and  O_9
REMARK    5  A    between atoms: C_13  and  C_14
REMARK    6  A    between atoms: C_18  and  C_19
REMARK    7  A    between atoms: C_18  and  O_20
REMARK                            x       y       z     vdW  Elec       q    Type
REMARK                         _______ _______ _______ _____ _____    ______ ____
ROOT
ATOM      1  C   UNL     1       6.324   3.959  14.664  0.00  0.00    +0.000 C 
ATOM      2  C   UNL     1       5.394   4.023  15.826  0.00  0.00    +0.000 C 
ATOM      3  C   UNL     1       4.837   5.098  16.444  0.00  0.00    +0.000 C 
ATOM      4  C   UNL     1       3.988   4.556  17.529  0.00  0.00    +0.000 C 
ATOM      5  C   UNL     1       3.119   5.125  18.399  0.00  0.00    +0.000 C 
ATOM      6  C   UNL     1       2.728   6.581  18.245  0.00  0.00    +0.000 C 
ATOM      7  C   UNL     1       2.463   4.322  19.535  0.00  0.00    +0.000 C 
ATOM      8  C   UNL     1       2.311   5.093  20.860  0.00  0.00    +0.000 C 
ATOM      9  C   UNL     1       1.094   4.792  20.056  0.00  0.00    +0.000 C 
ATOM     10  C   UNL     1       2.752   2.782  19.615  0.00  0.00    +0.000 C 
ATOM     11  C   UNL     1       3.576   2.396  20.860  0.00  0.00    +0.000 C 
ATOM     12  C   UNL     1       3.522   2.184  18.427  0.00  0.00    +0.000 C 
ATOM     13  O   UNL     1       3.660   0.967  18.259  0.00  0.00    +0.000 OA
ATOM     14  C   UNL     1       4.170   3.119  17.515  0.00  0.00    +0.000 C 
ATOM     15  C   UNL     1       4.974   2.803  16.491  0.00  0.00    +0.000 C 
ENDROOT
BRANCH  10  16
ATOM     16  O   UNL     1       1.493   2.087  19.668  0.00  0.00    +0.000 OA
ATOM     17  H   UNL     1       1.429   1.525  18.879  0.00  0.00    +0.000 HD
ENDBRANCH  10  16
BRANCH   3  18
ATOM     18  C   UNL     1       5.175   6.533  16.154  0.00  0.00    +0.000 C 
BRANCH  18  19
ATOM     19  C   UNL     1       6.208   7.186  17.053  0.00  0.00    +0.000 A 
ATOM     20  C   UNL     1       6.462   8.566  17.057  0.00  0.00    +0.000 A 
ATOM     21  C   UNL     1       7.524   9.095  17.793  0.00  0.00    +0.000 A 
ATOM     22  C   UNL     1       8.324   8.246  18.549  0.00  0.00    +0.000 A 
ATOM     23  C   UNL     1       8.034   6.892  18.640  0.00  0.00    +0.000 A 
ATOM     24  C   UNL     1       6.977   6.364  17.896  0.00  0.00    +0.000 A 
BRANCH  22  25
ATOM     25  O   UNL     1       9.428   8.710  19.196  0.00  0.00    +0.000 OA
ATOM     26  H   UNL     1       9.162   8.965  20.095  0.00  0.00    +0.000 HD
ENDBRANCH  22  25
ENDBRANCH  18  19
ENDBRANCH   3  18
TORSDOF 4
ENDMDL
MODEL 8
REMARK VINA RESULT:      -7.3      5.587     10.097
REMARK  Name = 
REMARK  7 active torsions:
REMARK  status: ('A' for Active; 'I' for Inactive)
REMARK    1  A    between atoms: C_1  and  C_2
REMARK    2  A    between atoms: C_3  and  C_4
REMARK    3  A    between atoms: C_4  and  C_5
REMARK    4  A    between atoms: C_8  and  O_9
REMARK    5  A    between atoms: C_13  and  C_14
REMARK    6  A    between atoms: C_18  and  C_19
REMARK    7  A    between atoms: C_18  and  O_20
REMARK                            x       y       z     vdW  Elec       q    Type
REMARK                         _______ _______ _______ _____ _____    ______ ____
ROOT
ATOM      1  C   UNL     1      -2.128  10.080  16.853  0.00  0.00    +0.000 C 
ATOM      2  C   UNL     1      -3.008  10.862  17.766  0.00  0.00    +0.000 C 
ATOM      3  C   UNL     1      -2.686  11.760  18.735  0.00  0.00    +0.000 C 
ATOM      4  C   UNL     1      -3.970  12.226  19.305  0.00  0.00    +0.000 C 
ATOM      5  C   UNL     1      -4.290  13.182  20.212  0.00  0.00    +0.000 C 
ATOM      6  C   UNL     1      -3.230  14.144  20.712  0.00  0.00    +0.000 C 
ATOM      7  C   UNL     1      -5.726  13.363  20.731  0.00  0.00    +0.000 C 
ATOM      8  C   UNL     1      -5.827  13.713  22.227  0.00  0.00    +0.000 C 
ATOM      9  C   UNL     1      -6.149  14.759  21.217  0.00  0.00    +0.000 C 
ATOM     10  C   UNL     1      -6.855  12.465  20.113  0.00  0.00    +0.000 C 
ATOM     11  C   UNL     1      -7.438  11.461  21.128  0.00  0.00    +0.000 C 
ATOM     12  C   UNL     1      -6.442  11.612  18.902  0.00  0.00    +0.000 C 
ATOM     13  O   UNL     1      -7.256  11.003  18.200  0.00  0.00    +0.000 OA
ATOM     14  C   UNL     1      -5.014  11.475  18.640  0.00  0.00    +0.000 C 
ATOM     15  C   UNL     1      -4.448  10.694  17.710  0.00  0.00    +0.000 C 
ENDROOT
BRANCH  10  16
ATOM     16  O   UNL     1      -7.916  13.322  19.656  0.00  0.00    +0.000 OA
ATOM     17  H   UNL     1      -8.747  12.825  19.714  0.00  0.00    +0.000 HD
ENDBRANCH  10  16
BRANCH   3  18
ATOM     18  C   UNL     1      -1.292  12.061  19.207  0.00  0.00    +0.000 C 
BRANCH  18  19
ATOM     19  C   UNL     1      -0.821  11.332  20.452  0.00  0.00    +0.000 A 
ATOM     20  C   UNL     1      -0.210  10.069  20.419  0.00  0.00    +0.000 A 
ATOM     21  C   UNL     1       0.068   9.379  21.600  0.00  0.00    +0.000 A 
ATOM     22  C   UNL     1      -0.245   9.960  22.823  0.00  0.00    +0.000 A 
ATOM     23  C   UNL     1      -0.758  11.248  22.887  0.00  0.00    +0.000 A 
ATOM     24  C   UNL     1      -1.043  11.933  21.703  0.00  0.00    +0.000 A 
BRANCH  22  25
ATOM     25  O   UNL     1      -0.084   9.276  23.989  0.00  0.00    +0.000 OA
ATOM     26  H   UNL     1      -0.926   8.840  24.198  0.00  0.00    +0.000 HD
ENDBRANCH  22  25
ENDBRANCH  18  19
ENDBRANCH   3  18
TORSDOF 4
ENDMDL
MODEL 9
REMARK VINA RESULT:      -7.3      2.975      8.961
REMARK  Name = 
REMARK  7 active torsions:
REMARK  status: ('A' for Active; 'I' for Inactive)
REMARK    1  A    between atoms: C_1  and  C_2
REMARK    2  A    between atoms: C_3  and  C_4
REMARK    3  A    between atoms: C_4  and  C_5
REMARK    4  A    between atoms: C_8  and  O_9
REMARK    5  A    between atoms: C_13  and  C_14
REMARK    6  A    between atoms: C_18  and  C_19
REMARK    7  A    between atoms: C_18  and  O_20
REMARK                            x       y       z     vdW  Elec       q    Type
REMARK                         _______ _______ _______ _____ _____    ______ ____
ROOT
ATOM      1  C   UNL     1      -1.843  10.054  16.880  0.00  0.00    +0.000 C 
ATOM      2  C   UNL     1      -1.836  10.961  18.062  0.00  0.00    +0.000 C 
ATOM      3  C   UNL     1      -0.791  11.488  18.755  0.00  0.00    +0.000 C 
ATOM      4  C   UNL     1      -1.386  12.325  19.821  0.00  0.00    +0.000 C 
ATOM      5  C   UNL     1      -0.857  13.168  20.742  0.00  0.00    +0.000 C 
ATOM      6  C   UNL     1       0.612  13.536  20.684  0.00  0.00    +0.000 C 
ATOM      7  C   UNL     1      -1.717  13.816  21.840  0.00  0.00    +0.000 C 
ATOM      8  C   UNL     1      -1.026  13.929  23.212  0.00  0.00    +0.000 C 
ATOM      9  C   UNL     1      -1.259  15.166  22.416  0.00  0.00    +0.000 C 
ATOM     10  C   UNL     1      -3.264  13.551  21.821  0.00  0.00    +0.000 C 
ATOM     11  C   UNL     1      -3.737  12.710  23.023  0.00  0.00    +0.000 C 
ATOM     12  C   UNL     1      -3.801  12.814  20.584  0.00  0.00    +0.000 C 
ATOM     13  O   UNL     1      -5.007  12.700  20.339  0.00  0.00    +0.000 OA
ATOM     14  C   UNL     1      -2.822  12.167  19.717  0.00  0.00    +0.000 C 
ATOM     15  C   UNL     1      -3.087  11.388  18.660  0.00  0.00    +0.000 C 
ENDROOT
BRANCH  10  16
ATOM     16  O   UNL     1      -3.941  14.820  21.856  0.00  0.00    +0.000 OA
ATOM     17  H   UNL     1      -4.274  15.006  20.964  0.00  0.00    +0.000 HD
ENDBRANCH  10  16
BRANCH   3  18
ATOM     18  C   UNL     1       0.653  11.131  18.546  0.00  0.00    +0.000 C 
BRANCH  18  19
ATOM     19  C   UNL     1       1.090   9.754  19.012  0.00  0.00    +0.000 A 
ATOM     20  C   UNL     1       0.864   9.275  20.310  0.00  0.00    +0.000 A 
ATOM     21  C   UNL     1       1.417   8.063  20.731  0.00  0.00    +0.000 A 
ATOM     22  C   UNL     1       2.181   7.315  19.844  0.00  0.00    +0.000 A 
ATOM     23  C   UNL     1       2.338   7.718  18.526  0.00  0.00    +0.000 A 
ATOM     24  C   UNL     1       1.791   8.934  18.110  0.00  0.00    +0.000 A 
BRANCH  22  25
ATOM     25  O   UNL     1       2.820   6.182  20.248  0.00  0.00    +0.000 OA
ATOM     26  H   UNL     1       3.470   6.432  20.926  0.00  0.00    +0.000 HD
ENDBRANCH  22  25
ENDBRANCH  18  19
ENDBRANCH   3  18
TORSDOF 4
ENDMDL
