MODEL 1
REMARK VINA RESULT:      -7.7      0.000      0.000
REMARK  Name = 
REMARK  6 active torsions:
REMARK  status: ('A' for Active; 'I' for Inactive)
REMARK    1  A    between atoms: C_1  and  C_2
REMARK    2  A    between atoms: C_6  and  C_7
REMARK    3  A    between atoms: N_9  and  O_10
REMARK    4  A    between atoms: O_10  and  C_11
REMARK    5  A    between atoms: C_11  and  C_13
REMARK    6  A    between atoms: C_17  and  C_18
REMARK                            x       y       z     vdW  Elec       q    Type
REMARK                         _______ _______ _______ _____ _____    ______ ____
ROOT
ATOM      1  C   UNL     1       3.007   5.775  18.892  0.00  0.00    +0.000 C 
ATOM      2  N   UNL     1       2.584   4.932  17.996  0.00  0.00    +0.000 NA
ATOM      3  N   UNL     1       4.007   5.422  19.774  0.00  0.00    +0.000 N 
ATOM      4  H   UNL     1       1.854   5.337  17.407  0.00  0.00    +0.000 HD
ATOM      5  H   UNL     1       4.435   6.139  20.358  0.00  0.00    +0.000 HD
ENDROOT
BRANCH   1  11
ATOM      6  C   UNL     1       0.716   9.352  21.612  0.00  0.00    +0.000 C 
ATOM      7  C   UNL     1       1.296   8.883  20.308  0.00  0.00    +0.000 A 
ATOM      8  C   UNL     1       1.295   9.721  19.186  0.00  0.00    +0.000 A 
ATOM      9  C   UNL     1       1.836   9.279  17.978  0.00  0.00    +0.000 A 
ATOM     10  C   UNL     1       2.379   7.996  17.879  0.00  0.00    +0.000 A 
ATOM     11  C   UNL     1       2.395   7.147  18.993  0.00  0.00    +0.000 A 
ATOM     12  C   UNL     1       1.852   7.597  20.207  0.00  0.00    +0.000 A 
ENDBRANCH   1  11
BRANCH   3  13
ATOM     13  O   UNL     1       4.950   4.522  19.224  0.00  0.00    +0.000 OA
BRANCH  13  14
ATOM     14  C   UNL     1       6.185   5.106  19.069  0.00  0.00    +0.000 C 
ATOM     15  O   UNL     1       6.869   5.462  20.026  0.00  0.00    +0.000 OA
BRANCH  14  16
ATOM     16  C   UNL     1       6.616   5.258  17.688  0.00  0.00    +0.000 A 
ATOM     17  C   UNL     1       6.503   4.276  16.653  0.00  0.00    +0.000 A 
ATOM     18  C   UNL     1       7.021   4.839  15.511  0.00  0.00    +0.000 A 
ATOM     19  O   UNL     1       7.455   6.096  15.766  0.00  0.00    +0.000 OA
ATOM     20  C   UNL     1       7.215   6.353  17.084  0.00  0.00    +0.000 A 
ATOM     21  C   UNL     1       7.642   7.689  17.558  0.00  0.00    +0.000 C 
ENDBRANCH  14  16
ENDBRANCH  13  14
ENDBRANCH   3  13
TORSDOF 4
ENDMDL
MODEL 2
REMARK VINA RESULT:      -7.5      1.035      1.171
REMARK  Name = 
REMARK  6 active torsions:
REMARK  status: ('A' for Active; 'I' for Inactive)
REMARK    1  A    between atoms: C_1  and  C_2
REMARK    2  A    between atoms: C_6  and  C_7
REMARK    3  A    between atoms: N_9  and  O_10
REMARK    4  A    between atoms: O_10  and  C_11
REMARK    5  A    between atoms: C_11  and  C_13
REMARK    6  A    between atoms: C_17  and  C_18
REMARK                            x       y       z     vdW  Elec       q    Type
REMARK                         _______ _______ _______ _____ _____    ______ ____
ROOT
ATOM      1  C   UNL     1       2.948   6.430  19.387  0.00  0.00    +0.000 C 
ATOM      2  N   UNL     1       2.859   5.621  20.402  0.00  0.00    +0.000 NA
ATOM      3  N   UNL     1       3.824   6.170  18.354  0.00  0.00    +0.000 N 
ATOM      4  H   UNL     1       2.161   5.935  21.079  0.00  0.00    +0.000 HD
ATOM      5  H   UNL     1       3.766   6.721  17.499  0.00  0.00    +0.000 HD
ENDROOT
BRANCH   1  11
ATOM      6  C   UNL     1       0.003   9.819  21.686  0.00  0.00    +0.000 C 
ATOM      7  C   UNL     1       0.691   9.325  20.446  0.00  0.00    +0.000 A 
ATOM      8  C   UNL     1       0.578  10.028  19.240  0.00  0.00    +0.000 A 
ATOM      9  C   UNL     1       1.219   9.563  18.092  0.00  0.00    +0.000 A 
ATOM     10  C   UNL     1       1.977   8.391  18.136  0.00  0.00    +0.000 A 
ATOM     11  C   UNL     1       2.108   7.678  19.335  0.00  0.00    +0.000 A 
ATOM     12  C   UNL     1       1.462   8.151  20.488  0.00  0.00    +0.000 A 
ENDBRANCH   1  11
BRANCH   3  13
ATOM     13  O   UNL     1       4.010   4.789  18.109  0.00  0.00    +0.000 OA
BRANCH  13  14
ATOM     14  C   UNL     1       5.338   4.436  18.158  0.00  0.00    +0.000 C 
ATOM     15  O   UNL     1       5.843   3.909  19.147  0.00  0.00    +0.000 OA
BRANCH  14  16
ATOM     16  C   UNL     1       6.089   4.727  16.946  0.00  0.00    +0.000 A 
ATOM     17  C   UNL     1       6.068   3.966  15.735  0.00  0.00    +0.000 A 
ATOM     18  C   UNL     1       6.910   4.600  14.851  0.00  0.00    +0.000 A 
ATOM     19  O   UNL     1       7.457   5.694  15.432  0.00  0.00    +0.000 OA
ATOM     20  C   UNL     1       6.966   5.773  16.702  0.00  0.00    +0.000 A 
ATOM     21  C   UNL     1       7.469   6.909  17.508  0.00  0.00    +0.000 C 
ENDBRANCH  14  16
ENDBRANCH  13  14
ENDBRANCH   3  13
TORSDOF 4
ENDMDL
MODEL 3
REMARK VINA RESULT:      -7.4      2.503      4.097
REMARK  Name = 
REMARK  6 active torsions:
REMARK  status: ('A' for Active; 'I' for Inactive)
REMARK    1  A    between atoms: C_1  and  C_2
REMARK    2  A    between atoms: C_6  and  C_7
REMARK    3  A    between atoms: N_9  and  O_10
REMARK    4  A    between atoms: O_10  and  C_11
REMARK    5  A    between atoms: C_11  and  C_13
REMARK    6  A    between atoms: C_17  and  C_18
REMARK                            x       y       z     vdW  Elec       q    Type
REMARK                         _______ _______ _______ _____ _____    ______ ____
ROOT
ATOM      1  C   UNL     1       2.769   6.068  18.790  0.00  0.00    +0.000 C 
ATOM      2  N   UNL     1       2.909   6.975  19.712  0.00  0.00    +0.000 NA
ATOM      3  N   UNL     1       3.192   6.306  17.499  0.00  0.00    +0.000 N 
ATOM      4  H   UNL     1       2.565   6.653  20.619  0.00  0.00    +0.000 HD
ATOM      5  H   UNL     1       3.223   5.536  16.833  0.00  0.00    +0.000 HD
ENDROOT
BRANCH   1  11
ATOM      6  C   UNL     1       1.492   2.534  22.155  0.00  0.00    +0.000 C 
ATOM      7  C   UNL     1       1.495   3.041  20.741  0.00  0.00    +0.000 A 
ATOM      8  C   UNL     1       0.881   2.306  19.720  0.00  0.00    +0.000 A 
ATOM      9  C   UNL     1       0.887   2.782  18.409  0.00  0.00    +0.000 A 
ATOM     10  C   UNL     1       1.510   3.995  18.105  0.00  0.00    +0.000 A 
ATOM     11  C   UNL     1       2.123   4.748  19.115  0.00  0.00    +0.000 A 
ATOM     12  C   UNL     1       2.113   4.265  20.433  0.00  0.00    +0.000 A 
ENDBRANCH   1  11
BRANCH   3  13
ATOM     13  O   UNL     1       4.328   7.147  17.425  0.00  0.00    +0.000 OA
BRANCH  13  14
ATOM     14  C   UNL     1       5.189   6.755  16.427  0.00  0.00    +0.000 C 
ATOM     15  O   UNL     1       5.057   7.122  15.262  0.00  0.00    +0.000 OA
BRANCH  14  16
ATOM     16  C   UNL     1       6.270   5.884  16.865  0.00  0.00    +0.000 A 
ATOM     17  C   UNL     1       6.864   5.862  18.166  0.00  0.00    +0.000 A 
ATOM     18  C   UNL     1       7.833   4.887  18.146  0.00  0.00    +0.000 A 
ATOM     19  O   UNL     1       7.887   4.309  16.922  0.00  0.00    +0.000 OA
ATOM     20  C   UNL     1       6.944   4.912  16.142  0.00  0.00    +0.000 A 
ATOM     21  C   UNL     1       6.864   4.420  14.748  0.00  0.00    +0.000 C 
ENDBRANCH  14  16
ENDBRANCH  13  14
ENDBRANCH   3  13
TORSDOF 4
ENDMDL
MODEL 4
REMARK VINA RESULT:      -7.3      3.023      7.157
REMARK  Name = 
REMARK  6 active torsions:
REMARK  status: ('A' for Active; 'I' for Inactive)
REMARK    1  A    between atoms: C_1  and  C_2
REMARK    2  A    between atoms: C_6  and  C_7
REMARK    3  A    between atoms: N_9  and  O_10
REMARK    4  A    between atoms: O_10  and  C_11
REMARK    5  A    between atoms: C_11  and  C_13
REMARK    6  A    between atoms: C_17  and  C_18
REMARK                            x       y       z     vdW  Elec       q    Type
REMARK                         _______ _______ _______ _____ _____    ______ ____
ROOT
ATOM      1  C   UNL     1       6.650   4.323  16.257  0.00  0.00    +0.000 C 
ATOM      2  N   UNL     1       7.639   4.707  17.009  0.00  0.00    +0.000 NA
ATOM      3  N   UNL     1       5.476   3.866  16.817  0.00  0.00    +0.000 N 
ATOM      4  H   UNL     1       8.435   5.032  16.456  0.00  0.00    +0.000 HD
ATOM      5  H   UNL     1       4.660   3.723  16.223  0.00  0.00    +0.000 HD
ENDROOT
BRANCH   1  11
ATOM      6  C   UNL     1       5.146   2.757  11.704  0.00  0.00    +0.000 C 
ATOM      7  C   UNL     1       6.048   3.606  12.553  0.00  0.00    +0.000 A 
ATOM      8  C   UNL     1       6.999   4.446  11.962  0.00  0.00    +0.000 A 
ATOM      9  C   UNL     1       7.835   5.231  12.756  0.00  0.00    +0.000 A 
ATOM     10  C   UNL     1       7.730   5.182  14.148  0.00  0.00    +0.000 A 
ATOM     11  C   UNL     1       6.780   4.353  14.757  0.00  0.00    +0.000 A 
ATOM     12  C   UNL     1       5.941   3.566  13.953  0.00  0.00    +0.000 A 
ENDBRANCH   1  11
BRANCH   3  13
ATOM     13  O   UNL     1       5.160   4.489  18.047  0.00  0.00    +0.000 OA
BRANCH  13  14
ATOM     14  C   UNL     1       3.981   5.193  17.976  0.00  0.00    +0.000 C 
ATOM     15  O   UNL     1       3.851   6.188  17.267  0.00  0.00    +0.000 OA
BRANCH  14  16
ATOM     16  C   UNL     1       2.905   4.660  18.798  0.00  0.00    +0.000 A 
ATOM     17  C   UNL     1       2.300   5.306  19.922  0.00  0.00    +0.000 A 
ATOM     18  C   UNL     1       1.325   4.458  20.392  0.00  0.00    +0.000 A 
ATOM     19  O   UNL     1       1.288   3.329  19.644  0.00  0.00    +0.000 OA
ATOM     20  C   UNL     1       2.246   3.446  18.679  0.00  0.00    +0.000 A 
ATOM     21  C   UNL     1       2.370   2.289  17.764  0.00  0.00    +0.000 C 
ENDBRANCH  14  16
ENDBRANCH  13  14
ENDBRANCH   3  13
TORSDOF 4
ENDMDL
MODEL 5
REMARK VINA RESULT:      -7.3      3.168      5.940
REMARK  Name = 
REMARK  6 active torsions:
REMARK  status: ('A' for Active; 'I' for Inactive)
REMARK    1  A    between atoms: C_1  and  C_2
REMARK    2  A    between atoms: C_6  and  C_7
REMARK    3  A    between atoms: N_9  and  O_10
REMARK    4  A    between atoms: O_10  and  C_11
REMARK    5  A    between atoms: C_11  and  C_13
REMARK    6  A    between atoms: C_17  and  C_18
REMARK                            x       y       z     vdW  Elec       q    Type
REMARK                         _______ _______ _______ _____ _____    ______ ____
ROOT
ATOM      1  C   UNL     1       4.690   3.060  18.449  0.00  0.00    +0.000 C 
ATOM      2  N   UNL     1       5.119   2.603  19.588  0.00  0.00    +0.000 NA
ATOM      3  N   UNL     1       3.699   2.399  17.754  0.00  0.00    +0.000 N 
ATOM      4  H   UNL     1       5.842   3.203  19.991  0.00  0.00    +0.000 HD
ATOM      5  H   UNL     1       3.264   2.852  16.950  0.00  0.00    +0.000 HD
ENDROOT
BRANCH   1  11
ATOM      6  C   UNL     1       8.055   6.813  18.639  0.00  0.00    +0.000 C 
ATOM      7  C   UNL     1       6.918   6.122  17.943  0.00  0.00    +0.000 A 
ATOM      8  C   UNL     1       6.416   6.619  16.734  0.00  0.00    +0.000 A 
ATOM      9  C   UNL     1       5.359   5.973  16.092  0.00  0.00    +0.000 A 
ATOM     10  C   UNL     1       4.791   4.827  16.654  0.00  0.00    +0.000 A 
ATOM     11  C   UNL     1       5.285   4.312  17.859  0.00  0.00    +0.000 A 
ATOM     12  C   UNL     1       6.349   4.964  18.500  0.00  0.00    +0.000 A 
ENDBRANCH   1  11
BRANCH   3  13
ATOM     13  O   UNL     1       2.765   1.746  18.591  0.00  0.00    +0.000 OA
BRANCH  13  14
ATOM     14  C   UNL     1       1.616   2.484  18.749  0.00  0.00    +0.000 C 
ATOM     15  O   UNL     1       0.539   2.136  18.269  0.00  0.00    +0.000 OA
BRANCH  14  16
ATOM     16  C   UNL     1       1.777   3.698  19.536  0.00  0.00    +0.000 A 
ATOM     17  C   UNL     1       1.808   5.036  19.030  0.00  0.00    +0.000 A 
ATOM     18  C   UNL     1       1.965   5.868  20.112  0.00  0.00    +0.000 A 
ATOM     19  O   UNL     1       2.042   5.141  21.252  0.00  0.00    +0.000 OA
ATOM     20  C   UNL     1       1.932   3.825  20.907  0.00  0.00    +0.000 A 
ATOM     21  C   UNL     1       2.012   2.866  22.032  0.00  0.00    +0.000 C 
ENDBRANCH  14  16
ENDBRANCH  13  14
ENDBRANCH   3  13
TORSDOF 4
ENDMDL
MODEL 6
REMARK VINA RESULT:      -7.3      3.235      5.966
REMARK  Name = 
REMARK  6 active torsions:
REMARK  status: ('A' for Active; 'I' for Inactive)
REMARK    1  A    between atoms: C_1  and  C_2
REMARK    2  A    between atoms: C_6  and  C_7
REMARK    3  A    between atoms: N_9  and  O_10
REMARK    4  A    between atoms: O_10  and  C_11
REMARK    5  A    between atoms: C_11  and  C_13
REMARK    6  A    between atoms: C_17  and  C_18
REMARK                            x       y       z     vdW  Elec       q    Type
REMARK                         _______ _______ _______ _____ _____    ______ ____
ROOT
ATOM      1  C   UNL     1       3.672   5.836  18.756  0.00  0.00    +0.000 C 
ATOM      2  N   UNL     1       2.662   6.356  18.124  0.00  0.00    +0.000 NA
ATOM      3  N   UNL     1       3.654   5.709  20.129  0.00  0.00    +0.000 N 
ATOM      4  H   UNL     1       2.812   6.372  17.113  0.00  0.00    +0.000 HD
ATOM      5  H   UNL     1       4.376   5.157  20.590  0.00  0.00    +0.000 HD
ENDROOT
BRANCH   1  11
ATOM      6  C   UNL     1       5.807   4.181  14.496  0.00  0.00    +0.000 C 
ATOM      7  C   UNL     1       5.929   4.591  15.936  0.00  0.00    +0.000 A 
ATOM      8  C   UNL     1       7.172   4.576  16.577  0.00  0.00    +0.000 A 
ATOM      9  C   UNL     1       7.278   4.958  17.915  0.00  0.00    +0.000 A 
ATOM     10  C   UNL     1       6.143   5.354  18.625  0.00  0.00    +0.000 A 
ATOM     11  C   UNL     1       4.891   5.382  17.997  0.00  0.00    +0.000 A 
ATOM     12  C   UNL     1       4.789   4.998  16.651  0.00  0.00    +0.000 A 
ENDBRANCH   1  11
BRANCH   3  13
ATOM     13  O   UNL     1       2.361   5.475  20.655  0.00  0.00    +0.000 OA
BRANCH  13  14
ATOM     14  C   UNL     1       2.208   4.175  21.076  0.00  0.00    +0.000 C 
ATOM     15  O   UNL     1       2.321   3.848  22.255  0.00  0.00    +0.000 OA
BRANCH  14  16
ATOM     16  C   UNL     1       1.893   3.227  20.018  0.00  0.00    +0.000 A 
ATOM     17  C   UNL     1       0.603   3.001  19.441  0.00  0.00    +0.000 A 
ATOM     18  C   UNL     1       0.761   2.035  18.476  0.00  0.00    +0.000 A 
ATOM     19  O   UNL     1       2.055   1.640  18.419  0.00  0.00    +0.000 OA
ATOM     20  C   UNL     1       2.744   2.357  19.354  0.00  0.00    +0.000 A 
ATOM     21  C   UNL     1       4.188   2.048  19.454  0.00  0.00    +0.000 C 
ENDBRANCH  14  16
ENDBRANCH  13  14
ENDBRANCH   3  13
TORSDOF 4
ENDMDL
MODEL 7
REMARK VINA RESULT:      -7.3      2.969      7.025
REMARK  Name = 
REMARK  6 active torsions:
REMARK  status: ('A' for Active; 'I' for Inactive)
REMARK    1  A    between atoms: C_1  and  C_2
REMARK    2  A    between atoms: C_6  and  C_7
REMARK    3  A    between atoms: N_9  and  O_10
REMARK    4  A    between atoms: O_10  and  C_11
REMARK    5  A    between atoms: C_11  and  C_13
REMARK    6  A    between atoms: C_17  and  C_18
REMARK                            x       y       z     vdW  Elec       q    Type
REMARK                         _______ _______ _______ _____ _____    ______ ____
ROOT
ATOM      1  C   UNL     1       6.853   4.963  16.001  0.00  0.00    +0.000 C 
ATOM      2  N   UNL     1       7.374   6.034  16.524  0.00  0.00    +0.000 NA
ATOM      3  N   UNL     1       6.232   4.022  16.795  0.00  0.00    +0.000 N 
ATOM      4  H   UNL     1       7.785   6.644  15.815  0.00  0.00    +0.000 HD
ATOM      5  H   UNL     1       5.692   3.276  16.357  0.00  0.00    +0.000 HD
ENDROOT
BRANCH   1  11
ATOM      6  C   UNL     1       5.286   2.541  11.864  0.00  0.00    +0.000 C 
ATOM      7  C   UNL     1       6.175   3.563  12.512  0.00  0.00    +0.000 A 
ATOM      8  C   UNL     1       7.071   4.316  11.744  0.00  0.00    +0.000 A 
ATOM      9  C   UNL     1       7.895   5.264  12.353  0.00  0.00    +0.000 A 
ATOM     10  C   UNL     1       7.833   5.465  13.733  0.00  0.00    +0.000 A 
ATOM     11  C   UNL     1       6.938   4.725  14.516  0.00  0.00    +0.000 A 
ATOM     12  C   UNL     1       6.110   3.774  13.900  0.00  0.00    +0.000 A 
ENDBRANCH   1  11
BRANCH   3  13
ATOM     13  O   UNL     1       5.591   4.577  17.927  0.00  0.00    +0.000 OA
BRANCH  13  14
ATOM     14  C   UNL     1       4.329   5.034  17.627  0.00  0.00    +0.000 C 
ATOM     15  O   UNL     1       4.137   6.087  17.023  0.00  0.00    +0.000 OA
BRANCH  14  16
ATOM     16  C   UNL     1       3.247   4.169  18.073  0.00  0.00    +0.000 A 
ATOM     17  C   UNL     1       2.889   2.904  17.508  0.00  0.00    +0.000 A 
ATOM     18  C   UNL     1       1.825   2.428  18.237  0.00  0.00    +0.000 A 
ATOM     19  O   UNL     1       1.493   3.312  19.208  0.00  0.00    +0.000 OA
ATOM     20  C   UNL     1       2.350   4.370  19.110  0.00  0.00    +0.000 A 
ATOM     21  C   UNL     1       2.130   5.458  20.089  0.00  0.00    +0.000 C 
ENDBRANCH  14  16
ENDBRANCH  13  14
ENDBRANCH   3  13
TORSDOF 4
ENDMDL
MODEL 8
REMARK VINA RESULT:      -7.3      3.134      5.448
REMARK  Name = 
REMARK  6 active torsions:
REMARK  status: ('A' for Active; 'I' for Inactive)
REMARK    1  A    between atoms: C_1  and  C_2
REMARK    2  A    between atoms: C_6  and  C_7
REMARK    3  A    between atoms: N_9  and  O_10
REMARK    4  A    between atoms: O_10  and  C_11
REMARK    5  A    between atoms: C_11  and  C_13
REMARK    6  A    between atoms: C_17  and  C_18
REMARK                            x       y       z     vdW  Elec       q    Type
REMARK                         _______ _______ _______ _____ _____    ______ ____
ROOT
ATOM      1  C   UNL     1       3.143   5.726  18.773  0.00  0.00    +0.000 C 
ATOM      2  N   UNL     1       1.969   5.945  18.257  0.00  0.00    +0.000 NA
ATOM      3  N   UNL     1       3.298   5.580  20.135  0.00  0.00    +0.000 N 
ATOM      4  H   UNL     1       2.007   6.018  17.239  0.00  0.00    +0.000 HD
ATOM      5  H   UNL     1       4.189   5.251  20.505  0.00  0.00    +0.000 HD
ENDROOT
BRANCH   1  11
ATOM      6  C   UNL     1       7.658   7.491  17.378  0.00  0.00    +0.000 C 
ATOM      7  C   UNL     1       6.547   6.493  17.217  0.00  0.00    +0.000 A 
ATOM      8  C   UNL     1       6.639   5.473  16.263  0.00  0.00    +0.000 A 
ATOM      9  C   UNL     1       5.603   4.551  16.117  0.00  0.00    +0.000 A 
ATOM     10  C   UNL     1       4.464   4.639  16.922  0.00  0.00    +0.000 A 
ATOM     11  C   UNL     1       4.358   5.649  17.887  0.00  0.00    +0.000 A 
ATOM     12  C   UNL     1       5.404   6.574  18.030  0.00  0.00    +0.000 A 
ENDBRANCH   1  11
BRANCH   3  13
ATOM     13  O   UNL     1       2.183   4.979  20.766  0.00  0.00    +0.000 OA
BRANCH  13  14
ATOM     14  C   UNL     1       2.452   3.690  21.160  0.00  0.00    +0.000 C 
ATOM     15  O   UNL     1       2.362   3.328  22.331  0.00  0.00    +0.000 OA
BRANCH  14  16
ATOM     16  C   UNL     1       2.839   2.793  20.082  0.00  0.00    +0.000 A 
ATOM     17  C   UNL     1       4.145   2.252  19.858  0.00  0.00    +0.000 A 
ATOM     18  C   UNL     1       4.060   1.452  18.744  0.00  0.00    +0.000 A 
ATOM     19  O   UNL     1       2.796   1.466  18.255  0.00  0.00    +0.000 OA
ATOM     20  C   UNL     1       2.054   2.280  19.060  0.00  0.00    +0.000 A 
ATOM     21  C   UNL     1       0.635   2.434  18.671  0.00  0.00    +0.000 C 
ENDBRANCH  14  16
ENDBRANCH  13  14
ENDBRANCH   3  13
TORSDOF 4
ENDMDL
MODEL 9
REMARK VINA RESULT:      -7.3      3.843      7.213
REMARK  Name = 
REMARK  6 active torsions:
REMARK  status: ('A' for Active; 'I' for Inactive)
REMARK    1  A    between atoms: C_1  and  C_2
REMARK    2  A    between atoms: C_6  and  C_7
REMARK    3  A    between atoms: N_9  and  O_10
REMARK    4  A    between atoms: O_10  and  C_11
REMARK    5  A    between atoms: C_11  and  C_13
REMARK    6  A    between atoms: C_17  and  C_18
REMARK                            x       y       z     vdW  Elec       q    Type
REMARK                         _______ _______ _______ _____ _____    ______ ____
ROOT
ATOM      1  C   UNL     1       5.482   4.859  16.173  0.00  0.00    +0.000 C 
ATOM      2  N   UNL     1       5.851   5.916  16.835  0.00  0.00    +0.000 NA
ATOM      3  N   UNL     1       4.613   3.946  16.732  0.00  0.00    +0.000 N 
ATOM      4  H   UNL     1       6.483   6.506  16.290  0.00  0.00    +0.000 HD
ATOM      5  H   UNL     1       4.210   3.215  16.147  0.00  0.00    +0.000 HD
ENDROOT
BRANCH   1  11
ATOM      6  C   UNL     1       4.999   2.742  11.620  0.00  0.00    +0.000 C 
ATOM      7  C   UNL     1       5.780   3.592  12.581  0.00  0.00    +0.000 A 
ATOM      8  C   UNL     1       6.993   4.174  12.194  0.00  0.00    +0.000 A 
ATOM      9  C   UNL     1       7.713   4.962  13.092  0.00  0.00    +0.000 A 
ATOM     10  C   UNL     1       7.230   5.174  14.385  0.00  0.00    +0.000 A 
ATOM     11  C   UNL     1       6.015   4.606  14.787  0.00  0.00    +0.000 A 
ATOM     12  C   UNL     1       5.293   3.815  13.880  0.00  0.00    +0.000 A 
ENDBRANCH   1  11
BRANCH   3  13
ATOM     13  O   UNL     1       3.671   4.531  17.611  0.00  0.00    +0.000 OA
BRANCH  13  14
ATOM     14  C   UNL     1       2.590   3.709  17.823  0.00  0.00    +0.000 C 
ATOM     15  O   UNL     1       1.902   3.276  16.901  0.00  0.00    +0.000 OA
BRANCH  14  16
ATOM     16  C   UNL     1       2.335   3.388  19.219  0.00  0.00    +0.000 A 
ATOM     17  C   UNL     1       1.138   3.675  19.949  0.00  0.00    +0.000 A 
ATOM     18  C   UNL     1       1.322   3.192  21.223  0.00  0.00    +0.000 A 
ATOM     19  O   UNL     1       2.551   2.634  21.337  0.00  0.00    +0.000 OA
ATOM     20  C   UNL     1       3.170   2.754  20.127  0.00  0.00    +0.000 A 
ATOM     21  C   UNL     1       4.544   2.210  20.060  0.00  0.00    +0.000 C 
ENDBRANCH  14  16
ENDBRANCH  13  14
ENDBRANCH   3  13
TORSDOF 4
ENDMDL
