MODEL 1
REMARK VINA RESULT:      -7.9      0.000      0.000
REMARK  Name = 
REMARK  7 active torsions:
REMARK  status: ('A' for Active; 'I' for Inactive)
REMARK    1  A    between atoms: C_1  and  O_2
REMARK    2  A    between atoms: O_2  and  C_3
REMARK    3  A    between atoms: C_5  and  O_6
REMARK    4  A    between atoms: O_6  and  C_7
REMARK    5  A    between atoms: C_18  and  C_19
REMARK    6  A    between atoms: C_20  and  C_21
REMARK    7  A    between atoms: C_25  and  C_26
REMARK                            x       y       z     vdW  Elec       q    Type
REMARK                         _______ _______ _______ _____ _____    ______ ____
ROOT
ATOM      1  C   UNL     1       0.929   8.958  20.320  0.00  0.00    +0.000 A 
ATOM      2  C   UNL     1       1.685   7.784  20.521  0.00  0.00    +0.000 A 
ATOM      3  C   UNL     1       2.523   7.299  19.525  0.00  0.00    +0.000 A 
ATOM      4  C   UNL     1       2.550   7.930  18.291  0.00  0.00    +0.000 A 
ATOM      5  C   UNL     1       1.783   9.080  18.081  0.00  0.00    +0.000 A 
ATOM      6  C   UNL     1       1.001   9.677  19.099  0.00  0.00    +0.000 A 
ENDROOT
BRANCH   6   7
ATOM      7  C   UNL     1       0.323  10.989  18.813  0.00  0.00    +0.000 A 
ATOM      8  C   UNL     1       0.838  12.245  19.181  0.00  0.00    +0.000 A 
ATOM      9  C   UNL     1       2.107  12.460  19.950  0.00  0.00    +0.000 C 
ATOM     10  N   UNL     1       0.223  13.429  18.903  0.00  0.00    +0.000 NA
ATOM     11  C   UNL     1      -0.950  13.375  18.279  0.00  0.00    +0.000 A 
ATOM     12  N   UNL     1      -1.573  12.261  17.918  0.00  0.00    +0.000 NA
ATOM     13  C   UNL     1      -0.940  11.085  18.174  0.00  0.00    +0.000 A 
ATOM     14  C   UNL     1      -1.760   9.906  17.726  0.00  0.00    +0.000 C 
ENDBRANCH   6   7
BRANCH   1  16
ATOM     15  C   UNL     1       0.735   9.318  22.647  0.00  0.00    +0.000 C 
ATOM     16  O   UNL     1       0.142   9.436  21.344  0.00  0.00    +0.000 OA
ENDBRANCH   1  16
BRANCH   3  17
ATOM     17  O   UNL     1       3.213   6.148  19.812  0.00  0.00    +0.000 OA
BRANCH  17  18
ATOM     18  C   UNL     1       2.998   5.054  19.001  0.00  0.00    +0.000 A 
ATOM     19  N   UNL     1       3.788   4.783  17.910  0.00  0.00    +0.000 NA
ATOM     20  C   UNL     1       3.527   3.671  17.125  0.00  0.00    +0.000 A 
ATOM     21  C   UNL     1       2.517   2.712  17.292  0.00  0.00    +0.000 A 
ATOM     22  C   UNL     1       1.732   2.977  18.421  0.00  0.00    +0.000 A 
ATOM     23  N   UNL     1       0.683   2.309  18.929  0.00  0.00    +0.000 NA
ATOM     24  N   UNL     1       0.321   3.011  20.021  0.00  0.00    +0.000 N 
ATOM     25  C   UNL     1       1.082   4.118  20.258  0.00  0.00    +0.000 A 
ATOM     26  C   UNL     1       2.000   4.119  19.242  0.00  0.00    +0.000 A 
ATOM     27  H   UNL     1      -0.469   2.676  20.564  0.00  0.00    +0.000 HD
ENDBRANCH  17  18
ENDBRANCH   3  17
TORSDOF 4
ENDMDL
MODEL 2
REMARK VINA RESULT:      -7.9      0.222      1.704
REMARK  Name = 
REMARK  7 active torsions:
REMARK  status: ('A' for Active; 'I' for Inactive)
REMARK    1  A    between atoms: C_1  and  O_2
REMARK    2  A    between atoms: O_2  and  C_3
REMARK    3  A    between atoms: C_5  and  O_6
REMARK    4  A    between atoms: O_6  and  C_7
REMARK    5  A    between atoms: C_18  and  C_19
REMARK    6  A    between atoms: C_20  and  C_21
REMARK    7  A    between atoms: C_25  and  C_26
REMARK                            x       y       z     vdW  Elec       q    Type
REMARK                         _______ _______ _______ _____ _____    ______ ____
ROOT
ATOM      1  C   UNL     1       0.804   8.788  20.402  0.00  0.00    +0.000 A 
ATOM      2  C   UNL     1       1.605   7.638  20.562  0.00  0.00    +0.000 A 
ATOM      3  C   UNL     1       2.503   7.253  19.576  0.00  0.00    +0.000 A 
ATOM      4  C   UNL     1       2.551   7.963  18.385  0.00  0.00    +0.000 A 
ATOM      5  C   UNL     1       1.741   9.089  18.213  0.00  0.00    +0.000 A 
ATOM      6  C   UNL     1       0.891   9.585  19.231  0.00  0.00    +0.000 A 
ENDROOT
BRANCH   6   7
ATOM      7  C   UNL     1       0.166  10.882  18.998  0.00  0.00    +0.000 A 
ATOM      8  C   UNL     1      -0.996  11.012  18.217  0.00  0.00    +0.000 A 
ATOM      9  C   UNL     1      -1.654   9.893  17.465  0.00  0.00    +0.000 C 
ATOM     10  N   UNL     1      -1.656  12.189  18.024  0.00  0.00    +0.000 NA
ATOM     11  C   UNL     1      -1.136  13.277  18.585  0.00  0.00    +0.000 A 
ATOM     12  N   UNL     1      -0.023  13.308  19.306  0.00  0.00    +0.000 NA
ATOM     13  C   UNL     1       0.614  12.124  19.515  0.00  0.00    +0.000 A 
ATOM     14  C   UNL     1       1.863  12.306  20.333  0.00  0.00    +0.000 C 
ENDBRANCH   6   7
BRANCH   1  16
ATOM     15  C   UNL     1       0.614   9.441  22.665  0.00  0.00    +0.000 C 
ATOM     16  O   UNL     1      -0.045   9.165  21.418  0.00  0.00    +0.000 OA
ENDBRANCH   1  16
BRANCH   3  17
ATOM     17  O   UNL     1       3.233   6.119  19.821  0.00  0.00    +0.000 OA
BRANCH  17  18
ATOM     18  C   UNL     1       3.018   5.030  19.003  0.00  0.00    +0.000 A 
ATOM     19  N   UNL     1       3.801   4.771  17.904  0.00  0.00    +0.000 NA
ATOM     20  C   UNL     1       3.540   3.664  17.111  0.00  0.00    +0.000 A 
ATOM     21  C   UNL     1       2.535   2.699  17.278  0.00  0.00    +0.000 A 
ATOM     22  C   UNL     1       1.758   2.951  18.416  0.00  0.00    +0.000 A 
ATOM     23  N   UNL     1       0.717   2.274  18.926  0.00  0.00    +0.000 NA
ATOM     24  N   UNL     1       0.359   2.965  20.027  0.00  0.00    +0.000 N 
ATOM     25  C   UNL     1       1.116   4.074  20.267  0.00  0.00    +0.000 A 
ATOM     26  C   UNL     1       2.026   4.088  19.243  0.00  0.00    +0.000 A 
ATOM     27  H   UNL     1      -0.425   2.622  20.572  0.00  0.00    +0.000 HD
ENDBRANCH  17  18
ENDBRANCH   3  17
TORSDOF 4
ENDMDL
MODEL 3
REMARK VINA RESULT:      -7.8      0.896      1.072
REMARK  Name = 
REMARK  7 active torsions:
REMARK  status: ('A' for Active; 'I' for Inactive)
REMARK    1  A    between atoms: C_1  and  O_2
REMARK    2  A    between atoms: O_2  and  C_3
REMARK    3  A    between atoms: C_5  and  O_6
REMARK    4  A    between atoms: O_6  and  C_7
REMARK    5  A    between atoms: C_18  and  C_19
REMARK    6  A    between atoms: C_20  and  C_21
REMARK    7  A    between atoms: C_25  and  C_26
REMARK                            x       y       z     vdW  Elec       q    Type
REMARK                         _______ _______ _______ _____ _____    ______ ____
ROOT
ATOM      1  C   UNL     1       1.031   8.898  20.185  0.00  0.00    +0.000 A 
ATOM      2  C   UNL     1       1.813   7.726  20.252  0.00  0.00    +0.000 A 
ATOM      3  C   UNL     1       2.599   7.332  19.177  0.00  0.00    +0.000 A 
ATOM      4  C   UNL     1       2.547   8.056  17.995  0.00  0.00    +0.000 A 
ATOM      5  C   UNL     1       1.753   9.204  17.917  0.00  0.00    +0.000 A 
ATOM      6  C   UNL     1       1.023   9.708  19.020  0.00  0.00    +0.000 A 
ENDROOT
BRANCH   6   7
ATOM      7  C   UNL     1       0.312  11.025  18.874  0.00  0.00    +0.000 A 
ATOM      8  C   UNL     1       0.804  12.251  19.357  0.00  0.00    +0.000 A 
ATOM      9  C   UNL     1       2.080  12.419  20.128  0.00  0.00    +0.000 C 
ATOM     10  N   UNL     1       0.159  13.442  19.206  0.00  0.00    +0.000 NA
ATOM     11  C   UNL     1      -1.022  13.422  18.595  0.00  0.00    +0.000 A 
ATOM     12  N   UNL     1      -1.625  12.335  18.133  0.00  0.00    +0.000 NA
ATOM     13  C   UNL     1      -0.962  11.154  18.264  0.00  0.00    +0.000 A 
ATOM     14  C   UNL     1      -1.763  10.007  17.712  0.00  0.00    +0.000 C 
ENDBRANCH   6   7
BRANCH   1  16
ATOM     15  C   UNL     1       1.025   9.241  22.522  0.00  0.00    +0.000 C 
ATOM     16  O   UNL     1       0.297   9.282  21.284  0.00  0.00    +0.000 OA
ENDBRANCH   1  16
BRANCH   3  17
ATOM     17  O   UNL     1       3.320   6.176  19.336  0.00  0.00    +0.000 OA
BRANCH  17  18
ATOM     18  C   UNL     1       2.669   4.981  19.116  0.00  0.00    +0.000 A 
ATOM     19  N   UNL     1       2.358   4.537  17.853  0.00  0.00    +0.000 NA
ATOM     20  C   UNL     1       1.699   3.328  17.686  0.00  0.00    +0.000 A 
ATOM     21  C   UNL     1       1.283   2.426  18.677  0.00  0.00    +0.000 A 
ATOM     22  C   UNL     1       1.628   2.869  19.960  0.00  0.00    +0.000 A 
ATOM     23  N   UNL     1       1.420   2.306  21.161  0.00  0.00    +0.000 NA
ATOM     24  N   UNL     1       1.961   3.167  22.046  0.00  0.00    +0.000 N 
ATOM     25  C   UNL     1       2.514   4.280  21.485  0.00  0.00    +0.000 A 
ATOM     26  C   UNL     1       2.314   4.113  20.140  0.00  0.00    +0.000 A 
ATOM     27  H   UNL     1       1.911   2.932  23.032  0.00  0.00    +0.000 HD
ENDBRANCH  17  18
ENDBRANCH   3  17
TORSDOF 4
ENDMDL
MODEL 4
REMARK VINA RESULT:      -7.8      1.435      2.471
REMARK  Name = 
REMARK  7 active torsions:
REMARK  status: ('A' for Active; 'I' for Inactive)
REMARK    1  A    between atoms: C_1  and  O_2
REMARK    2  A    between atoms: O_2  and  C_3
REMARK    3  A    between atoms: C_5  and  O_6
REMARK    4  A    between atoms: O_6  and  C_7
REMARK    5  A    between atoms: C_18  and  C_19
REMARK    6  A    between atoms: C_20  and  C_21
REMARK    7  A    between atoms: C_25  and  C_26
REMARK                            x       y       z     vdW  Elec       q    Type
REMARK                         _______ _______ _______ _____ _____    ______ ____
ROOT
ATOM      1  C   UNL     1       1.041   8.714  20.101  0.00  0.00    +0.000 A 
ATOM      2  C   UNL     1       1.969   7.685  19.840  0.00  0.00    +0.000 A 
ATOM      3  C   UNL     1       2.651   7.631  18.631  0.00  0.00    +0.000 A 
ATOM      4  C   UNL     1       2.351   8.552  17.639  0.00  0.00    +0.000 A 
ATOM      5  C   UNL     1       1.412   9.559  17.885  0.00  0.00    +0.000 A 
ATOM      6  C   UNL     1       0.775   9.723  19.138  0.00  0.00    +0.000 A 
ENDROOT
BRANCH   6   7
ATOM      7  C   UNL     1      -0.113  10.919  19.346  0.00  0.00    +0.000 A 
ATOM      8  C   UNL     1      -1.439  11.012  18.887  0.00  0.00    +0.000 A 
ATOM      9  C   UNL     1      -2.146   9.959  18.086  0.00  0.00    +0.000 C 
ATOM     10  N   UNL     1      -2.241  12.095  19.094  0.00  0.00    +0.000 NA
ATOM     11  C   UNL     1      -1.711  13.131  19.737  0.00  0.00    +0.000 A 
ATOM     12  N   UNL     1      -0.464  13.198  20.182  0.00  0.00    +0.000 NA
ATOM     13  C   UNL     1       0.322  12.103  19.995  0.00  0.00    +0.000 A 
ATOM     14  C   UNL     1       1.709  12.319  20.533  0.00  0.00    +0.000 C 
ENDBRANCH   6   7
BRANCH   1  16
ATOM     15  C   UNL     1       1.273   9.149  22.411  0.00  0.00    +0.000 C 
ATOM     16  O   UNL     1       0.415   8.763  21.326  0.00  0.00    +0.000 OA
ENDBRANCH   1  16
BRANCH   3  17
ATOM     17  O   UNL     1       3.529   6.590  18.469  0.00  0.00    +0.000 OA
BRANCH  17  18
ATOM     18  C   UNL     1       3.006   5.316  18.397  0.00  0.00    +0.000 A 
ATOM     19  N   UNL     1       1.763   5.063  17.867  0.00  0.00    +0.000 NA
ATOM     20  C   UNL     1       1.282   3.763  17.821  0.00  0.00    +0.000 A 
ATOM     21  C   UNL     1       1.917   2.589  18.253  0.00  0.00    +0.000 A 
ATOM     22  C   UNL     1       3.194   2.850  18.766  0.00  0.00    +0.000 A 
ATOM     23  N   UNL     1       4.118   2.014  19.269  0.00  0.00    +0.000 NA
ATOM     24  N   UNL     1       5.155   2.807  19.608  0.00  0.00    +0.000 N 
ATOM     25  C   UNL     1       4.958   4.133  19.355  0.00  0.00    +0.000 A 
ATOM     26  C   UNL     1       3.702   4.188  18.810  0.00  0.00    +0.000 A 
ATOM     27  H   UNL     1       5.974   2.371  20.018  0.00  0.00    +0.000 HD
ENDBRANCH  17  18
ENDBRANCH   3  17
TORSDOF 4
ENDMDL
MODEL 5
REMARK VINA RESULT:      -7.8      0.891      1.997
REMARK  Name = 
REMARK  7 active torsions:
REMARK  status: ('A' for Active; 'I' for Inactive)
REMARK    1  A    between atoms: C_1  and  O_2
REMARK    2  A    between atoms: O_2  and  C_3
REMARK    3  A    between atoms: C_5  and  O_6
REMARK    4  A    between atoms: O_6  and  C_7
REMARK    5  A    between atoms: C_18  and  C_19
REMARK    6  A    between atoms: C_20  and  C_21
REMARK    7  A    between atoms: C_25  and  C_26
REMARK                            x       y       z     vdW  Elec       q    Type
REMARK                         _______ _______ _______ _____ _____    ______ ____
ROOT
ATOM      1  C   UNL     1       1.017   8.902  20.151  0.00  0.00    +0.000 A 
ATOM      2  C   UNL     1       1.818   7.744  20.234  0.00  0.00    +0.000 A 
ATOM      3  C   UNL     1       2.592   7.335  19.156  0.00  0.00    +0.000 A 
ATOM      4  C   UNL     1       2.510   8.028  17.958  0.00  0.00    +0.000 A 
ATOM      5  C   UNL     1       1.698   9.162  17.865  0.00  0.00    +0.000 A 
ATOM      6  C   UNL     1       0.978   9.683  18.966  0.00  0.00    +0.000 A 
ENDROOT
BRANCH   6   7
ATOM      7  C   UNL     1       0.245  10.985  18.800  0.00  0.00    +0.000 A 
ATOM      8  C   UNL     1      -1.049  11.105  18.263  0.00  0.00    +0.000 A 
ATOM      9  C   UNL     1      -1.868   9.965  17.736  0.00  0.00    +0.000 C 
ATOM     10  N   UNL     1      -1.711  12.289  18.131  0.00  0.00    +0.000 NA
ATOM     11  C   UNL     1      -1.067  13.392  18.502  0.00  0.00    +0.000 A 
ATOM     12  N   UNL     1       0.171  13.431  18.978  0.00  0.00    +0.000 NA
ATOM     13  C   UNL     1       0.814  12.242  19.132  0.00  0.00    +0.000 A 
ATOM     14  C   UNL     1       2.207  12.433  19.666  0.00  0.00    +0.000 C 
ENDBRANCH   6   7
BRANCH   1  16
ATOM     15  C   UNL     1       1.028   9.248  22.488  0.00  0.00    +0.000 C 
ATOM     16  O   UNL     1       0.296   9.303  21.253  0.00  0.00    +0.000 OA
ENDBRANCH   1  16
BRANCH   3  17
ATOM     17  O   UNL     1       3.333   6.194  19.332  0.00  0.00    +0.000 OA
BRANCH  17  18
ATOM     18  C   UNL     1       2.708   4.985  19.107  0.00  0.00    +0.000 A 
ATOM     19  N   UNL     1       2.439   4.523  17.841  0.00  0.00    +0.000 NA
ATOM     20  C   UNL     1       1.806   3.301  17.669  0.00  0.00    +0.000 A 
ATOM     21  C   UNL     1       1.379   2.402  18.658  0.00  0.00    +0.000 A 
ATOM     22  C   UNL     1       1.682   2.864  19.945  0.00  0.00    +0.000 A 
ATOM     23  N   UNL     1       1.452   2.309  21.146  0.00  0.00    +0.000 NA
ATOM     24  N   UNL     1       1.953   3.188  22.037  0.00  0.00    +0.000 N 
ATOM     25  C   UNL     1       2.503   4.305  21.478  0.00  0.00    +0.000 A 
ATOM     26  C   UNL     1       2.342   4.121  20.131  0.00  0.00    +0.000 A 
ATOM     27  H   UNL     1       1.881   2.962  23.023  0.00  0.00    +0.000 HD
ENDBRANCH  17  18
ENDBRANCH   3  17
TORSDOF 4
ENDMDL
MODEL 6
REMARK VINA RESULT:      -7.7      1.406      1.754
REMARK  Name = 
REMARK  7 active torsions:
REMARK  status: ('A' for Active; 'I' for Inactive)
REMARK    1  A    between atoms: C_1  and  O_2
REMARK    2  A    between atoms: O_2  and  C_3
REMARK    3  A    between atoms: C_5  and  O_6
REMARK    4  A    between atoms: O_6  and  C_7
REMARK    5  A    between atoms: C_18  and  C_19
REMARK    6  A    between atoms: C_20  and  C_21
REMARK    7  A    between atoms: C_25  and  C_26
REMARK                            x       y       z     vdW  Elec       q    Type
REMARK                         _______ _______ _______ _____ _____    ______ ____
ROOT
ATOM      1  C   UNL     1       1.066   8.757  20.079  0.00  0.00    +0.000 A 
ATOM      2  C   UNL     1       1.984   7.709  19.859  0.00  0.00    +0.000 A 
ATOM      3  C   UNL     1       2.675   7.608  18.659  0.00  0.00    +0.000 A 
ATOM      4  C   UNL     1       2.395   8.501  17.635  0.00  0.00    +0.000 A 
ATOM      5  C   UNL     1       1.467   9.526  17.841  0.00  0.00    +0.000 A 
ATOM      6  C   UNL     1       0.821   9.738  19.083  0.00  0.00    +0.000 A 
ENDROOT
BRANCH   6   7
ATOM      7  C   UNL     1      -0.054  10.951  19.244  0.00  0.00    +0.000 A 
ATOM      8  C   UNL     1       0.339  12.132  19.899  0.00  0.00    +0.000 A 
ATOM      9  C   UNL     1       1.664  12.339  20.572  0.00  0.00    +0.000 C 
ATOM     10  N   UNL     1      -0.455  13.232  20.027  0.00  0.00    +0.000 NA
ATOM     11  C   UNL     1      -1.686  13.155  19.529  0.00  0.00    +0.000 A 
ATOM     12  N   UNL     1      -2.203  12.090  18.930  0.00  0.00    +0.000 NA
ATOM     13  C   UNL     1      -1.394  11.006  18.783  0.00  0.00    +0.000 A 
ATOM     14  C   UNL     1      -2.109   9.871  18.103  0.00  0.00    +0.000 C 
ENDBRANCH   6   7
BRANCH   1  16
ATOM     15  C   UNL     1       1.308   9.136  22.398  0.00  0.00    +0.000 C 
ATOM     16  O   UNL     1       0.431   8.853  21.296  0.00  0.00    +0.000 OA
ENDBRANCH   1  16
BRANCH   3  17
ATOM     17  O   UNL     1       3.542   6.552  18.538  0.00  0.00    +0.000 OA
BRANCH  17  18
ATOM     18  C   UNL     1       3.000   5.289  18.431  0.00  0.00    +0.000 A 
ATOM     19  N   UNL     1       1.760   5.066  17.881  0.00  0.00    +0.000 NA
ATOM     20  C   UNL     1       1.259   3.776  17.801  0.00  0.00    +0.000 A 
ATOM     21  C   UNL     1       1.872   2.583  18.216  0.00  0.00    +0.000 A 
ATOM     22  C   UNL     1       3.146   2.812  18.749  0.00  0.00    +0.000 A 
ATOM     23  N   UNL     1       4.050   1.952  19.246  0.00  0.00    +0.000 NA
ATOM     24  N   UNL     1       5.094   2.721  19.615  0.00  0.00    +0.000 N 
ATOM     25  C   UNL     1       4.921   4.055  19.388  0.00  0.00    +0.000 A 
ATOM     26  C   UNL     1       3.673   4.141  18.829  0.00  0.00    +0.000 A 
ATOM     27  H   UNL     1       5.901   2.264  20.026  0.00  0.00    +0.000 HD
ENDBRANCH  17  18
ENDBRANCH   3  17
TORSDOF 4
ENDMDL
MODEL 7
REMARK VINA RESULT:      -7.7      0.957      1.775
REMARK  Name = 
REMARK  7 active torsions:
REMARK  status: ('A' for Active; 'I' for Inactive)
REMARK    1  A    between atoms: C_1  and  O_2
REMARK    2  A    between atoms: O_2  and  C_3
REMARK    3  A    between atoms: C_5  and  O_6
REMARK    4  A    between atoms: O_6  and  C_7
REMARK    5  A    between atoms: C_18  and  C_19
REMARK    6  A    between atoms: C_20  and  C_21
REMARK    7  A    between atoms: C_25  and  C_26
REMARK                            x       y       z     vdW  Elec       q    Type
REMARK                         _______ _______ _______ _____ _____    ______ ____
ROOT
ATOM      1  C   UNL     1       0.771   8.822  20.519  0.00  0.00    +0.000 A 
ATOM      2  C   UNL     1       1.506   7.639  20.741  0.00  0.00    +0.000 A 
ATOM      3  C   UNL     1       2.384   7.156  19.779  0.00  0.00    +0.000 A 
ATOM      4  C   UNL     1       2.473   7.799  18.554  0.00  0.00    +0.000 A 
ATOM      5  C   UNL     1       1.726   8.958  18.321  0.00  0.00    +0.000 A 
ATOM      6  C   UNL     1       0.904   9.552  19.309  0.00  0.00    +0.000 A 
ENDROOT
BRANCH   6   7
ATOM      7  C   UNL     1       0.252  10.873  19.006  0.00  0.00    +0.000 A 
ATOM      8  C   UNL     1       0.703  12.112  19.495  0.00  0.00    +0.000 A 
ATOM      9  C   UNL     1       1.867  12.296  20.423  0.00  0.00    +0.000 C 
ATOM     10  N   UNL     1       0.114  13.305  19.202  0.00  0.00    +0.000 NA
ATOM     11  C   UNL     1      -0.974  13.276  18.437  0.00  0.00    +0.000 A 
ATOM     12  N   UNL     1      -1.535  12.179  17.948  0.00  0.00    +0.000 NA
ATOM     13  C   UNL     1      -0.925  10.994  18.223  0.00  0.00    +0.000 A 
ATOM     14  C   UNL     1      -1.671   9.835  17.621  0.00  0.00    +0.000 C 
ENDBRANCH   6   7
BRANCH   1  16
ATOM     15  C   UNL     1       0.572   9.419  22.796  0.00  0.00    +0.000 C 
ATOM     16  O   UNL     1      -0.058   9.297  21.510  0.00  0.00    +0.000 OA
ENDBRANCH   1  16
BRANCH   3  17
ATOM     17  O   UNL     1       3.050   5.996  20.085  0.00  0.00    +0.000 OA
BRANCH  17  18
ATOM     18  C   UNL     1       2.452   4.804  19.735  0.00  0.00    +0.000 A 
ATOM     19  N   UNL     1       1.201   4.451  20.181  0.00  0.00    +0.000 NA
ATOM     20  C   UNL     1       0.647   3.238  19.802  0.00  0.00    +0.000 A 
ATOM     21  C   UNL     1       1.203   2.256  18.969  0.00  0.00    +0.000 A 
ATOM     22  C   UNL     1       2.466   2.632  18.494  0.00  0.00    +0.000 A 
ATOM     23  N   UNL     1       3.317   1.989  17.679  0.00  0.00    +0.000 NA
ATOM     24  N   UNL     1       4.376   2.815  17.561  0.00  0.00    +0.000 N 
ATOM     25  C   UNL     1       4.265   3.978  18.265  0.00  0.00    +0.000 A 
ATOM     26  C   UNL     1       3.042   3.886  18.875  0.00  0.00    +0.000 A 
ATOM     27  H   UNL     1       5.152   2.516  16.980  0.00  0.00    +0.000 HD
ENDBRANCH  17  18
ENDBRANCH   3  17
TORSDOF 4
ENDMDL
MODEL 8
REMARK VINA RESULT:      -7.6      1.018      2.453
REMARK  Name = 
REMARK  7 active torsions:
REMARK  status: ('A' for Active; 'I' for Inactive)
REMARK    1  A    between atoms: C_1  and  O_2
REMARK    2  A    between atoms: O_2  and  C_3
REMARK    3  A    between atoms: C_5  and  O_6
REMARK    4  A    between atoms: O_6  and  C_7
REMARK    5  A    between atoms: C_18  and  C_19
REMARK    6  A    between atoms: C_20  and  C_21
REMARK    7  A    between atoms: C_25  and  C_26
REMARK                            x       y       z     vdW  Elec       q    Type
REMARK                         _______ _______ _______ _____ _____    ______ ____
ROOT
ATOM      1  C   UNL     1       1.055   9.013  20.297  0.00  0.00    +0.000 A 
ATOM      2  C   UNL     1       1.811   7.841  20.506  0.00  0.00    +0.000 A 
ATOM      3  C   UNL     1       2.512   7.249  19.464  0.00  0.00    +0.000 A 
ATOM      4  C   UNL     1       2.398   7.773  18.185  0.00  0.00    +0.000 A 
ATOM      5  C   UNL     1       1.629   8.921  17.968  0.00  0.00    +0.000 A 
ATOM      6  C   UNL     1       0.988   9.623  19.017  0.00  0.00    +0.000 A 
ENDROOT
BRANCH   6   7
ATOM      7  C   UNL     1       0.302  10.924  18.701  0.00  0.00    +0.000 A 
ATOM      8  C   UNL     1      -1.037  11.035  18.286  0.00  0.00    +0.000 A 
ATOM      9  C   UNL     1      -1.961   9.877  18.051  0.00  0.00    +0.000 C 
ATOM     10  N   UNL     1      -1.654  12.219  18.017  0.00  0.00    +0.000 NA
ATOM     11  C   UNL     1      -0.923  13.325  18.124  0.00  0.00    +0.000 A 
ATOM     12  N   UNL     1       0.360  13.364  18.458  0.00  0.00    +0.000 NA
ATOM     13  C   UNL     1       0.961  12.179  18.751  0.00  0.00    +0.000 A 
ATOM     14  C   UNL     1       2.413  12.367  19.099  0.00  0.00    +0.000 C 
ENDBRANCH   6   7
BRANCH   1  16
ATOM     15  C   UNL     1      -0.437   8.701  22.101  0.00  0.00    +0.000 C 
ATOM     16  O   UNL     1       0.408   9.597  21.362  0.00  0.00    +0.000 OA
ENDBRANCH   1  16
BRANCH   3  17
ATOM     17  O   UNL     1       3.212   6.110  19.765  0.00  0.00    +0.000 OA
BRANCH  17  18
ATOM     18  C   UNL     1       2.571   4.901  19.597  0.00  0.00    +0.000 A 
ATOM     19  N   UNL     1       1.344   4.638  20.156  0.00  0.00    +0.000 NA
ATOM     20  C   UNL     1       0.742   3.404  19.959  0.00  0.00    +0.000 A 
ATOM     21  C   UNL     1       1.226   2.315  19.219  0.00  0.00    +0.000 A 
ATOM     22  C   UNL     1       2.463   2.598  18.627  0.00  0.00    +0.000 A 
ATOM     23  N   UNL     1       3.249   1.839  17.846  0.00  0.00    +0.000 NA
ATOM     24  N   UNL     1       4.315   2.617  17.566  0.00  0.00    +0.000 N 
ATOM     25  C   UNL     1       4.271   3.858  18.131  0.00  0.00    +0.000 A 
ATOM     26  C   UNL     1       3.087   3.872  18.820  0.00  0.00    +0.000 A 
ATOM     27  H   UNL     1       5.047   2.230  16.980  0.00  0.00    +0.000 HD
ENDBRANCH  17  18
ENDBRANCH   3  17
TORSDOF 4
ENDMDL
MODEL 9
REMARK VINA RESULT:      -7.4      0.900      2.012
REMARK  Name = 
REMARK  7 active torsions:
REMARK  status: ('A' for Active; 'I' for Inactive)
REMARK    1  A    between atoms: C_1  and  O_2
REMARK    2  A    between atoms: O_2  and  C_3
REMARK    3  A    between atoms: C_5  and  O_6
REMARK    4  A    between atoms: O_6  and  C_7
REMARK    5  A    between atoms: C_18  and  C_19
REMARK    6  A    between atoms: C_20  and  C_21
REMARK    7  A    between atoms: C_25  and  C_26
REMARK                            x       y       z     vdW  Elec       q    Type
REMARK                         _______ _______ _______ _____ _____    ______ ____
ROOT
ATOM      1  C   UNL     1       0.650   8.957  20.574  0.00  0.00    +0.000 A 
ATOM      2  C   UNL     1       1.343   7.749  20.802  0.00  0.00    +0.000 A 
ATOM      3  C   UNL     1       2.230   7.249  19.858  0.00  0.00    +0.000 A 
ATOM      4  C   UNL     1       2.371   7.902  18.643  0.00  0.00    +0.000 A 
ATOM      5  C   UNL     1       1.667   9.086  18.404  0.00  0.00    +0.000 A 
ATOM      6  C   UNL     1       0.838   9.695  19.376  0.00  0.00    +0.000 A 
ENDROOT
BRANCH   6   7
ATOM      7  C   UNL     1       0.234  11.038  19.072  0.00  0.00    +0.000 A 
ATOM      8  C   UNL     1       0.733  12.261  19.556  0.00  0.00    +0.000 A 
ATOM      9  C   UNL     1       1.904  12.403  20.482  0.00  0.00    +0.000 C 
ATOM     10  N   UNL     1       0.188  13.475  19.262  0.00  0.00    +0.000 NA
ATOM     11  C   UNL     1      -0.902  13.484  18.499  0.00  0.00    +0.000 A 
ATOM     12  N   UNL     1      -1.505  12.407  18.014  0.00  0.00    +0.000 NA
ATOM     13  C   UNL     1      -0.938  11.201  18.290  0.00  0.00    +0.000 A 
ATOM     14  C   UNL     1      -1.729  10.070  17.693  0.00  0.00    +0.000 C 
ENDBRANCH   6   7
BRANCH   1  16
ATOM     15  C   UNL     1       0.373   9.434  22.871  0.00  0.00    +0.000 C 
ATOM     16  O   UNL     1      -0.189   9.447  21.549  0.00  0.00    +0.000 OA
ENDBRANCH   1  16
BRANCH   3  17
ATOM     17  O   UNL     1       2.852   6.066  20.168  0.00  0.00    +0.000 OA
BRANCH  17  18
ATOM     18  C   UNL     1       2.733   5.026  19.270  0.00  0.00    +0.000 A 
ATOM     19  N   UNL     1       1.586   4.276  19.165  0.00  0.00    +0.000 NA
ATOM     20  C   UNL     1       1.519   3.238  18.248  0.00  0.00    +0.000 A 
ATOM     21  C   UNL     1       2.508   2.816  17.345  0.00  0.00    +0.000 A 
ATOM     22  C   UNL     1       3.663   3.602  17.438  0.00  0.00    +0.000 A 
ATOM     23  N   UNL     1       4.819   3.534  16.756  0.00  0.00    +0.000 NA
ATOM     24  N   UNL     1       5.575   4.534  17.255  0.00  0.00    +0.000 N 
ATOM     25  C   UNL     1       4.972   5.259  18.240  0.00  0.00    +0.000 A 
ATOM     26  C   UNL     1       3.738   4.680  18.377  0.00  0.00    +0.000 A 
ATOM     27  H   UNL     1       6.507   4.662  16.875  0.00  0.00    +0.000 HD
ENDBRANCH  17  18
ENDBRANCH   3  17
TORSDOF 4
ENDMDL
