MODEL 1
REMARK VINA RESULT:      -8.1      0.000      0.000
REMARK  Name = 
REMARK  13 active torsions:
REMARK  status: ('A' for Active; 'I' for Inactive)
REMARK    1  A    between atoms: C_1  and  C_2
REMARK    2  A    between atoms: C_2  and  N_3
REMARK    3  A    between atoms: C_2  and  C_27
REMARK    4  A    between atoms: C_4  and  C_6
REMARK    5  A    between atoms: C_6  and  C_7
REMARK    6  A    between atoms: C_7  and  C_8
REMARK    7  A    between atoms: C_17  and  O_19
REMARK    8  A    between atoms: O_19  and  C_20
REMARK    9  A    between atoms: C_20  and  C_21
REMARK   10  A    between atoms: N_29  and  C_30
REMARK   11  A    between atoms: C_30  and  C_31
REMARK   12  A    between atoms: C_30  and  C_32
REMARK   13  A    between atoms: C_30  and  C_33
REMARK                            x       y       z     vdW  Elec       q    Type
REMARK                         _______ _______ _______ _____ _____    ______ ____
ROOT
ATOM      1  C   UNL     1       4.962   4.855  17.984  0.00  0.00    +0.000 C 
ATOM      2  C   UNL     1       5.876   4.755  19.253  0.00  0.00    +0.000 C 
ATOM      3  C   UNL     1       7.048   5.202  18.380  0.00  0.00    +0.000 C 
ATOM      4  N   UNL     1       6.244   4.773  17.253  0.00  0.00    +0.000 N 
ATOM      5  C   UNL     1       6.660   4.523  15.985  0.00  0.00    +0.000 C 
ATOM      6  O   UNL     1       7.838   4.604  15.654  0.00  0.00    +0.000 OA
ENDROOT
BRANCH   1   8
ATOM      7  N   UNL     1       3.329   6.594  18.790  0.00  0.00    +0.000 N 
ATOM      8  C   UNL     1       4.212   6.257  17.782  0.00  0.00    +0.000 C 
ATOM      9  O   UNL     1       4.358   7.006  16.810  0.00  0.00    +0.000 OA
ATOM     10  H   UNL     1       3.255   6.006  19.615  0.00  0.00    +0.000 HD
BRANCH   7  12
ATOM     11  C   UNL     1       1.543   7.820  17.617  0.00  0.00    +0.000 C 
ATOM     12  C   UNL     1       2.534   7.825  18.779  0.00  0.00    +0.000 C 
BRANCH  12  13
ATOM     13  C   UNL     1       1.769   7.926  20.118  0.00  0.00    +0.000 C 
ATOM     14  O   UNL     1       1.627   6.942  20.848  0.00  0.00    +0.000 OA
ATOM     15  N   UNL     1       1.241   9.171  20.399  0.00  0.00    +0.000 N 
ATOM     16  H   UNL     1       1.527   9.948  19.815  0.00  0.00    +0.000 HD
BRANCH  15  17
ATOM     17  C   UNL     1       0.400   9.483  21.569  0.00  0.00    +0.000 C 
ATOM     18  C   UNL     1       1.222   9.435  22.865  0.00  0.00    +0.000 C 
ATOM     19  C   UNL     1      -0.166  10.907  21.405  0.00  0.00    +0.000 C 
ATOM     20  C   UNL     1      -0.792   8.514  21.657  0.00  0.00    +0.000 C 
ENDBRANCH  15  17
ENDBRANCH  12  13
ENDBRANCH   7  12
ENDBRANCH   1   8
BRANCH   1  21
ATOM     21  C   UNL     1       4.070   3.618  17.771  0.00  0.00    +0.000 C 
BRANCH  21  22
ATOM     22  C   UNL     1       3.108   3.355  18.919  0.00  0.00    +0.000 A 
ATOM     23  C   UNL     1       3.537   2.857  20.157  0.00  0.00    +0.000 A 
ATOM     24  C   UNL     1       2.632   2.671  21.209  0.00  0.00    +0.000 A 
ATOM     25  C   UNL     1       1.288   2.998  21.045  0.00  0.00    +0.000 A 
ATOM     26  C   UNL     1       0.845   3.503  19.829  0.00  0.00    +0.000 A 
ATOM     27  C   UNL     1       1.748   3.679  18.773  0.00  0.00    +0.000 A 
ENDBRANCH  21  22
ENDBRANCH   1  21
BRANCH   5  28
ATOM     28  O   UNL     1       5.648   4.173  15.151  0.00  0.00    +0.000 OA
BRANCH  28  29
ATOM     29  C   UNL     1       5.710   4.770  13.845  0.00  0.00    +0.000 C 
BRANCH  29  30
ATOM     30  C   UNL     1       5.980   3.712  12.805  0.00  0.00    +0.000 A 
ATOM     31  C   UNL     1       4.927   2.958  12.270  0.00  0.00    +0.000 A 
ATOM     32  C   UNL     1       5.174   1.988  11.296  0.00  0.00    +0.000 A 
ATOM     33  C   UNL     1       6.476   1.758  10.850  0.00  0.00    +0.000 A 
ATOM     34  C   UNL     1       7.531   2.499  11.379  0.00  0.00    +0.000 A 
ATOM     35  C   UNL     1       7.286   3.469  12.354  0.00  0.00    +0.000 A 
ENDBRANCH  29  30
ENDBRANCH  28  29
ENDBRANCH   5  28
TORSDOF 9
ENDMDL
MODEL 2
REMARK VINA RESULT:      -8.1      0.151      1.141
REMARK  Name = 
REMARK  13 active torsions:
REMARK  status: ('A' for Active; 'I' for Inactive)
REMARK    1  A    between atoms: C_1  and  C_2
REMARK    2  A    between atoms: C_2  and  N_3
REMARK    3  A    between atoms: C_2  and  C_27
REMARK    4  A    between atoms: C_4  and  C_6
REMARK    5  A    between atoms: C_6  and  C_7
REMARK    6  A    between atoms: C_7  and  C_8
REMARK    7  A    between atoms: C_17  and  O_19
REMARK    8  A    between atoms: O_19  and  C_20
REMARK    9  A    between atoms: C_20  and  C_21
REMARK   10  A    between atoms: N_29  and  C_30
REMARK   11  A    between atoms: C_30  and  C_31
REMARK   12  A    between atoms: C_30  and  C_32
REMARK   13  A    between atoms: C_30  and  C_33
REMARK                            x       y       z     vdW  Elec       q    Type
REMARK                         _______ _______ _______ _____ _____    ______ ____
ROOT
ATOM      1  C   UNL     1       4.931   4.876  18.075  0.00  0.00    +0.000 C 
ATOM      2  C   UNL     1       5.830   4.779  19.355  0.00  0.00    +0.000 C 
ATOM      3  C   UNL     1       7.015   5.213  18.493  0.00  0.00    +0.000 C 
ATOM      4  N   UNL     1       6.221   4.782  17.360  0.00  0.00    +0.000 N 
ATOM      5  C   UNL     1       6.651   4.521  16.098  0.00  0.00    +0.000 C 
ATOM      6  O   UNL     1       7.833   4.593  15.780  0.00  0.00    +0.000 OA
ENDROOT
BRANCH   1   8
ATOM      7  N   UNL     1       3.282   6.619  18.838  0.00  0.00    +0.000 N 
ATOM      8  C   UNL     1       4.193   6.282  17.855  0.00  0.00    +0.000 C 
ATOM      9  O   UNL     1       4.370   7.033  16.890  0.00  0.00    +0.000 OA
ATOM     10  H   UNL     1       3.181   6.029  19.658  0.00  0.00    +0.000 HD
BRANCH   7  12
ATOM     11  C   UNL     1       1.504   7.835  17.642  0.00  0.00    +0.000 C 
ATOM     12  C   UNL     1       2.491   7.853  18.807  0.00  0.00    +0.000 C 
BRANCH  12  13
ATOM     13  C   UNL     1       1.724   7.976  20.142  0.00  0.00    +0.000 C 
ATOM     14  O   UNL     1       1.598   7.009  20.898  0.00  0.00    +0.000 OA
ATOM     15  N   UNL     1       1.175   9.219  20.390  0.00  0.00    +0.000 N 
ATOM     16  H   UNL     1       1.448   9.985  19.786  0.00  0.00    +0.000 HD
BRANCH  15  17
ATOM     17  C   UNL     1       0.327   9.547  21.551  0.00  0.00    +0.000 C 
ATOM     18  C   UNL     1      -0.312  10.934  21.389  0.00  0.00    +0.000 C 
ATOM     19  C   UNL     1      -0.802   8.501  21.650  0.00  0.00    +0.000 C 
ATOM     20  C   UNL     1       1.140   9.483  22.856  0.00  0.00    +0.000 C 
ENDBRANCH  15  17
ENDBRANCH  12  13
ENDBRANCH   7  12
ENDBRANCH   1   8
BRANCH   1  21
ATOM     21  C   UNL     1       4.034   3.643  17.859  0.00  0.00    +0.000 C 
BRANCH  21  22
ATOM     22  C   UNL     1       3.083   3.373  19.014  0.00  0.00    +0.000 A 
ATOM     23  C   UNL     1       3.517   2.832  20.231  0.00  0.00    +0.000 A 
ATOM     24  C   UNL     1       2.623   2.639  21.291  0.00  0.00    +0.000 A 
ATOM     25  C   UNL     1       1.285   3.002  21.155  0.00  0.00    +0.000 A 
ATOM     26  C   UNL     1       0.837   3.549  19.960  0.00  0.00    +0.000 A 
ATOM     27  C   UNL     1       1.729   3.731  18.895  0.00  0.00    +0.000 A 
ENDBRANCH  21  22
ENDBRANCH   1  21
BRANCH   5  28
ATOM     28  O   UNL     1       5.647   4.172  15.255  0.00  0.00    +0.000 OA
BRANCH  28  29
ATOM     29  C   UNL     1       5.687   4.818  13.971  0.00  0.00    +0.000 C 
BRANCH  29  30
ATOM     30  C   UNL     1       5.854   3.791  12.880  0.00  0.00    +0.000 A 
ATOM     31  C   UNL     1       7.133   3.409  12.454  0.00  0.00    +0.000 A 
ATOM     32  C   UNL     1       7.289   2.447  11.453  0.00  0.00    +0.000 A 
ATOM     33  C   UNL     1       6.169   1.862  10.863  0.00  0.00    +0.000 A 
ATOM     34  C   UNL     1       4.891   2.239  11.274  0.00  0.00    +0.000 A 
ATOM     35  C   UNL     1       4.734   3.201  12.276  0.00  0.00    +0.000 A 
ENDBRANCH  29  30
ENDBRANCH  28  29
ENDBRANCH   5  28
TORSDOF 9
ENDMDL
MODEL 3
REMARK VINA RESULT:      -8.1      0.223      1.419
REMARK  Name = 
REMARK  13 active torsions:
REMARK  status: ('A' for Active; 'I' for Inactive)
REMARK    1  A    between atoms: C_1  and  C_2
REMARK    2  A    between atoms: C_2  and  N_3
REMARK    3  A    between atoms: C_2  and  C_27
REMARK    4  A    between atoms: C_4  and  C_6
REMARK    5  A    between atoms: C_6  and  C_7
REMARK    6  A    between atoms: C_7  and  C_8
REMARK    7  A    between atoms: C_17  and  O_19
REMARK    8  A    between atoms: O_19  and  C_20
REMARK    9  A    between atoms: C_20  and  C_21
REMARK   10  A    between atoms: N_29  and  C_30
REMARK   11  A    between atoms: C_30  and  C_31
REMARK   12  A    between atoms: C_30  and  C_32
REMARK   13  A    between atoms: C_30  and  C_33
REMARK                            x       y       z     vdW  Elec       q    Type
REMARK                         _______ _______ _______ _____ _____    ______ ____
ROOT
ATOM      1  C   UNL     1       4.982   4.864  18.153  0.00  0.00    +0.000 C 
ATOM      2  C   UNL     1       5.890   4.805  19.430  0.00  0.00    +0.000 C 
ATOM      3  C   UNL     1       7.063   5.243  18.552  0.00  0.00    +0.000 C 
ATOM      4  N   UNL     1       6.269   4.779  17.432  0.00  0.00    +0.000 N 
ATOM      5  C   UNL     1       6.694   4.502  16.172  0.00  0.00    +0.000 C 
ATOM      6  O   UNL     1       7.873   4.588  15.845  0.00  0.00    +0.000 OA
ENDROOT
BRANCH   1   8
ATOM      7  N   UNL     1       3.304   6.589  18.893  0.00  0.00    +0.000 N 
ATOM      8  C   UNL     1       4.219   6.253  17.914  0.00  0.00    +0.000 C 
ATOM      9  O   UNL     1       4.382   6.993  16.938  0.00  0.00    +0.000 OA
ATOM     10  H   UNL     1       3.215   6.010  19.722  0.00  0.00    +0.000 HD
BRANCH   7  12
ATOM     11  C   UNL     1       1.515   7.763  17.674  0.00  0.00    +0.000 C 
ATOM     12  C   UNL     1       2.492   7.809  18.845  0.00  0.00    +0.000 C 
BRANCH  12  13
ATOM     13  C   UNL     1       1.712   7.930  20.173  0.00  0.00    +0.000 C 
ATOM     14  O   UNL     1       1.541   6.952  20.905  0.00  0.00    +0.000 OA
ATOM     15  N   UNL     1       1.206   9.187  20.443  0.00  0.00    +0.000 N 
ATOM     16  H   UNL     1       1.515   9.956  19.860  0.00  0.00    +0.000 HD
BRANCH  15  17
ATOM     17  C   UNL     1       0.355   9.520  21.600  0.00  0.00    +0.000 C 
ATOM     18  C   UNL     1      -0.802   8.520  21.736  0.00  0.00    +0.000 C 
ATOM     19  C   UNL     1       1.211   9.448  22.880  0.00  0.00    +0.000 C 
ATOM     20  C   UNL     1      -0.190  10.954  21.482  0.00  0.00    +0.000 C 
ENDBRANCH  15  17
ENDBRANCH  12  13
ENDBRANCH   7  12
ENDBRANCH   1   8
BRANCH   1  21
ATOM     21  C   UNL     1       4.105   3.613  17.965  0.00  0.00    +0.000 C 
BRANCH  21  22
ATOM     22  C   UNL     1       3.083   3.413  19.075  0.00  0.00    +0.000 A 
ATOM     23  C   UNL     1       1.718   3.670  18.891  0.00  0.00    +0.000 A 
ATOM     24  C   UNL     1       0.798   3.431  19.919  0.00  0.00    +0.000 A 
ATOM     25  C   UNL     1       1.227   2.914  21.139  0.00  0.00    +0.000 A 
ATOM     26  C   UNL     1       2.575   2.644  21.338  0.00  0.00    +0.000 A 
ATOM     27  C   UNL     1       3.498   2.894  20.313  0.00  0.00    +0.000 A 
ENDBRANCH  21  22
ENDBRANCH   1  21
BRANCH   5  28
ATOM     28  O   UNL     1       5.691   4.122  15.342  0.00  0.00    +0.000 OA
BRANCH  28  29
ATOM     29  C   UNL     1       5.664   4.805  14.077  0.00  0.00    +0.000 C 
BRANCH  29  30
ATOM     30  C   UNL     1       5.786   3.813  12.949  0.00  0.00    +0.000 A 
ATOM     31  C   UNL     1       7.047   3.387  12.512  0.00  0.00    +0.000 A 
ATOM     32  C   UNL     1       7.161   2.456  11.476  0.00  0.00    +0.000 A 
ATOM     33  C   UNL     1       6.017   1.947  10.863  0.00  0.00    +0.000 A 
ATOM     34  C   UNL     1       4.757   2.368  11.286  0.00  0.00    +0.000 A 
ATOM     35  C   UNL     1       4.641   3.299  12.322  0.00  0.00    +0.000 A 
ENDBRANCH  29  30
ENDBRANCH  28  29
ENDBRANCH   5  28
TORSDOF 9
ENDMDL
MODEL 4
REMARK VINA RESULT:      -7.9      0.984      1.493
REMARK  Name = 
REMARK  13 active torsions:
REMARK  status: ('A' for Active; 'I' for Inactive)
REMARK    1  A    between atoms: C_1  and  C_2
REMARK    2  A    between atoms: C_2  and  N_3
REMARK    3  A    between atoms: C_2  and  C_27
REMARK    4  A    between atoms: C_4  and  C_6
REMARK    5  A    between atoms: C_6  and  C_7
REMARK    6  A    between atoms: C_7  and  C_8
REMARK    7  A    between atoms: C_17  and  O_19
REMARK    8  A    between atoms: O_19  and  C_20
REMARK    9  A    between atoms: C_20  and  C_21
REMARK   10  A    between atoms: N_29  and  C_30
REMARK   11  A    between atoms: C_30  and  C_31
REMARK   12  A    between atoms: C_30  and  C_32
REMARK   13  A    between atoms: C_30  and  C_33
REMARK                            x       y       z     vdW  Elec       q    Type
REMARK                         _______ _______ _______ _____ _____    ______ ____
ROOT
ATOM      1  C   UNL     1       4.667   4.897  17.633  0.00  0.00    +0.000 C 
ATOM      2  C   UNL     1       5.062   4.272  19.015  0.00  0.00    +0.000 C 
ATOM      3  C   UNL     1       6.510   4.664  18.719  0.00  0.00    +0.000 C 
ATOM      4  N   UNL     1       6.103   4.731  17.330  0.00  0.00    +0.000 N 
ATOM      5  C   UNL     1       6.903   4.735  16.232  0.00  0.00    +0.000 C 
ATOM      6  O   UNL     1       8.123   4.640  16.309  0.00  0.00    +0.000 OA
ENDROOT
BRANCH   1   8
ATOM      7  N   UNL     1       3.170   6.704  18.547  0.00  0.00    +0.000 N 
ATOM      8  C   UNL     1       4.208   6.432  17.675  0.00  0.00    +0.000 C 
ATOM      9  O   UNL     1       4.694   7.337  16.989  0.00  0.00    +0.000 OA
ATOM     10  H   UNL     1       2.812   5.971  19.151  0.00  0.00    +0.000 HD
BRANCH   7  12
ATOM     11  C   UNL     1       1.670   8.384  17.549  0.00  0.00    +0.000 C 
ATOM     12  C   UNL     1       2.596   8.042  18.714  0.00  0.00    +0.000 C 
BRANCH  12  13
ATOM     13  C   UNL     1       1.801   8.071  20.039  0.00  0.00    +0.000 C 
ATOM     14  O   UNL     1       1.688   7.061  20.739  0.00  0.00    +0.000 OA
ATOM     15  N   UNL     1       1.214   9.284  20.344  0.00  0.00    +0.000 N 
ATOM     16  H   UNL     1       1.477  10.089  19.788  0.00  0.00    +0.000 HD
BRANCH  15  17
ATOM     17  C   UNL     1       0.337   9.525  21.504  0.00  0.00    +0.000 C 
ATOM     18  C   UNL     1      -0.770   8.464  21.585  0.00  0.00    +0.000 C 
ATOM     19  C   UNL     1       1.183   9.443  22.790  0.00  0.00    +0.000 C 
ATOM     20  C   UNL     1      -0.279  10.934  21.439  0.00  0.00    +0.000 C 
ENDBRANCH  15  17
ENDBRANCH  12  13
ENDBRANCH   7  12
ENDBRANCH   1   8
BRANCH   1  21
ATOM     21  C   UNL     1       3.764   3.984  16.782  0.00  0.00    +0.000 C 
BRANCH  21  22
ATOM     22  C   UNL     1       2.684   3.276  17.586  0.00  0.00    +0.000 A 
ATOM     23  C   UNL     1       2.850   1.975  18.080  0.00  0.00    +0.000 A 
ATOM     24  C   UNL     1       1.855   1.369  18.856  0.00  0.00    +0.000 A 
ATOM     25  C   UNL     1       0.687   2.062  19.165  0.00  0.00    +0.000 A 
ATOM     26  C   UNL     1       0.508   3.357  18.693  0.00  0.00    +0.000 A 
ATOM     27  C   UNL     1       1.498   3.959  17.907  0.00  0.00    +0.000 A 
ENDBRANCH  21  22
ENDBRANCH   1  21
BRANCH   5  28
ATOM     28  O   UNL     1       6.211   4.844  15.069  0.00  0.00    +0.000 OA
BRANCH  28  29
ATOM     29  C   UNL     1       7.010   4.727  13.880  0.00  0.00    +0.000 C 
BRANCH  29  30
ATOM     30  C   UNL     1       6.314   3.846  12.874  0.00  0.00    +0.000 A 
ATOM     31  C   UNL     1       7.041   2.905  12.132  0.00  0.00    +0.000 A 
ATOM     32  C   UNL     1       6.395   2.078  11.210  0.00  0.00    +0.000 A 
ATOM     33  C   UNL     1       5.018   2.187  11.015  0.00  0.00    +0.000 A 
ATOM     34  C   UNL     1       4.287   3.124  11.742  0.00  0.00    +0.000 A 
ATOM     35  C   UNL     1       4.931   3.952  12.665  0.00  0.00    +0.000 A 
ENDBRANCH  29  30
ENDBRANCH  28  29
ENDBRANCH   5  28
TORSDOF 9
ENDMDL
MODEL 5
REMARK VINA RESULT:      -7.7      0.683      1.203
REMARK  Name = 
REMARK  13 active torsions:
REMARK  status: ('A' for Active; 'I' for Inactive)
REMARK    1  A    between atoms: C_1  and  C_2
REMARK    2  A    between atoms: C_2  and  N_3
REMARK    3  A    between atoms: C_2  and  C_27
REMARK    4  A    between atoms: C_4  and  C_6
REMARK    5  A    between atoms: C_6  and  C_7
REMARK    6  A    between atoms: C_7  and  C_8
REMARK    7  A    between atoms: C_17  and  O_19
REMARK    8  A    between atoms: O_19  and  C_20
REMARK    9  A    between atoms: C_20  and  C_21
REMARK   10  A    between atoms: N_29  and  C_30
REMARK   11  A    between atoms: C_30  and  C_31
REMARK   12  A    between atoms: C_30  and  C_32
REMARK   13  A    between atoms: C_30  and  C_33
REMARK                            x       y       z     vdW  Elec       q    Type
REMARK                         _______ _______ _______ _____ _____    ______ ____
ROOT
ATOM      1  C   UNL     1       4.732   5.131  18.138  0.00  0.00    +0.000 C 
ATOM      2  C   UNL     1       5.462   5.119  19.525  0.00  0.00    +0.000 C 
ATOM      3  C   UNL     1       6.765   5.421  18.784  0.00  0.00    +0.000 C 
ATOM      4  N   UNL     1       6.093   4.917  17.603  0.00  0.00    +0.000 N 
ATOM      5  C   UNL     1       6.658   4.519  16.433  0.00  0.00    +0.000 C 
ATOM      6  O   UNL     1       7.873   4.512  16.262  0.00  0.00    +0.000 OA
ENDROOT
BRANCH   1   8
ATOM      7  N   UNL     1       3.155   7.045  18.572  0.00  0.00    +0.000 N 
ATOM      8  C   UNL     1       4.101   6.539  17.702  0.00  0.00    +0.000 C 
ATOM      9  O   UNL     1       4.386   7.155  16.670  0.00  0.00    +0.000 OA
ATOM     10  H   UNL     1       2.965   6.566  19.447  0.00  0.00    +0.000 HD
BRANCH   7  12
ATOM     11  C   UNL     1       1.454   8.170  17.190  0.00  0.00    +0.000 C 
ATOM     12  C   UNL     1       2.449   8.309  18.340  0.00  0.00    +0.000 C 
BRANCH  12  13
ATOM     13  C   UNL     1       1.700   8.696  19.635  0.00  0.00    +0.000 C 
ATOM     14  O   UNL     1       1.744   7.978  20.637  0.00  0.00    +0.000 OA
ATOM     15  N   UNL     1       0.969   9.865  19.562  0.00  0.00    +0.000 N 
ATOM     16  H   UNL     1       1.106  10.458  18.752  0.00  0.00    +0.000 HD
BRANCH  15  17
ATOM     17  C   UNL     1       0.105  10.385  20.638  0.00  0.00    +0.000 C 
ATOM     18  C   UNL     1      -0.202   9.292  21.671  0.00  0.00    +0.000 C 
ATOM     19  C   UNL     1       0.843  11.535  21.352  0.00  0.00    +0.000 C 
ATOM     20  C   UNL     1      -1.202  10.956  20.060  0.00  0.00    +0.000 C 
ENDBRANCH  15  17
ENDBRANCH  12  13
ENDBRANCH   7  12
ENDBRANCH   1   8
BRANCH   1  21
ATOM     21  C   UNL     1       3.805   3.921  17.921  0.00  0.00    +0.000 C 
BRANCH  21  22
ATOM     22  C   UNL     1       2.967   3.570  19.142  0.00  0.00    +0.000 A 
ATOM     23  C   UNL     1       3.429   2.706  20.143  0.00  0.00    +0.000 A 
ATOM     24  C   UNL     1       2.651   2.440  21.277  0.00  0.00    +0.000 A 
ATOM     25  C   UNL     1       1.409   3.050  21.435  0.00  0.00    +0.000 A 
ATOM     26  C   UNL     1       0.938   3.918  20.458  0.00  0.00    +0.000 A 
ATOM     27  C   UNL     1       1.711   4.175  19.318  0.00  0.00    +0.000 A 
ENDBRANCH  21  22
ENDBRANCH   1  21
BRANCH   5  28
ATOM     28  O   UNL     1       5.748   4.133  15.505  0.00  0.00    +0.000 OA
BRANCH  28  29
ATOM     29  C   UNL     1       5.797   4.868  14.271  0.00  0.00    +0.000 C 
BRANCH  29  30
ATOM     30  C   UNL     1       5.865   3.917  13.103  0.00  0.00    +0.000 A 
ATOM     31  C   UNL     1       7.104   3.474  12.620  0.00  0.00    +0.000 A 
ATOM     32  C   UNL     1       7.168   2.581  11.548  0.00  0.00    +0.000 A 
ATOM     33  C   UNL     1       5.997   2.126  10.944  0.00  0.00    +0.000 A 
ATOM     34  C   UNL     1       4.759   2.565  11.412  0.00  0.00    +0.000 A 
ATOM     35  C   UNL     1       4.693   3.458  12.485  0.00  0.00    +0.000 A 
ENDBRANCH  29  30
ENDBRANCH  28  29
ENDBRANCH   5  28
TORSDOF 9
ENDMDL
MODEL 6
REMARK VINA RESULT:      -7.4      4.687     11.458
REMARK  Name = 
REMARK  13 active torsions:
REMARK  status: ('A' for Active; 'I' for Inactive)
REMARK    1  A    between atoms: C_1  and  C_2
REMARK    2  A    between atoms: C_2  and  N_3
REMARK    3  A    between atoms: C_2  and  C_27
REMARK    4  A    between atoms: C_4  and  C_6
REMARK    5  A    between atoms: C_6  and  C_7
REMARK    6  A    between atoms: C_7  and  C_8
REMARK    7  A    between atoms: C_17  and  O_19
REMARK    8  A    between atoms: O_19  and  C_20
REMARK    9  A    between atoms: C_20  and  C_21
REMARK   10  A    between atoms: N_29  and  C_30
REMARK   11  A    between atoms: C_30  and  C_31
REMARK   12  A    between atoms: C_30  and  C_32
REMARK   13  A    between atoms: C_30  and  C_33
REMARK                            x       y       z     vdW  Elec       q    Type
REMARK                         _______ _______ _______ _____ _____    ______ ____
ROOT
ATOM      1  C   UNL     1      -0.917  12.197  19.573  0.00  0.00    +0.000 C 
ATOM      2  C   UNL     1      -0.428  12.726  18.181  0.00  0.00    +0.000 C 
ATOM      3  C   UNL     1      -0.119  14.063  18.856  0.00  0.00    +0.000 C 
ATOM      4  N   UNL     1      -1.031  13.634  19.897  0.00  0.00    +0.000 N 
ATOM      5  C   UNL     1      -1.626  14.403  20.846  0.00  0.00    +0.000 C 
ATOM      6  O   UNL     1      -1.471  15.618  20.897  0.00  0.00    +0.000 OA
ENDROOT
BRANCH   1   8
ATOM      7  N   UNL     1       0.363  10.106  20.142  0.00  0.00    +0.000 N 
ATOM      8  C   UNL     1       0.189  11.441  20.451  0.00  0.00    +0.000 C 
ATOM      9  O   UNL     1       0.849  11.957  21.360  0.00  0.00    +0.000 OA
ATOM     10  H   UNL     1      -0.137   9.699  19.357  0.00  0.00    +0.000 HD
BRANCH   7  12
ATOM     11  C   UNL     1       0.640   8.545  22.027  0.00  0.00    +0.000 C 
ATOM     12  C   UNL     1       1.313   9.238  20.845  0.00  0.00    +0.000 C 
BRANCH  12  13
ATOM     13  C   UNL     1       1.839   8.180  19.849  0.00  0.00    +0.000 C 
ATOM     14  O   UNL     1       2.011   8.453  18.659  0.00  0.00    +0.000 OA
ATOM     15  N   UNL     1       2.060   6.927  20.387  0.00  0.00    +0.000 N 
ATOM     16  H   UNL     1       2.028   6.834  21.396  0.00  0.00    +0.000 HD
BRANCH  15  17
ATOM     17  C   UNL     1       2.474   5.742  19.615  0.00  0.00    +0.000 C 
ATOM     18  C   UNL     1       1.831   5.744  18.220  0.00  0.00    +0.000 C 
ATOM     19  C   UNL     1       4.006   5.773  19.444  0.00  0.00    +0.000 C 
ATOM     20  C   UNL     1       2.114   4.448  20.366  0.00  0.00    +0.000 C 
ENDBRANCH  15  17
ENDBRANCH  12  13
ENDBRANCH   7  12
ENDBRANCH   1   8
BRANCH   1  21
ATOM     21  C   UNL     1      -2.281  11.486  19.514  0.00  0.00    +0.000 C 
BRANCH  21  22
ATOM     22  C   UNL     1      -2.713  11.112  18.104  0.00  0.00    +0.000 A 
ATOM     23  C   UNL     1      -2.024  10.164  17.336  0.00  0.00    +0.000 A 
ATOM     24  C   UNL     1      -2.475   9.809  16.059  0.00  0.00    +0.000 A 
ATOM     25  C   UNL     1      -3.633  10.384  15.539  0.00  0.00    +0.000 A 
ATOM     26  C   UNL     1      -4.336  11.318  16.289  0.00  0.00    +0.000 A 
ATOM     27  C   UNL     1      -3.878  11.682  17.562  0.00  0.00    +0.000 A 
ENDBRANCH  21  22
ENDBRANCH   1  21
BRANCH   5  28
ATOM     28  O   UNL     1      -2.400  13.690  21.702  0.00  0.00    +0.000 OA
BRANCH  28  29
ATOM     29  C   UNL     1      -3.645  14.316  22.054  0.00  0.00    +0.000 C 
BRANCH  29  30
ATOM     30  C   UNL     1      -4.757  13.784  21.186  0.00  0.00    +0.000 A 
ATOM     31  C   UNL     1      -5.301  14.575  20.167  0.00  0.00    +0.000 A 
ATOM     32  C   UNL     1      -6.322  14.077  19.352  0.00  0.00    +0.000 A 
ATOM     33  C   UNL     1      -6.811  12.787  19.553  0.00  0.00    +0.000 A 
ATOM     34  C   UNL     1      -6.281  11.993  20.568  0.00  0.00    +0.000 A 
ATOM     35  C   UNL     1      -5.260  12.489  21.384  0.00  0.00    +0.000 A 
ENDBRANCH  29  30
ENDBRANCH  28  29
ENDBRANCH   5  28
TORSDOF 9
ENDMDL
MODEL 7
REMARK VINA RESULT:      -7.3      4.935      9.382
REMARK  Name = 
REMARK  13 active torsions:
REMARK  status: ('A' for Active; 'I' for Inactive)
REMARK    1  A    between atoms: C_1  and  C_2
REMARK    2  A    between atoms: C_2  and  N_3
REMARK    3  A    between atoms: C_2  and  C_27
REMARK    4  A    between atoms: C_4  and  C_6
REMARK    5  A    between atoms: C_6  and  C_7
REMARK    6  A    between atoms: C_7  and  C_8
REMARK    7  A    between atoms: C_17  and  O_19
REMARK    8  A    between atoms: O_19  and  C_20
REMARK    9  A    between atoms: C_20  and  C_21
REMARK   10  A    between atoms: N_29  and  C_30
REMARK   11  A    between atoms: C_30  and  C_31
REMARK   12  A    between atoms: C_30  and  C_32
REMARK   13  A    between atoms: C_30  and  C_33
REMARK                            x       y       z     vdW  Elec       q    Type
REMARK                         _______ _______ _______ _____ _____    ______ ____
ROOT
ATOM      1  C   UNL     1       0.423  12.538  19.743  0.00  0.00    +0.000 C 
ATOM      2  C   UNL     1      -0.403  13.621  18.966  0.00  0.00    +0.000 C 
ATOM      3  C   UNL     1      -1.316  12.497  18.476  0.00  0.00    +0.000 C 
ATOM      4  N   UNL     1      -0.224  11.602  18.800  0.00  0.00    +0.000 N 
ATOM      5  C   UNL     1      -0.049  10.322  18.382  0.00  0.00    +0.000 C 
ATOM      6  O   UNL     1      -0.828   9.772  17.610  0.00  0.00    +0.000 OA
ENDROOT
BRANCH   1   8
ATOM      7  N   UNL     1      -0.747  13.327  21.828  0.00  0.00    +0.000 N 
ATOM      8  C   UNL     1      -0.016  12.298  21.266  0.00  0.00    +0.000 C 
ATOM      9  O   UNL     1       0.269  11.301  21.938  0.00  0.00    +0.000 OA
ATOM     10  H   UNL     1      -1.030  14.118  21.257  0.00  0.00    +0.000 HD
BRANCH   7  12
ATOM     11  C   UNL     1      -1.127  14.694  23.842  0.00  0.00    +0.000 C 
ATOM     12  C   UNL     1      -1.224  13.305  23.215  0.00  0.00    +0.000 C 
BRANCH  12  13
ATOM     13  C   UNL     1      -2.694  12.831  23.219  0.00  0.00    +0.000 C 
ATOM     14  O   UNL     1      -2.989  11.668  23.506  0.00  0.00    +0.000 OA
ATOM     15  N   UNL     1      -3.620  13.787  22.850  0.00  0.00    +0.000 N 
ATOM     16  H   UNL     1      -3.302  14.746  22.770  0.00  0.00    +0.000 HD
BRANCH  15  17
ATOM     17  C   UNL     1      -5.065  13.542  22.695  0.00  0.00    +0.000 C 
ATOM     18  C   UNL     1      -5.660  12.937  23.975  0.00  0.00    +0.000 C 
ATOM     19  C   UNL     1      -5.768  14.887  22.421  0.00  0.00    +0.000 C 
ATOM     20  C   UNL     1      -5.337  12.620  21.493  0.00  0.00    +0.000 C 
ENDBRANCH  15  17
ENDBRANCH  12  13
ENDBRANCH   7  12
ENDBRANCH   1   8
BRANCH   1  21
ATOM     21  C   UNL     1       1.943  12.653  19.527  0.00  0.00    +0.000 C 
BRANCH  21  22
ATOM     22  C   UNL     1       2.413  14.073  19.251  0.00  0.00    +0.000 A 
ATOM     23  C   UNL     1       2.397  15.072  20.234  0.00  0.00    +0.000 A 
ATOM     24  C   UNL     1       2.881  16.357  19.960  0.00  0.00    +0.000 A 
ATOM     25  C   UNL     1       3.405  16.656  18.704  0.00  0.00    +0.000 A 
ATOM     26  C   UNL     1       3.439  15.677  17.719  0.00  0.00    +0.000 A 
ATOM     27  C   UNL     1       2.944  14.395  17.990  0.00  0.00    +0.000 A 
ENDBRANCH  21  22
ENDBRANCH   1  21
BRANCH   5  28
ATOM     28  O   UNL     1       1.063   9.739  18.896  0.00  0.00    +0.000 OA
BRANCH  28  29
ATOM     29  C   UNL     1       2.015   9.290  17.918  0.00  0.00    +0.000 C 
BRANCH  29  30
ATOM     30  C   UNL     1       2.578   7.950  18.320  0.00  0.00    +0.000 A 
ATOM     31  C   UNL     1       3.548   7.321  17.528  0.00  0.00    +0.000 A 
ATOM     32  C   UNL     1       4.080   6.086  17.907  0.00  0.00    +0.000 A 
ATOM     33  C   UNL     1       3.645   5.465  19.078  0.00  0.00    +0.000 A 
ATOM     34  C   UNL     1       2.676   6.079  19.870  0.00  0.00    +0.000 A 
ATOM     35  C   UNL     1       2.142   7.314  19.492  0.00  0.00    +0.000 A 
ENDBRANCH  29  30
ENDBRANCH  28  29
ENDBRANCH   5  28
TORSDOF 9
ENDMDL
MODEL 8
REMARK VINA RESULT:      -7.3      3.377     10.524
REMARK  Name = 
REMARK  13 active torsions:
REMARK  status: ('A' for Active; 'I' for Inactive)
REMARK    1  A    between atoms: C_1  and  C_2
REMARK    2  A    between atoms: C_2  and  N_3
REMARK    3  A    between atoms: C_2  and  C_27
REMARK    4  A    between atoms: C_4  and  C_6
REMARK    5  A    between atoms: C_6  and  C_7
REMARK    6  A    between atoms: C_7  and  C_8
REMARK    7  A    between atoms: C_17  and  O_19
REMARK    8  A    between atoms: O_19  and  C_20
REMARK    9  A    between atoms: C_20  and  C_21
REMARK   10  A    between atoms: N_29  and  C_30
REMARK   11  A    between atoms: C_30  and  C_31
REMARK   12  A    between atoms: C_30  and  C_32
REMARK   13  A    between atoms: C_30  and  C_33
REMARK                            x       y       z     vdW  Elec       q    Type
REMARK                         _______ _______ _______ _____ _____    ______ ____
ROOT
ATOM      1  C   UNL     1       0.499  10.047  19.524  0.00  0.00    +0.000 C 
ATOM      2  C   UNL     1       0.897  10.383  18.045  0.00  0.00    +0.000 C 
ATOM      3  C   UNL     1       1.847  11.446  18.598  0.00  0.00    +0.000 C 
ATOM      4  N   UNL     1       1.048  11.390  19.806  0.00  0.00    +0.000 N 
ATOM      5  C   UNL     1       1.007  12.296  20.816  0.00  0.00    +0.000 C 
ATOM      6  O   UNL     1       1.655  13.337  20.789  0.00  0.00    +0.000 OA
ENDROOT
BRANCH   1   8
ATOM      7  N   UNL     1       1.787   7.891  19.345  0.00  0.00    +0.000 N 
ATOM      8  C   UNL     1       1.338   8.868  20.213  0.00  0.00    +0.000 C 
ATOM      9  O   UNL     1       1.575   8.779  21.422  0.00  0.00    +0.000 OA
ATOM     10  H   UNL     1       1.642   7.996  18.346  0.00  0.00    +0.000 HD
BRANCH   7  12
ATOM     11  C   UNL     1       1.661   5.740  20.540  0.00  0.00    +0.000 C 
ATOM     12  C   UNL     1       2.555   6.722  19.784  0.00  0.00    +0.000 C 
BRANCH  12  13
ATOM     13  C   UNL     1       3.152   6.032  18.538  0.00  0.00    +0.000 C 
ATOM     14  O   UNL     1       2.437   5.411  17.747  0.00  0.00    +0.000 OA
ATOM     15  N   UNL     1       4.523   6.139  18.410  0.00  0.00    +0.000 N 
ATOM     16  H   UNL     1       5.006   6.783  19.025  0.00  0.00    +0.000 HD
BRANCH  15  17
ATOM     17  C   UNL     1       5.322   5.488  17.355  0.00  0.00    +0.000 C 
ATOM     18  C   UNL     1       5.148   6.211  16.011  0.00  0.00    +0.000 C 
ATOM     19  C   UNL     1       6.811   5.553  17.752  0.00  0.00    +0.000 C 
ATOM     20  C   UNL     1       4.940   4.005  17.217  0.00  0.00    +0.000 C 
ENDBRANCH  15  17
ENDBRANCH  12  13
ENDBRANCH   7  12
ENDBRANCH   1   8
BRANCH   1  21
ATOM     21  C   UNL     1      -1.022   9.962  19.746  0.00  0.00    +0.000 C 
BRANCH  21  22
ATOM     22  C   UNL     1      -1.839  10.352  18.523  0.00  0.00    +0.000 A 
ATOM     23  C   UNL     1      -1.731   9.671  17.302  0.00  0.00    +0.000 A 
ATOM     24  C   UNL     1      -2.531  10.026  16.209  0.00  0.00    +0.000 A 
ATOM     25  C   UNL     1      -3.464  11.054  16.327  0.00  0.00    +0.000 A 
ATOM     26  C   UNL     1      -3.592  11.734  17.531  0.00  0.00    +0.000 A 
ATOM     27  C   UNL     1      -2.784  11.387  18.621  0.00  0.00    +0.000 A 
ENDBRANCH  21  22
ENDBRANCH   1  21
BRANCH   5  28
ATOM     28  O   UNL     1       0.181  11.930  21.828  0.00  0.00    +0.000 OA
BRANCH  28  29
ATOM     29  C   UNL     1      -0.430  13.024  22.532  0.00  0.00    +0.000 C 
BRANCH  29  30
ATOM     30  C   UNL     1      -1.837  13.240  22.034  0.00  0.00    +0.000 A 
ATOM     31  C   UNL     1      -2.876  12.399  22.457  0.00  0.00    +0.000 A 
ATOM     32  C   UNL     1      -4.182  12.607  22.007  0.00  0.00    +0.000 A 
ATOM     33  C   UNL     1      -4.463  13.651  21.127  0.00  0.00    +0.000 A 
ATOM     34  C   UNL     1      -3.436  14.489  20.695  0.00  0.00    +0.000 A 
ATOM     35  C   UNL     1      -2.129  14.283  21.144  0.00  0.00    +0.000 A 
ENDBRANCH  29  30
ENDBRANCH  28  29
ENDBRANCH   5  28
TORSDOF 9
ENDMDL
MODEL 9
REMARK VINA RESULT:      -7.2      4.607     11.637
REMARK  Name = 
REMARK  13 active torsions:
REMARK  status: ('A' for Active; 'I' for Inactive)
REMARK    1  A    between atoms: C_1  and  C_2
REMARK    2  A    between atoms: C_2  and  N_3
REMARK    3  A    between atoms: C_2  and  C_27
REMARK    4  A    between atoms: C_4  and  C_6
REMARK    5  A    between atoms: C_6  and  C_7
REMARK    6  A    between atoms: C_7  and  C_8
REMARK    7  A    between atoms: C_17  and  O_19
REMARK    8  A    between atoms: O_19  and  C_20
REMARK    9  A    between atoms: C_20  and  C_21
REMARK   10  A    between atoms: N_29  and  C_30
REMARK   11  A    between atoms: C_30  and  C_31
REMARK   12  A    between atoms: C_30  and  C_32
REMARK   13  A    between atoms: C_30  and  C_33
REMARK                            x       y       z     vdW  Elec       q    Type
REMARK                         _______ _______ _______ _____ _____    ______ ____
ROOT
ATOM      1  C   UNL     1      -0.865  12.143  19.388  0.00  0.00    +0.000 C 
ATOM      2  C   UNL     1      -0.597  12.881  18.031  0.00  0.00    +0.000 C 
ATOM      3  C   UNL     1      -0.237  14.127  18.840  0.00  0.00    +0.000 C 
ATOM      4  N   UNL     1      -0.977  13.515  19.925  0.00  0.00    +0.000 N 
ATOM      5  C   UNL     1      -1.455  14.116  21.045  0.00  0.00    +0.000 C 
ATOM      6  O   UNL     1      -1.333  15.320  21.246  0.00  0.00    +0.000 OA
ENDROOT
BRANCH   1   8
ATOM      7  N   UNL     1       0.246   9.958  19.962  0.00  0.00    +0.000 N 
ATOM      8  C   UNL     1       0.380  11.333  19.991  0.00  0.00    +0.000 C 
ATOM      9  O   UNL     1       1.394  11.847  20.475  0.00  0.00    +0.000 OA
ATOM     10  H   UNL     1      -0.561   9.537  19.511  0.00  0.00    +0.000 HD
BRANCH   7  12
ATOM     11  C   UNL     1       0.655   8.066  21.486  0.00  0.00    +0.000 C 
ATOM     12  C   UNL     1       1.266   9.043  20.484  0.00  0.00    +0.000 C 
BRANCH  12  13
ATOM     13  C   UNL     1       1.877   8.263  19.298  0.00  0.00    +0.000 C 
ATOM     14  O   UNL     1       1.681   8.616  18.133  0.00  0.00    +0.000 OA
ATOM     15  N   UNL     1       2.611   7.147  19.648  0.00  0.00    +0.000 N 
ATOM     16  H   UNL     1       2.836   7.016  20.627  0.00  0.00    +0.000 HD
BRANCH  15  17
ATOM     17  C   UNL     1       3.211   6.201  18.689  0.00  0.00    +0.000 C 
ATOM     18  C   UNL     1       3.975   6.948  17.586  0.00  0.00    +0.000 C 
ATOM     19  C   UNL     1       4.207   5.297  19.443  0.00  0.00    +0.000 C 
ATOM     20  C   UNL     1       2.132   5.294  18.070  0.00  0.00    +0.000 C 
ENDBRANCH  15  17
ENDBRANCH  12  13
ENDBRANCH   7  12
ENDBRANCH   1   8
BRANCH   1  21
ATOM     21  C   UNL     1      -2.200  11.376  19.416  0.00  0.00    +0.000 C 
BRANCH  21  22
ATOM     22  C   UNL     1      -2.734  11.033  18.034  0.00  0.00    +0.000 A 
ATOM     23  C   UNL     1      -3.874  11.647  17.498  0.00  0.00    +0.000 A 
ATOM     24  C   UNL     1      -4.313  11.342  16.204  0.00  0.00    +0.000 A 
ATOM     25  C   UNL     1      -3.607  10.432  15.420  0.00  0.00    +0.000 A 
ATOM     26  C   UNL     1      -2.469   9.820  15.930  0.00  0.00    +0.000 A 
ATOM     27  C   UNL     1      -2.036  10.117  17.229  0.00  0.00    +0.000 A 
ENDBRANCH  21  22
ENDBRANCH   1  21
BRANCH   5  28
ATOM     28  O   UNL     1      -2.075  13.254  21.890  0.00  0.00    +0.000 OA
BRANCH  28  29
ATOM     29  C   UNL     1      -3.101  13.844  22.706  0.00  0.00    +0.000 C 
BRANCH  29  30
ATOM     30  C   UNL     1      -4.434  13.756  22.007  0.00  0.00    +0.000 A 
ATOM     31  C   UNL     1      -4.824  12.571  21.370  0.00  0.00    +0.000 A 
ATOM     32  C   UNL     1      -6.065  12.483  20.734  0.00  0.00    +0.000 A 
ATOM     33  C   UNL     1      -6.925  13.581  20.723  0.00  0.00    +0.000 A 
ATOM     34  C   UNL     1      -6.544  14.767  21.348  0.00  0.00    +0.000 A 
ATOM     35  C   UNL     1      -5.304  14.856  21.985  0.00  0.00    +0.000 A 
ENDBRANCH  29  30
ENDBRANCH  28  29
ENDBRANCH   5  28
TORSDOF 9
ENDMDL
