MODEL 1
REMARK VINA RESULT:      -7.5      0.000      0.000
REMARK  Name = 
REMARK  6 active torsions:
REMARK  status: ('A' for Active; 'I' for Inactive)
REMARK    1  A    between atoms: C_1  and  N_2
REMARK    2  A    between atoms: C_9  and  C_10
REMARK    3  A    between atoms: C_10  and  N_11
REMARK    4  A    between atoms: N_11  and  C_12
REMARK    5  A    between atoms: N_11  and  C_16
REMARK    6  A    between atoms: C_12  and  C_13
REMARK                            x       y       z     vdW  Elec       q    Type
REMARK                         _______ _______ _______ _____ _____    ______ ____
ROOT
ATOM      1  C   UNL     1       5.072   3.630  16.285  0.00  0.00    +0.000 C 
ENDROOT
BRANCH   1  10
ATOM      2  C   UNL     1       2.381   7.635  18.826  0.00  0.00    +0.000 C 
ATOM      3  N   UNL     1       2.389   6.303  19.377  0.00  0.00    +0.000 N 
ATOM      4  N   UNL     1       1.775   6.062  20.561  0.00  0.00    +0.000 NA
ATOM      5  C   UNL     1       2.211   4.843  20.905  0.00  0.00    +0.000 A 
ATOM      6  C   UNL     1       3.079   4.311  19.945  0.00  0.00    +0.000 A 
ATOM      7  C   UNL     1       3.870   3.128  19.827  0.00  0.00    +0.000 A 
ATOM      8  O   UNL     1       3.910   2.230  20.664  0.00  0.00    +0.000 OA
ATOM      9  N   UNL     1       4.580   3.084  18.643  0.00  0.00    +0.000 N 
ATOM     10  C   UNL     1       4.392   3.980  17.604  0.00  0.00    +0.000 A 
ATOM     11  N   UNL     1       3.686   5.078  17.701  0.00  0.00    +0.000 NA
ATOM     12  C   UNL     1       3.085   5.218  18.911  0.00  0.00    +0.000 A 
ATOM     13  H   UNL     1       5.152   2.265  18.479  0.00  0.00    +0.000 HD
ENDBRANCH   1  10
BRANCH   1  14
ATOM     14  N   UNL     1       6.083   4.621  15.818  0.00  0.00    +0.000 NA
BRANCH  14  15
ATOM     15  C   UNL     1       6.627   4.166  14.508  0.00  0.00    +0.000 C 
ATOM     16  C   UNL     1       5.573   3.706  13.489  0.00  0.00    +0.000 C 
ATOM     17  C   UNL     1       6.383   3.525  12.210  0.00  0.00    +0.000 C 
ATOM     18  C   UNL     1       7.508   4.555  12.292  0.00  0.00    +0.000 C 
ATOM     19  C   UNL     1       7.372   5.216  13.666  0.00  0.00    +0.000 C 
ENDBRANCH  14  15
BRANCH  14  20
ATOM     20  C   UNL     1       7.202   4.851  16.784  0.00  0.00    +0.000 C 
BRANCH  20  21
ATOM     21  C   UNL     1       7.205   6.228  17.451  0.00  0.00    +0.000 C 
ATOM     22  N   UNL     1       6.339   7.143  16.930  0.00  0.00    +0.000 N 
ATOM     23  O   UNL     1       7.924   6.518  18.400  0.00  0.00    +0.000 OA
ATOM     24  H   UNL     1       5.656   6.936  16.212  0.00  0.00    +0.000 HD
ATOM     25  H   UNL     1       6.301   8.050  17.376  0.00  0.00    +0.000 HD
ENDBRANCH  20  21
ENDBRANCH  14  20
ENDBRANCH   1  14
TORSDOF 5
ENDMDL
MODEL 2
REMARK VINA RESULT:      -7.3      2.223      4.112
REMARK  Name = 
REMARK  6 active torsions:
REMARK  status: ('A' for Active; 'I' for Inactive)
REMARK    1  A    between atoms: C_1  and  N_2
REMARK    2  A    between atoms: C_9  and  C_10
REMARK    3  A    between atoms: C_10  and  N_11
REMARK    4  A    between atoms: N_11  and  C_12
REMARK    5  A    between atoms: N_11  and  C_16
REMARK    6  A    between atoms: C_12  and  C_13
REMARK                            x       y       z     vdW  Elec       q    Type
REMARK                         _______ _______ _______ _____ _____    ______ ____
ROOT
ATOM      1  C   UNL     1       4.326   6.491  17.151  0.00  0.00    +0.000 C 
ENDROOT
BRANCH   1  10
ATOM      2  C   UNL     1       2.302   1.618  18.529  0.00  0.00    +0.000 C 
ATOM      3  N   UNL     1       2.186   2.733  19.434  0.00  0.00    +0.000 N 
ATOM      4  N   UNL     1       1.518   2.583  20.604  0.00  0.00    +0.000 NA
ATOM      5  C   UNL     1       1.355   3.838  21.042  0.00  0.00    +0.000 A 
ATOM      6  C   UNL     1       1.924   4.772  20.170  0.00  0.00    +0.000 A 
ATOM      7  C   UNL     1       1.984   6.198  20.097  0.00  0.00    +0.000 A 
ATOM      8  O   UNL     1       1.494   6.959  20.926  0.00  0.00    +0.000 OA
ATOM      9  N   UNL     1       2.684   6.640  18.992  0.00  0.00    +0.000 N 
ATOM     10  C   UNL     1       3.415   5.804  18.164  0.00  0.00    +0.000 A 
ATOM     11  N   UNL     1       3.357   4.497  18.205  0.00  0.00    +0.000 NA
ATOM     12  C   UNL     1       2.559   4.031  19.201  0.00  0.00    +0.000 A 
ATOM     13  H   UNL     1       2.786   7.641  18.881  0.00  0.00    +0.000 HD
ENDBRANCH   1  10
BRANCH   1  14
ATOM     14  N   UNL     1       5.384   5.619  16.567  0.00  0.00    +0.000 NA
BRANCH  14  15
ATOM     15  C   UNL     1       6.677   5.921  17.243  0.00  0.00    +0.000 C 
ATOM     16  C   UNL     1       6.961   7.414  17.471  0.00  0.00    +0.000 C 
ATOM     17  C   UNL     1       8.201   7.400  18.358  0.00  0.00    +0.000 C 
ATOM     18  C   UNL     1       8.089   6.125  19.194  0.00  0.00    +0.000 C 
ATOM     19  C   UNL     1       6.846   5.395  18.678  0.00  0.00    +0.000 C 
ENDBRANCH  14  15
BRANCH  14  20
ATOM     20  C   UNL     1       5.538   5.756  15.085  0.00  0.00    +0.000 C 
BRANCH  20  21
ATOM     21  C   UNL     1       6.639   4.891  14.469  0.00  0.00    +0.000 C 
ATOM     22  N   UNL     1       6.357   3.562  14.353  0.00  0.00    +0.000 N 
ATOM     23  O   UNL     1       7.715   5.338  14.087  0.00  0.00    +0.000 OA
ATOM     24  H   UNL     1       5.456   3.151  14.562  0.00  0.00    +0.000 HD
ATOM     25  H   UNL     1       7.058   2.977  13.919  0.00  0.00    +0.000 HD
ENDBRANCH  20  21
ENDBRANCH  14  20
ENDBRANCH   1  14
TORSDOF 5
ENDMDL
MODEL 3
REMARK VINA RESULT:      -7.2      1.525      2.231
REMARK  Name = 
REMARK  6 active torsions:
REMARK  status: ('A' for Active; 'I' for Inactive)
REMARK    1  A    between atoms: C_1  and  N_2
REMARK    2  A    between atoms: C_9  and  C_10
REMARK    3  A    between atoms: C_10  and  N_11
REMARK    4  A    between atoms: N_11  and  C_12
REMARK    5  A    between atoms: N_11  and  C_16
REMARK    6  A    between atoms: C_12  and  C_13
REMARK                            x       y       z     vdW  Elec       q    Type
REMARK                         _______ _______ _______ _____ _____    ______ ____
ROOT
ATOM      1  C   UNL     1       5.098   3.791  16.365  0.00  0.00    +0.000 C 
ENDROOT
BRANCH   1  10
ATOM      2  C   UNL     1       1.709   2.540  20.450  0.00  0.00    +0.000 C 
ATOM      3  N   UNL     1       2.108   3.908  20.232  0.00  0.00    +0.000 N 
ATOM      4  N   UNL     1       1.590   4.892  21.009  0.00  0.00    +0.000 NA
ATOM      5  C   UNL     1       1.933   6.017  20.368  0.00  0.00    +0.000 A 
ATOM      6  C   UNL     1       2.670   5.753  19.209  0.00  0.00    +0.000 A 
ATOM      7  C   UNL     1       3.211   6.534  18.142  0.00  0.00    +0.000 A 
ATOM      8  O   UNL     1       3.130   7.757  18.064  0.00  0.00    +0.000 OA
ATOM      9  N   UNL     1       3.869   5.762  17.205  0.00  0.00    +0.000 N 
ATOM     10  C   UNL     1       4.147   4.417  17.380  0.00  0.00    +0.000 A 
ATOM     11  N   UNL     1       3.645   3.683  18.340  0.00  0.00    +0.000 NA
ATOM     12  C   UNL     1       2.874   4.393  19.204  0.00  0.00    +0.000 A 
ATOM     13  H   UNL     1       4.297   6.248  16.427  0.00  0.00    +0.000 HD
ENDBRANCH   1  10
BRANCH   1  14
ATOM     14  N   UNL     1       6.218   4.672  15.927  0.00  0.00    +0.000 NA
BRANCH  14  15
ATOM     15  C   UNL     1       6.695   4.208  14.594  0.00  0.00    +0.000 C 
ATOM     16  C   UNL     1       5.590   3.763  13.624  0.00  0.00    +0.000 C 
ATOM     17  C   UNL     1       6.339   3.569  12.310  0.00  0.00    +0.000 C 
ATOM     18  C   UNL     1       7.483   4.582  12.341  0.00  0.00    +0.000 C 
ATOM     19  C   UNL     1       7.418   5.245  13.719  0.00  0.00    +0.000 C 
ENDBRANCH  14  15
BRANCH  14  20
ATOM     20  C   UNL     1       7.362   4.726  16.890  0.00  0.00    +0.000 C 
BRANCH  20  21
ATOM     21  C   UNL     1       7.460   6.020  17.700  0.00  0.00    +0.000 C 
ATOM     22  N   UNL     1       7.283   7.176  16.999  0.00  0.00    +0.000 N 
ATOM     23  O   UNL     1       7.677   6.047  18.907  0.00  0.00    +0.000 OA
ATOM     24  H   UNL     1       7.009   7.216  16.026  0.00  0.00    +0.000 HD
ATOM     25  H   UNL     1       7.311   8.042  17.522  0.00  0.00    +0.000 HD
ENDBRANCH  20  21
ENDBRANCH  14  20
ENDBRANCH   1  14
TORSDOF 5
ENDMDL
MODEL 4
REMARK VINA RESULT:      -7.2      0.726      1.115
REMARK  Name = 
REMARK  6 active torsions:
REMARK  status: ('A' for Active; 'I' for Inactive)
REMARK    1  A    between atoms: C_1  and  N_2
REMARK    2  A    between atoms: C_9  and  C_10
REMARK    3  A    between atoms: C_10  and  N_11
REMARK    4  A    between atoms: N_11  and  C_12
REMARK    5  A    between atoms: N_11  and  C_16
REMARK    6  A    between atoms: C_12  and  C_13
REMARK                            x       y       z     vdW  Elec       q    Type
REMARK                         _______ _______ _______ _____ _____    ______ ____
ROOT
ATOM      1  C   UNL     1       4.947   4.026  16.139  0.00  0.00    +0.000 C 
ENDROOT
BRANCH   1  10
ATOM      2  C   UNL     1       2.174   7.617  19.163  0.00  0.00    +0.000 C 
ATOM      3  N   UNL     1       2.294   6.247  19.594  0.00  0.00    +0.000 N 
ATOM      4  N   UNL     1       1.766   5.867  20.783  0.00  0.00    +0.000 NA
ATOM      5  C   UNL     1       2.295   4.654  20.994  0.00  0.00    +0.000 A 
ATOM      6  C   UNL     1       3.135   4.263  19.946  0.00  0.00    +0.000 A 
ATOM      7  C   UNL     1       3.988   3.148  19.682  0.00  0.00    +0.000 A 
ATOM      8  O   UNL     1       4.131   2.187  20.433  0.00  0.00    +0.000 OA
ATOM      9  N   UNL     1       4.629   3.251  18.463  0.00  0.00    +0.000 N 
ATOM     10  C   UNL     1       4.326   4.217  17.518  0.00  0.00    +0.000 A 
ATOM     11  N   UNL     1       3.562   5.255  17.749  0.00  0.00    +0.000 NA
ATOM     12  C   UNL     1       3.026   5.253  18.998  0.00  0.00    +0.000 A 
ATOM     13  H   UNL     1       5.238   2.487  18.196  0.00  0.00    +0.000 HD
ENDBRANCH   1  10
BRANCH   1  14
ATOM     14  N   UNL     1       5.868   5.117  15.708  0.00  0.00    +0.000 NA
BRANCH  14  15
ATOM     15  C   UNL     1       6.115   4.982  14.246  0.00  0.00    +0.000 C 
ATOM     16  C   UNL     1       7.571   5.200  13.807  0.00  0.00    +0.000 C 
ATOM     17  C   UNL     1       7.559   4.783  12.341  0.00  0.00    +0.000 C 
ATOM     18  C   UNL     1       6.493   3.692  12.237  0.00  0.00    +0.000 C 
ATOM     19  C   UNL     1       5.853   3.599  13.625  0.00  0.00    +0.000 C 
ENDBRANCH  14  15
BRANCH  14  20
ATOM     20  C   UNL     1       7.168   5.143  16.447  0.00  0.00    +0.000 C 
BRANCH  20  21
ATOM     21  C   UNL     1       7.366   6.355  17.360  0.00  0.00    +0.000 C 
ATOM     22  N   UNL     1       7.496   6.083  18.690  0.00  0.00    +0.000 N 
ATOM     23  O   UNL     1       7.415   7.509  16.950  0.00  0.00    +0.000 OA
ATOM     24  H   UNL     1       7.558   5.150  19.077  0.00  0.00    +0.000 HD
ATOM     25  H   UNL     1       7.660   6.867  19.308  0.00  0.00    +0.000 HD
ENDBRANCH  20  21
ENDBRANCH  14  20
ENDBRANCH   1  14
TORSDOF 5
ENDMDL
MODEL 5
REMARK VINA RESULT:      -7.2      2.382      4.053
REMARK  Name = 
REMARK  6 active torsions:
REMARK  status: ('A' for Active; 'I' for Inactive)
REMARK    1  A    between atoms: C_1  and  N_2
REMARK    2  A    between atoms: C_9  and  C_10
REMARK    3  A    between atoms: C_10  and  N_11
REMARK    4  A    between atoms: N_11  and  C_12
REMARK    5  A    between atoms: N_11  and  C_16
REMARK    6  A    between atoms: C_12  and  C_13
REMARK                            x       y       z     vdW  Elec       q    Type
REMARK                         _______ _______ _______ _____ _____    ______ ____
ROOT
ATOM      1  C   UNL     1       5.036   5.641  16.656  0.00  0.00    +0.000 C 
ENDROOT
BRANCH   1  10
ATOM      2  C   UNL     1       1.783   1.846  18.835  0.00  0.00    +0.000 C 
ATOM      3  N   UNL     1       1.893   3.145  19.448  0.00  0.00    +0.000 N 
ATOM      4  N   UNL     1       1.138   3.442  20.535  0.00  0.00    +0.000 NA
ATOM      5  C   UNL     1       1.266   4.770  20.659  0.00  0.00    +0.000 A 
ATOM      6  C   UNL     1       2.102   5.307  19.675  0.00  0.00    +0.000 A 
ATOM      7  C   UNL     1       2.520   6.619  19.293  0.00  0.00    +0.000 A 
ATOM      8  O   UNL     1       2.185   7.651  19.868  0.00  0.00    +0.000 OA
ATOM      9  N   UNL     1       3.374   6.606  18.208  0.00  0.00    +0.000 N 
ATOM     10  C   UNL     1       3.923   5.449  17.680  0.00  0.00    +0.000 A 
ATOM     11  N   UNL     1       3.539   4.240  18.004  0.00  0.00    +0.000 NA
ATOM     12  C   UNL     1       2.591   4.227  18.977  0.00  0.00    +0.000 A 
ATOM     13  H   UNL     1       3.729   7.499  17.890  0.00  0.00    +0.000 HD
ENDBRANCH   1  10
BRANCH   1  14
ATOM     14  N   UNL     1       6.339   5.012  17.019  0.00  0.00    +0.000 NA
BRANCH  14  15
ATOM     15  C   UNL     1       7.313   6.091  17.346  0.00  0.00    +0.000 C 
ATOM     16  C   UNL     1       6.810   7.521  17.099  0.00  0.00    +0.000 C 
ATOM     17  C   UNL     1       7.901   8.385  17.722  0.00  0.00    +0.000 C 
ATOM     18  C   UNL     1       8.458   7.562  18.883  0.00  0.00    +0.000 C 
ATOM     19  C   UNL     1       7.745   6.209  18.817  0.00  0.00    +0.000 C 
ENDBRANCH  14  15
BRANCH  14  20
ATOM     20  C   UNL     1       6.901   4.120  15.958  0.00  0.00    +0.000 C 
BRANCH  20  21
ATOM     21  C   UNL     1       6.641   4.583  14.523  0.00  0.00    +0.000 C 
ATOM     22  N   UNL     1       7.536   5.477  14.015  0.00  0.00    +0.000 N 
ATOM     23  O   UNL     1       5.700   4.186  13.845  0.00  0.00    +0.000 OA
ATOM     24  H   UNL     1       8.381   5.769  14.489  0.00  0.00    +0.000 HD
ATOM     25  H   UNL     1       7.401   5.772  13.056  0.00  0.00    +0.000 HD
ENDBRANCH  20  21
ENDBRANCH  14  20
ENDBRANCH   1  14
TORSDOF 5
ENDMDL
MODEL 6
REMARK VINA RESULT:      -7.1      1.959      3.449
REMARK  Name = 
REMARK  6 active torsions:
REMARK  status: ('A' for Active; 'I' for Inactive)
REMARK    1  A    between atoms: C_1  and  N_2
REMARK    2  A    between atoms: C_9  and  C_10
REMARK    3  A    between atoms: C_10  and  N_11
REMARK    4  A    between atoms: N_11  and  C_12
REMARK    5  A    between atoms: N_11  and  C_16
REMARK    6  A    between atoms: C_12  and  C_13
REMARK                            x       y       z     vdW  Elec       q    Type
REMARK                         _______ _______ _______ _____ _____    ______ ____
ROOT
ATOM      1  C   UNL     1       5.142   4.720  17.127  0.00  0.00    +0.000 C 
ENDROOT
BRANCH   1  10
ATOM      2  C   UNL     1       1.150   5.710  20.708  0.00  0.00    +0.000 C 
ATOM      3  N   UNL     1       1.813   4.430  20.697  0.00  0.00    +0.000 N 
ATOM      4  N   UNL     1       1.482   3.494  21.619  0.00  0.00    +0.000 NA
ATOM      5  C   UNL     1       2.455   2.580  21.509  0.00  0.00    +0.000 A 
ATOM      6  C   UNL     1       3.383   2.923  20.520  0.00  0.00    +0.000 A 
ATOM      7  C   UNL     1       4.614   2.380  20.041  0.00  0.00    +0.000 A 
ATOM      8  O   UNL     1       5.131   1.350  20.463  0.00  0.00    +0.000 OA
ATOM      9  N   UNL     1       5.160   3.132  19.019  0.00  0.00    +0.000 N 
ATOM     10  C   UNL     1       4.494   4.173  18.395  0.00  0.00    +0.000 A 
ATOM     11  N   UNL     1       3.376   4.695  18.831  0.00  0.00    +0.000 NA
ATOM     12  C   UNL     1       2.884   4.060  19.927  0.00  0.00    +0.000 A 
ATOM     13  H   UNL     1       6.026   2.799  18.614  0.00  0.00    +0.000 HD
ENDBRANCH   1  10
BRANCH   1  14
ATOM     14  N   UNL     1       6.609   4.482  17.019  0.00  0.00    +0.000 NA
BRANCH  14  15
ATOM     15  C   UNL     1       7.319   5.773  17.237  0.00  0.00    +0.000 C 
ATOM     16  C   UNL     1       6.447   7.030  17.089  0.00  0.00    +0.000 C 
ATOM     17  C   UNL     1       7.362   8.147  17.579  0.00  0.00    +0.000 C 
ATOM     18  C   UNL     1       8.257   7.504  18.638  0.00  0.00    +0.000 C 
ATOM     19  C   UNL     1       7.900   6.015  18.640  0.00  0.00    +0.000 C 
ENDBRANCH  14  15
BRANCH  14  20
ATOM     20  C   UNL     1       7.034   3.877  15.718  0.00  0.00    +0.000 C 
BRANCH  20  21
ATOM     21  C   UNL     1       6.485   4.577  14.474  0.00  0.00    +0.000 C 
ATOM     22  N   UNL     1       7.340   5.435  13.847  0.00  0.00    +0.000 N 
ATOM     23  O   UNL     1       5.353   4.394  14.039  0.00  0.00    +0.000 OA
ATOM     24  H   UNL     1       8.312   5.557  14.101  0.00  0.00    +0.000 HD
ATOM     25  H   UNL     1       7.009   5.884  13.003  0.00  0.00    +0.000 HD
ENDBRANCH  20  21
ENDBRANCH  14  20
ENDBRANCH   1  14
TORSDOF 5
ENDMDL
MODEL 7
REMARK VINA RESULT:      -7.1      1.848      3.478
REMARK  Name = 
REMARK  6 active torsions:
REMARK  status: ('A' for Active; 'I' for Inactive)
REMARK    1  A    between atoms: C_1  and  N_2
REMARK    2  A    between atoms: C_9  and  C_10
REMARK    3  A    between atoms: C_10  and  N_11
REMARK    4  A    between atoms: N_11  and  C_12
REMARK    5  A    between atoms: N_11  and  C_16
REMARK    6  A    between atoms: C_12  and  C_13
REMARK                            x       y       z     vdW  Elec       q    Type
REMARK                         _______ _______ _______ _____ _____    ______ ____
ROOT
ATOM      1  C   UNL     1       5.182   5.087  16.845  0.00  0.00    +0.000 C 
ENDROOT
BRANCH   1  10
ATOM      2  C   UNL     1       1.498   5.990  20.763  0.00  0.00    +0.000 C 
ATOM      3  N   UNL     1       1.649   4.671  20.200  0.00  0.00    +0.000 N 
ATOM      4  N   UNL     1       0.915   3.642  20.690  0.00  0.00    +0.000 NA
ATOM      5  C   UNL     1       1.497   2.556  20.164  0.00  0.00    +0.000 A 
ATOM      6  C   UNL     1       2.576   2.891  19.340  0.00  0.00    +0.000 A 
ATOM      7  C   UNL     1       3.567   2.167  18.609  0.00  0.00    +0.000 A 
ATOM      8  O   UNL     1       3.633   0.942  18.551  0.00  0.00    +0.000 OA
ATOM      9  N   UNL     1       4.443   3.000  17.940  0.00  0.00    +0.000 N 
ATOM     10  C   UNL     1       4.262   4.368  17.826  0.00  0.00    +0.000 A 
ATOM     11  N   UNL     1       3.373   5.049  18.503  0.00  0.00    +0.000 NA
ATOM     12  C   UNL     1       2.582   4.265  19.282  0.00  0.00    +0.000 A 
ATOM     13  H   UNL     1       5.163   2.558  17.384  0.00  0.00    +0.000 HD
ENDBRANCH   1  10
BRANCH   1  14
ATOM     14  N   UNL     1       6.625   4.732  16.963  0.00  0.00    +0.000 NA
BRANCH  14  15
ATOM     15  C   UNL     1       7.401   5.975  17.232  0.00  0.00    +0.000 C 
ATOM     16  C   UNL     1       6.615   7.284  17.062  0.00  0.00    +0.000 C 
ATOM     17  C   UNL     1       7.572   8.337  17.611  0.00  0.00    +0.000 C 
ATOM     18  C   UNL     1       8.375   7.628  18.701  0.00  0.00    +0.000 C 
ATOM     19  C   UNL     1       7.929   6.163  18.664  0.00  0.00    +0.000 C 
ENDBRANCH  14  15
BRANCH  14  20
ATOM     20  C   UNL     1       7.180   4.032  15.762  0.00  0.00    +0.000 C 
BRANCH  20  21
ATOM     21  C   UNL     1       6.770   4.637  14.418  0.00  0.00    +0.000 C 
ATOM     22  N   UNL     1       5.708   4.048  13.799  0.00  0.00    +0.000 N 
ATOM     23  O   UNL     1       7.337   5.597  13.908  0.00  0.00    +0.000 OA
ATOM     24  H   UNL     1       5.143   3.317  14.211  0.00  0.00    +0.000 HD
ATOM     25  H   UNL     1       5.399   4.452  12.924  0.00  0.00    +0.000 HD
ENDBRANCH  20  21
ENDBRANCH  14  20
ENDBRANCH   1  14
TORSDOF 5
ENDMDL
MODEL 8
REMARK VINA RESULT:      -7.1      1.830      3.380
REMARK  Name = 
REMARK  6 active torsions:
REMARK  status: ('A' for Active; 'I' for Inactive)
REMARK    1  A    between atoms: C_1  and  N_2
REMARK    2  A    between atoms: C_9  and  C_10
REMARK    3  A    between atoms: C_10  and  N_11
REMARK    4  A    between atoms: N_11  and  C_12
REMARK    5  A    between atoms: N_11  and  C_16
REMARK    6  A    between atoms: C_12  and  C_13
REMARK                            x       y       z     vdW  Elec       q    Type
REMARK                         _______ _______ _______ _____ _____    ______ ____
ROOT
ATOM      1  C   UNL     1       4.169   4.125  16.463  0.00  0.00    +0.000 C 
ENDROOT
BRANCH   1  10
ATOM      2  C   UNL     1       1.453   5.690  20.925  0.00  0.00    +0.000 C 
ATOM      3  N   UNL     1       2.035   4.373  20.856  0.00  0.00    +0.000 N 
ATOM      4  N   UNL     1       1.958   3.546  21.927  0.00  0.00    +0.000 NA
ATOM      5  C   UNL     1       2.821   2.564  21.635  0.00  0.00    +0.000 A 
ATOM      6  C   UNL     1       3.427   2.757  20.389  0.00  0.00    +0.000 A 
ATOM      7  C   UNL     1       4.441   2.093  19.633  0.00  0.00    +0.000 A 
ATOM      8  O   UNL     1       5.022   1.073  19.991  0.00  0.00    +0.000 OA
ATOM      9  N   UNL     1       4.687   2.714  18.423  0.00  0.00    +0.000 N 
ATOM     10  C   UNL     1       3.905   3.736  17.914  0.00  0.00    +0.000 A 
ATOM     11  N   UNL     1       2.985   4.368  18.599  0.00  0.00    +0.000 NA
ATOM     12  C   UNL     1       2.817   3.866  19.851  0.00  0.00    +0.000 A 
ATOM     13  H   UNL     1       5.382   2.290  17.822  0.00  0.00    +0.000 HD
ENDBRANCH   1  10
BRANCH   1  14
ATOM     14  N   UNL     1       5.589   4.450  16.149  0.00  0.00    +0.000 NA
BRANCH  14  15
ATOM     15  C   UNL     1       6.174   5.192  17.301  0.00  0.00    +0.000 C 
ATOM     16  C   UNL     1       7.508   4.639  17.824  0.00  0.00    +0.000 C 
ATOM     17  C   UNL     1       7.960   5.704  18.817  0.00  0.00    +0.000 C 
ATOM     18  C   UNL     1       7.412   7.024  18.275  0.00  0.00    +0.000 C 
ATOM     19  C   UNL     1       6.571   6.656  17.050  0.00  0.00    +0.000 C 
ENDBRANCH  14  15
BRANCH  14  20
ATOM     20  C   UNL     1       5.770   5.236  14.889  0.00  0.00    +0.000 C 
BRANCH  20  21
ATOM     21  C   UNL     1       6.883   4.731  13.969  0.00  0.00    +0.000 C 
ATOM     22  N   UNL     1       6.613   3.585  13.281  0.00  0.00    +0.000 N 
ATOM     23  O   UNL     1       7.959   5.303  13.833  0.00  0.00    +0.000 OA
ATOM     24  H   UNL     1       5.714   3.121  13.279  0.00  0.00    +0.000 HD
ATOM     25  H   UNL     1       7.323   3.251  12.642  0.00  0.00    +0.000 HD
ENDBRANCH  20  21
ENDBRANCH  14  20
ENDBRANCH   1  14
TORSDOF 5
ENDMDL
MODEL 9
REMARK VINA RESULT:      -7.0      1.473      3.174
REMARK  Name = 
REMARK  6 active torsions:
REMARK  status: ('A' for Active; 'I' for Inactive)
REMARK    1  A    between atoms: C_1  and  N_2
REMARK    2  A    between atoms: C_9  and  C_10
REMARK    3  A    between atoms: C_10  and  N_11
REMARK    4  A    between atoms: N_11  and  C_12
REMARK    5  A    between atoms: N_11  and  C_16
REMARK    6  A    between atoms: C_12  and  C_13
REMARK                            x       y       z     vdW  Elec       q    Type
REMARK                         _______ _______ _______ _____ _____    ______ ____
ROOT
ATOM      1  C   UNL     1       5.090   3.508  16.421  0.00  0.00    +0.000 C 
ENDROOT
BRANCH   1  10
ATOM      2  C   UNL     1       2.390   7.610  18.791  0.00  0.00    +0.000 C 
ATOM      3  N   UNL     1       2.371   6.294  19.379  0.00  0.00    +0.000 N 
ATOM      4  N   UNL     1       1.730   6.093  20.557  0.00  0.00    +0.000 NA
ATOM      5  C   UNL     1       2.146   4.880  20.943  0.00  0.00    +0.000 A 
ATOM      6  C   UNL     1       3.028   4.312  20.018  0.00  0.00    +0.000 A 
ATOM      7  C   UNL     1       3.809   3.118  19.950  0.00  0.00    +0.000 A 
ATOM      8  O   UNL     1       3.821   2.244  20.812  0.00  0.00    +0.000 OA
ATOM      9  N   UNL     1       4.543   3.034  18.783  0.00  0.00    +0.000 N 
ATOM     10  C   UNL     1       4.386   3.902  17.716  0.00  0.00    +0.000 A 
ATOM     11  N   UNL     1       3.690   5.009  17.766  0.00  0.00    +0.000 NA
ATOM     12  C   UNL     1       3.065   5.190  18.959  0.00  0.00    +0.000 A 
ATOM     13  H   UNL     1       5.109   2.204  18.654  0.00  0.00    +0.000 HD
ENDBRANCH   1  10
BRANCH   1  14
ATOM     14  N   UNL     1       6.291   4.326  16.087  0.00  0.00    +0.000 NA
BRANCH  14  15
ATOM     15  C   UNL     1       6.639   5.165  17.267  0.00  0.00    +0.000 C 
ATOM     16  C   UNL     1       7.775   4.618  18.145  0.00  0.00    +0.000 C 
ATOM     17  C   UNL     1       8.053   5.766  19.109  0.00  0.00    +0.000 C 
ATOM     18  C   UNL     1       7.736   7.040  18.326  0.00  0.00    +0.000 C 
ATOM     19  C   UNL     1       7.181   6.575  16.977  0.00  0.00    +0.000 C 
ENDBRANCH  14  15
BRANCH  14  20
ATOM     20  C   UNL     1       6.122   5.189  14.876  0.00  0.00    +0.000 C 
BRANCH  20  21
ATOM     21  C   UNL     1       7.035   4.835  13.701  0.00  0.00    +0.000 C 
ATOM     22  N   UNL     1       6.671   3.740  12.975  0.00  0.00    +0.000 N 
ATOM     23  O   UNL     1       8.034   5.480  13.402  0.00  0.00    +0.000 OA
ATOM     24  H   UNL     1       5.812   3.224  13.113  0.00  0.00    +0.000 HD
ATOM     25  H   UNL     1       7.243   3.506  12.172  0.00  0.00    +0.000 HD
ENDBRANCH  20  21
ENDBRANCH  14  20
ENDBRANCH   1  14
TORSDOF 5
ENDMDL
