MODEL 1
REMARK VINA RESULT:      -7.0      0.000      0.000
REMARK  Name = 
REMARK  5 active torsions:
REMARK  status: ('A' for Active; 'I' for Inactive)
REMARK    1  A    between atoms: N_1  and  C_2
REMARK    2  A    between atoms: C_2  and  C_3
REMARK    3  A    between atoms: C_3  and  C_4
REMARK    4  A    between atoms: C_7  and  O_8
REMARK    5  A    between atoms: C_9  and  C_10
REMARK                            x       y       z     vdW  Elec       q    Type
REMARK                         _______ _______ _______ _____ _____    ______ ____
ROOT
ATOM      1  C   UNL     1       5.675   4.396  15.651  0.00  0.00    +0.000 A 
ATOM      2  C   UNL     1       6.991   4.618  16.066  0.00  0.00    +0.000 A 
ATOM      3  C   UNL     1       7.270   4.820  17.416  0.00  0.00    +0.000 A 
ATOM      4  C   UNL     1       6.240   4.763  18.356  0.00  0.00    +0.000 A 
ATOM      5  C   UNL     1       4.912   4.498  17.981  0.00  0.00    +0.000 A 
ATOM      6  C   UNL     1       4.650   4.358  16.611  0.00  0.00    +0.000 A 
ENDROOT
BRANCH   5   7
ATOM      7  C   UNL     1       3.827   4.319  19.041  0.00  0.00    +0.000 C 
ATOM      8  C   UNL     1       2.500   5.005  18.672  0.00  0.00    +0.000 C 
ATOM      9  C   UNL     1       1.558   4.129  17.851  0.00  0.00    +0.000 C 
ATOM     10  C   UNL     1       1.293   2.799  18.543  0.00  0.00    +0.000 C 
ATOM     11  C   UNL     1       2.585   2.035  18.788  0.00  0.00    +0.000 C 
ATOM     12  C   UNL     1       3.626   2.868  19.539  0.00  0.00    +0.000 C 
ENDBRANCH   5   7
BRANCH   4  13
ATOM     13  O   UNL     1       6.533   4.949  19.680  0.00  0.00    +0.000 OA
ATOM     14  H   UNL     1       7.239   5.612  19.752  0.00  0.00    +0.000 HD
ENDBRANCH   4  13
BRANCH   1  15
ATOM     15  C   UNL     1       5.353   4.130  14.199  0.00  0.00    +0.000 C 
BRANCH  15  16
ATOM     16  C   UNL     1       6.634   3.960  13.372  0.00  0.00    +0.000 C 
BRANCH  16  17
ATOM     17  N   UNL     1       6.449   2.988  12.297  0.00  0.00    +0.000 NA
ATOM     18  H   UNL     1       7.320   2.904  11.771  0.00  0.00    +0.000 HD
ATOM     19  H   UNL     1       5.753   3.333  11.638  0.00  0.00    +0.000 HD
ENDBRANCH  16  17
ENDBRANCH  15  16
ENDBRANCH   1  15
TORSDOF 5
ENDMDL
MODEL 2
REMARK VINA RESULT:      -6.9      2.365      3.107
REMARK  Name = 
REMARK  5 active torsions:
REMARK  status: ('A' for Active; 'I' for Inactive)
REMARK    1  A    between atoms: N_1  and  C_2
REMARK    2  A    between atoms: C_2  and  C_3
REMARK    3  A    between atoms: C_3  and  C_4
REMARK    4  A    between atoms: C_7  and  O_8
REMARK    5  A    between atoms: C_9  and  C_10
REMARK                            x       y       z     vdW  Elec       q    Type
REMARK                         _______ _______ _______ _____ _____    ______ ____
ROOT
ATOM      1  C   UNL     1       4.678   4.872  16.797  0.00  0.00    +0.000 A 
ATOM      2  C   UNL     1       4.952   6.242  16.815  0.00  0.00    +0.000 A 
ATOM      3  C   UNL     1       4.080   7.117  17.459  0.00  0.00    +0.000 A 
ATOM      4  C   UNL     1       2.954   6.619  18.117  0.00  0.00    +0.000 A 
ATOM      5  C   UNL     1       2.671   5.243  18.157  0.00  0.00    +0.000 A 
ATOM      6  C   UNL     1       3.532   4.392  17.451  0.00  0.00    +0.000 A 
ENDROOT
BRANCH   5   7
ATOM      7  C   UNL     1       1.502   4.715  18.987  0.00  0.00    +0.000 C 
ATOM      8  C   UNL     1       1.137   3.256  18.660  0.00  0.00    +0.000 C 
ATOM      9  C   UNL     1       1.916   2.226  19.474  0.00  0.00    +0.000 C 
ATOM     10  C   UNL     1       1.783   2.485  20.968  0.00  0.00    +0.000 C 
ATOM     11  C   UNL     1       2.275   3.876  21.336  0.00  0.00    +0.000 C 
ATOM     12  C   UNL     1       1.605   4.975  20.509  0.00  0.00    +0.000 C 
ENDBRANCH   5   7
BRANCH   4  13
ATOM     13  O   UNL     1       2.114   7.491  18.757  0.00  0.00    +0.000 OA
ATOM     14  H   UNL     1       2.202   7.360  19.715  0.00  0.00    +0.000 HD
ENDBRANCH   4  13
BRANCH   1  15
ATOM     15  C   UNL     1       5.633   3.899  16.144  0.00  0.00    +0.000 C 
BRANCH  15  16
ATOM     16  C   UNL     1       7.025   4.521  15.974  0.00  0.00    +0.000 C 
BRANCH  16  17
ATOM     17  N   UNL     1       7.892   4.203  17.106  0.00  0.00    +0.000 NA
ATOM     18  H   UNL     1       7.335   3.763  17.839  0.00  0.00    +0.000 HD
ATOM     19  H   UNL     1       8.260   5.063  17.509  0.00  0.00    +0.000 HD
ENDBRANCH  16  17
ENDBRANCH  15  16
ENDBRANCH   1  15
TORSDOF 5
ENDMDL
MODEL 3
REMARK VINA RESULT:      -6.7      3.306      4.564
REMARK  Name = 
REMARK  5 active torsions:
REMARK  status: ('A' for Active; 'I' for Inactive)
REMARK    1  A    between atoms: N_1  and  C_2
REMARK    2  A    between atoms: C_2  and  C_3
REMARK    3  A    between atoms: C_3  and  C_4
REMARK    4  A    between atoms: C_7  and  O_8
REMARK    5  A    between atoms: C_9  and  C_10
REMARK                            x       y       z     vdW  Elec       q    Type
REMARK                         _______ _______ _______ _____ _____    ______ ____
ROOT
ATOM      1  C   UNL     1       3.038   6.918  18.286  0.00  0.00    +0.000 A 
ATOM      2  C   UNL     1       4.034   7.052  17.314  0.00  0.00    +0.000 A 
ATOM      3  C   UNL     1       4.714   5.926  16.856  0.00  0.00    +0.000 A 
ATOM      4  C   UNL     1       4.373   4.662  17.339  0.00  0.00    +0.000 A 
ATOM      5  C   UNL     1       3.347   4.485  18.283  0.00  0.00    +0.000 A 
ATOM      6  C   UNL     1       2.720   5.640  18.772  0.00  0.00    +0.000 A 
ENDROOT
BRANCH   5   7
ATOM      7  C   UNL     1       2.911   3.082  18.703  0.00  0.00    +0.000 C 
ATOM      8  C   UNL     1       3.580   2.603  20.003  0.00  0.00    +0.000 C 
ATOM      9  C   UNL     1       2.824   2.996  21.269  0.00  0.00    +0.000 C 
ATOM     10  C   UNL     1       1.375   2.532  21.215  0.00  0.00    +0.000 C 
ATOM     11  C   UNL     1       0.651   3.113  20.011  0.00  0.00    +0.000 C 
ATOM     12  C   UNL     1       1.384   2.837  18.695  0.00  0.00    +0.000 C 
ENDBRANCH   5   7
BRANCH   4  13
ATOM     13  O   UNL     1       5.041   3.564  16.868  0.00  0.00    +0.000 OA
ATOM     14  H   UNL     1       5.703   3.296  17.526  0.00  0.00    +0.000 HD
ENDBRANCH   4  13
BRANCH   1  15
ATOM     15  C   UNL     1       2.256   8.119  18.765  0.00  0.00    +0.000 C 
BRANCH  15  16
ATOM     16  C   UNL     1       1.613   8.865  17.588  0.00  0.00    +0.000 C 
BRANCH  16  17
ATOM     17  N   UNL     1       1.985  10.278  17.587  0.00  0.00    +0.000 NA
ATOM     18  H   UNL     1       1.786  10.677  18.505  0.00  0.00    +0.000 HD
ATOM     19  H   UNL     1       1.400  10.787  16.925  0.00  0.00    +0.000 HD
ENDBRANCH  16  17
ENDBRANCH  15  16
ENDBRANCH   1  15
TORSDOF 5
ENDMDL
MODEL 4
REMARK VINA RESULT:      -6.6      1.924      2.621
REMARK  Name = 
REMARK  5 active torsions:
REMARK  status: ('A' for Active; 'I' for Inactive)
REMARK    1  A    between atoms: N_1  and  C_2
REMARK    2  A    between atoms: C_2  and  C_3
REMARK    3  A    between atoms: C_3  and  C_4
REMARK    4  A    between atoms: C_7  and  O_8
REMARK    5  A    between atoms: C_9  and  C_10
REMARK                            x       y       z     vdW  Elec       q    Type
REMARK                         _______ _______ _______ _____ _____    ______ ____
ROOT
ATOM      1  C   UNL     1       4.864   4.708  16.642  0.00  0.00    +0.000 A 
ATOM      2  C   UNL     1       5.195   6.066  16.660  0.00  0.00    +0.000 A 
ATOM      3  C   UNL     1       4.351   6.979  17.288  0.00  0.00    +0.000 A 
ATOM      4  C   UNL     1       3.196   6.532  17.931  0.00  0.00    +0.000 A 
ATOM      5  C   UNL     1       2.854   5.170  17.972  0.00  0.00    +0.000 A 
ATOM      6  C   UNL     1       3.689   4.280  17.280  0.00  0.00    +0.000 A 
ENDROOT
BRANCH   5   7
ATOM      7  C   UNL     1       1.652   4.695  18.786  0.00  0.00    +0.000 C 
ATOM      8  C   UNL     1       1.231   3.251  18.459  0.00  0.00    +0.000 C 
ATOM      9  C   UNL     1       1.954   2.193  19.288  0.00  0.00    +0.000 C 
ATOM     10  C   UNL     1       1.809   2.464  20.779  0.00  0.00    +0.000 C 
ATOM     11  C   UNL     1       2.354   3.834  21.150  0.00  0.00    +0.000 C 
ATOM     12  C   UNL     1       1.743   4.957  20.308  0.00  0.00    +0.000 C 
ENDBRANCH   5   7
BRANCH   4  13
ATOM     13  O   UNL     1       2.385   7.441  18.556  0.00  0.00    +0.000 OA
ATOM     14  H   UNL     1       1.713   6.960  19.064  0.00  0.00    +0.000 HD
ENDBRANCH   4  13
BRANCH   1  15
ATOM     15  C   UNL     1       5.785   3.694  16.007  0.00  0.00    +0.000 C 
BRANCH  15  16
ATOM     16  C   UNL     1       6.479   4.276  14.769  0.00  0.00    +0.000 C 
BRANCH  16  17
ATOM     17  N   UNL     1       6.271   3.432  13.594  0.00  0.00    +0.000 NA
ATOM     18  H   UNL     1       6.317   4.012  12.755  0.00  0.00    +0.000 HD
ATOM     19  H   UNL     1       5.331   3.040  13.615  0.00  0.00    +0.000 HD
ENDBRANCH  16  17
ENDBRANCH  15  16
ENDBRANCH   1  15
TORSDOF 5
ENDMDL
MODEL 5
REMARK VINA RESULT:      -6.5      3.205      4.243
REMARK  Name = 
REMARK  5 active torsions:
REMARK  status: ('A' for Active; 'I' for Inactive)
REMARK    1  A    between atoms: N_1  and  C_2
REMARK    2  A    between atoms: C_2  and  C_3
REMARK    3  A    between atoms: C_3  and  C_4
REMARK    4  A    between atoms: C_7  and  O_8
REMARK    5  A    between atoms: C_9  and  C_10
REMARK                            x       y       z     vdW  Elec       q    Type
REMARK                         _______ _______ _______ _____ _____    ______ ____
ROOT
ATOM      1  C   UNL     1       3.865   6.615  17.396  0.00  0.00    +0.000 A 
ATOM      2  C   UNL     1       4.810   6.658  16.367  0.00  0.00    +0.000 A 
ATOM      3  C   UNL     1       5.472   5.494  15.983  0.00  0.00    +0.000 A 
ATOM      4  C   UNL     1       5.165   4.281  16.600  0.00  0.00    +0.000 A 
ATOM      5  C   UNL     1       4.189   4.192  17.607  0.00  0.00    +0.000 A 
ATOM      6  C   UNL     1       3.581   5.387  18.016  0.00  0.00    +0.000 A 
ENDROOT
BRANCH   5   7
ATOM      7  C   UNL     1       3.784   2.834  18.179  0.00  0.00    +0.000 C 
ATOM      8  C   UNL     1       3.988   2.732  19.700  0.00  0.00    +0.000 C 
ATOM      9  C   UNL     1       2.789   3.206  20.518  0.00  0.00    +0.000 C 
ATOM     10  C   UNL     1       1.515   2.483  20.103  0.00  0.00    +0.000 C 
ATOM     11  C   UNL     1       1.215   2.692  18.627  0.00  0.00    +0.000 C 
ATOM     12  C   UNL     1       2.397   2.318  17.729  0.00  0.00    +0.000 C 
ENDBRANCH   5   7
BRANCH   4  13
ATOM     13  O   UNL     1       5.815   3.144  16.201  0.00  0.00    +0.000 OA
ATOM     14  H   UNL     1       6.749   3.214  16.457  0.00  0.00    +0.000 HD
ENDBRANCH   4  13
BRANCH   1  15
ATOM     15  C   UNL     1       3.101   7.854  17.800  0.00  0.00    +0.000 C 
BRANCH  15  16
ATOM     16  C   UNL     1       2.276   7.605  19.069  0.00  0.00    +0.000 C 
BRANCH  16  17
ATOM     17  N   UNL     1       1.508   8.790  19.446  0.00  0.00    +0.000 NA
ATOM     18  H   UNL     1       2.146   9.579  19.558  0.00  0.00    +0.000 HD
ATOM     19  H   UNL     1       1.077   8.644  20.358  0.00  0.00    +0.000 HD
ENDBRANCH  16  17
ENDBRANCH  15  16
ENDBRANCH   1  15
TORSDOF 5
ENDMDL
MODEL 6
REMARK VINA RESULT:      -6.4      3.195      3.932
REMARK  Name = 
REMARK  5 active torsions:
REMARK  status: ('A' for Active; 'I' for Inactive)
REMARK    1  A    between atoms: N_1  and  C_2
REMARK    2  A    between atoms: C_2  and  C_3
REMARK    3  A    between atoms: C_3  and  C_4
REMARK    4  A    between atoms: C_7  and  O_8
REMARK    5  A    between atoms: C_9  and  C_10
REMARK                            x       y       z     vdW  Elec       q    Type
REMARK                         _______ _______ _______ _____ _____    ______ ____
ROOT
ATOM      1  C   UNL     1       5.377   5.363  17.991  0.00  0.00    +0.000 A 
ATOM      2  C   UNL     1       5.346   6.661  17.474  0.00  0.00    +0.000 A 
ATOM      3  C   UNL     1       4.139   7.355  17.411  0.00  0.00    +0.000 A 
ATOM      4  C   UNL     1       2.971   6.768  17.898  0.00  0.00    +0.000 A 
ATOM      5  C   UNL     1       2.972   5.482  18.465  0.00  0.00    +0.000 A 
ATOM      6  C   UNL     1       4.188   4.783  18.462  0.00  0.00    +0.000 A 
ENDROOT
BRANCH   5   7
ATOM      7  C   UNL     1       1.706   4.912  19.101  0.00  0.00    +0.000 C 
ATOM      8  C   UNL     1       1.369   3.492  18.616  0.00  0.00    +0.000 C 
ATOM      9  C   UNL     1       2.033   2.385  19.431  0.00  0.00    +0.000 C 
ATOM     10  C   UNL     1       1.720   2.528  20.914  0.00  0.00    +0.000 C 
ATOM     11  C   UNL     1       2.178   3.874  21.451  0.00  0.00    +0.000 C 
ATOM     12  C   UNL     1       1.625   5.049  20.640  0.00  0.00    +0.000 C 
ENDBRANCH   5   7
BRANCH   4  13
ATOM     13  O   UNL     1       1.797   7.469  17.840  0.00  0.00    +0.000 OA
ATOM     14  H   UNL     1       1.626   7.861  18.711  0.00  0.00    +0.000 HD
ENDBRANCH   4  13
BRANCH   1  15
ATOM     15  C   UNL     1       6.680   4.607  18.112  0.00  0.00    +0.000 C 
BRANCH  15  16
ATOM     16  C   UNL     1       7.781   5.497  18.703  0.00  0.00    +0.000 C 
BRANCH  16  17
ATOM     17  N   UNL     1       7.756   5.476  20.164  0.00  0.00    +0.000 NA
ATOM     18  H   UNL     1       6.884   5.895  20.489  0.00  0.00    +0.000 HD
ATOM     19  H   UNL     1       8.505   6.063  20.529  0.00  0.00    +0.000 HD
ENDBRANCH  16  17
ENDBRANCH  15  16
ENDBRANCH   1  15
TORSDOF 5
ENDMDL
MODEL 7
REMARK VINA RESULT:      -6.4      1.526      1.731
REMARK  Name = 
REMARK  5 active torsions:
REMARK  status: ('A' for Active; 'I' for Inactive)
REMARK    1  A    between atoms: N_1  and  C_2
REMARK    2  A    between atoms: C_2  and  C_3
REMARK    3  A    between atoms: C_3  and  C_4
REMARK    4  A    between atoms: C_7  and  O_8
REMARK    5  A    between atoms: C_9  and  C_10
REMARK                            x       y       z     vdW  Elec       q    Type
REMARK                         _______ _______ _______ _____ _____    ______ ____
ROOT
ATOM      1  C   UNL     1       5.438   4.636  15.583  0.00  0.00    +0.000 A 
ATOM      2  C   UNL     1       5.483   6.016  15.367  0.00  0.00    +0.000 A 
ATOM      3  C   UNL     1       4.814   6.877  16.235  0.00  0.00    +0.000 A 
ATOM      4  C   UNL     1       4.131   6.363  17.338  0.00  0.00    +0.000 A 
ATOM      5  C   UNL     1       4.102   4.985  17.611  0.00  0.00    +0.000 A 
ATOM      6  C   UNL     1       4.733   4.137  16.690  0.00  0.00    +0.000 A 
ENDROOT
BRANCH   5   7
ATOM      7  C   UNL     1       3.454   4.460  18.891  0.00  0.00    +0.000 C 
ATOM      8  C   UNL     1       1.916   4.495  18.850  0.00  0.00    +0.000 C 
ATOM      9  C   UNL     1       1.284   3.239  18.257  0.00  0.00    +0.000 C 
ATOM     10  C   UNL     1       1.768   1.985  18.972  0.00  0.00    +0.000 C 
ATOM     11  C   UNL     1       3.282   1.854  18.899  0.00  0.00    +0.000 C 
ATOM     12  C   UNL     1       4.004   3.107  19.400  0.00  0.00    +0.000 C 
ENDBRANCH   5   7
BRANCH   4  13
ATOM     13  O   UNL     1       3.491   7.224  18.188  0.00  0.00    +0.000 OA
ATOM     14  H   UNL     1       4.118   7.511  18.871  0.00  0.00    +0.000 HD
ENDBRANCH   4  13
BRANCH   1  15
ATOM     15  C   UNL     1       6.193   3.686  14.683  0.00  0.00    +0.000 C 
BRANCH  15  16
ATOM     16  C   UNL     1       5.762   3.850  13.221  0.00  0.00    +0.000 C 
BRANCH  16  17
ATOM     17  N   UNL     1       6.367   2.829  12.368  0.00  0.00    +0.000 NA
ATOM     18  H   UNL     1       6.058   2.972  11.406  0.00  0.00    +0.000 HD
ATOM     19  H   UNL     1       6.025   1.908  12.641  0.00  0.00    +0.000 HD
ENDBRANCH  16  17
ENDBRANCH  15  16
ENDBRANCH   1  15
TORSDOF 5
ENDMDL
MODEL 8
REMARK VINA RESULT:      -6.3      2.446      5.203
REMARK  Name = 
REMARK  5 active torsions:
REMARK  status: ('A' for Active; 'I' for Inactive)
REMARK    1  A    between atoms: N_1  and  C_2
REMARK    2  A    between atoms: C_2  and  C_3
REMARK    3  A    between atoms: C_3  and  C_4
REMARK    4  A    between atoms: C_7  and  O_8
REMARK    5  A    between atoms: C_9  and  C_10
REMARK                            x       y       z     vdW  Elec       q    Type
REMARK                         _______ _______ _______ _____ _____    ______ ____
ROOT
ATOM      1  C   UNL     1       3.333   4.156  19.267  0.00  0.00    +0.000 A 
ATOM      2  C   UNL     1       2.245   4.983  19.557  0.00  0.00    +0.000 A 
ATOM      3  C   UNL     1       2.228   6.297  19.093  0.00  0.00    +0.000 A 
ATOM      4  C   UNL     1       3.280   6.773  18.310  0.00  0.00    +0.000 A 
ATOM      5  C   UNL     1       4.369   5.956  17.962  0.00  0.00    +0.000 A 
ATOM      6  C   UNL     1       4.390   4.658  18.491  0.00  0.00    +0.000 A 
ENDROOT
BRANCH   5   7
ATOM      7  C   UNL     1       5.445   6.463  17.003  0.00  0.00    +0.000 C 
ATOM      8  C   UNL     1       6.865   6.018  17.395  0.00  0.00    +0.000 C 
ATOM      9  C   UNL     1       7.272   4.666  16.815  0.00  0.00    +0.000 C 
ATOM     10  C   UNL     1       7.106   4.640  15.302  0.00  0.00    +0.000 C 
ATOM     11  C   UNL     1       5.671   4.936  14.896  0.00  0.00    +0.000 C 
ATOM     12  C   UNL     1       5.146   6.240  15.502  0.00  0.00    +0.000 C 
ENDBRANCH   5   7
BRANCH   4  13
ATOM     13  O   UNL     1       3.242   8.062  17.851  0.00  0.00    +0.000 OA
ATOM     14  H   UNL     1       4.137   8.324  17.584  0.00  0.00    +0.000 HD
ENDBRANCH   4  13
BRANCH   1  15
ATOM     15  C   UNL     1       3.353   2.714  19.719  0.00  0.00    +0.000 C 
BRANCH  15  16
ATOM     16  C   UNL     1       3.037   1.766  18.556  0.00  0.00    +0.000 C 
BRANCH  16  17
ATOM     17  N   UNL     1       4.088   0.765  18.383  0.00  0.00    +0.000 NA
ATOM     18  H   UNL     1       4.415   0.789  17.417  0.00  0.00    +0.000 HD
ATOM     19  H   UNL     1       3.701  -0.167  18.527  0.00  0.00    +0.000 HD
ENDBRANCH  16  17
ENDBRANCH  15  16
ENDBRANCH   1  15
TORSDOF 5
ENDMDL
MODEL 9
REMARK VINA RESULT:      -6.3      3.374      4.186
REMARK  Name = 
REMARK  5 active torsions:
REMARK  status: ('A' for Active; 'I' for Inactive)
REMARK    1  A    between atoms: N_1  and  C_2
REMARK    2  A    between atoms: C_2  and  C_3
REMARK    3  A    between atoms: C_3  and  C_4
REMARK    4  A    between atoms: C_7  and  O_8
REMARK    5  A    between atoms: C_9  and  C_10
REMARK                            x       y       z     vdW  Elec       q    Type
REMARK                         _______ _______ _______ _____ _____    ______ ____
ROOT
ATOM      1  C   UNL     1       3.450   7.000  17.795  0.00  0.00    +0.000 A 
ATOM      2  C   UNL     1       4.765   7.029  17.323  0.00  0.00    +0.000 A 
ATOM      3  C   UNL     1       5.664   6.037  17.709  0.00  0.00    +0.000 A 
ATOM      4  C   UNL     1       5.240   4.996  18.536  0.00  0.00    +0.000 A 
ATOM      5  C   UNL     1       3.914   4.911  18.994  0.00  0.00    +0.000 A 
ATOM      6  C   UNL     1       3.046   5.953  18.639  0.00  0.00    +0.000 A 
ENDROOT
BRANCH   5   7
ATOM      7  C   UNL     1       3.445   3.697  19.795  0.00  0.00    +0.000 C 
ATOM      8  C   UNL     1       2.386   4.044  20.855  0.00  0.00    +0.000 C 
ATOM      9  C   UNL     1       0.952   3.999  20.335  0.00  0.00    +0.000 C 
ATOM     10  C   UNL     1       0.639   2.656  19.690  0.00  0.00    +0.000 C 
ATOM     11  C   UNL     1       1.588   2.358  18.540  0.00  0.00    +0.000 C 
ATOM     12  C   UNL     1       3.059   2.460  18.951  0.00  0.00    +0.000 C 
ENDBRANCH   5   7
BRANCH   4  13
ATOM     13  O   UNL     1       6.132   4.022  18.895  0.00  0.00    +0.000 OA
ATOM     14  H   UNL     1       7.029   4.332  18.695  0.00  0.00    +0.000 HD
ENDBRANCH   4  13
BRANCH   1  15
ATOM     15  C   UNL     1       2.445   8.039  17.354  0.00  0.00    +0.000 C 
BRANCH  15  16
ATOM     16  C   UNL     1       2.004   8.916  18.533  0.00  0.00    +0.000 C 
BRANCH  16  17
ATOM     17  N   UNL     1       1.533  10.222  18.078  0.00  0.00    +0.000 NA
ATOM     18  H   UNL     1       2.287  10.693  17.576  0.00  0.00    +0.000 HD
ATOM     19  H   UNL     1       1.320  10.810  18.882  0.00  0.00    +0.000 HD
ENDBRANCH  16  17
ENDBRANCH  15  16
ENDBRANCH   1  15
TORSDOF 5
ENDMDL
