MODEL 1
REMARK VINA RESULT:      -8.1      0.000      0.000
REMARK  Name = 
REMARK  9 active torsions:
REMARK  status: ('A' for Active; 'I' for Inactive)
REMARK    1  A    between atoms: C_1  and  C_2
REMARK    2  A    between atoms: C_7  and  O_8
REMARK    3  A    between atoms: O_8  and  C_9
REMARK    4  A    between atoms: C_9  and  C_10
REMARK    5  A    between atoms: N_12  and  C_13
REMARK    6  A    between atoms: C_13  and  C_14
REMARK    7  A    between atoms: C_14  and  S_15
REMARK    8  A    between atoms: S_15  and  N_18
REMARK    9  A    between atoms: N_21  and  C_22
REMARK                            x       y       z     vdW  Elec       q    Type
REMARK                         _______ _______ _______ _____ _____    ______ ____
ROOT
ATOM      1  S   UNL     1       1.812   3.411  20.545  0.00  0.00    +0.000 S 
ATOM      2  O   UNL     1       2.545   3.788  21.736  0.00  0.00    +0.000 OA
ATOM      3  O   UNL     1       0.476   2.873  20.630  0.00  0.00    +0.000 OA
ENDROOT
BRANCH   1   4
ATOM      4  N   UNL     1       2.778   2.354  19.633  0.00  0.00    +0.000 NA
ATOM      5  C   UNL     1       2.439   2.246  18.176  0.00  0.00    +0.000 C 
ATOM      6  C   UNL     1       2.958   3.475  17.398  0.00  0.00    +0.000 C 
ATOM      7  N   UNL     1       4.412   3.601  17.616  0.00  0.00    +0.000 N 
ATOM      8  C   UNL     1       4.815   3.699  19.035  0.00  0.00    +0.000 C 
ATOM      9  C   UNL     1       4.265   2.480  19.809  0.00  0.00    +0.000 C 
BRANCH   7  10
ATOM     10  C   UNL     1       5.248   4.086  16.626  0.00  0.00    +0.000 A 
ATOM     11  C   UNL     1       4.927   4.021  15.261  0.00  0.00    +0.000 A 
ATOM     12  C   UNL     1       5.834   4.429  14.277  0.00  0.00    +0.000 A 
ATOM     13  C   UNL     1       7.079   4.910  14.652  0.00  0.00    +0.000 A 
ATOM     14  F   UNL     1       7.959   5.278  13.712  0.00  0.00    +0.000 F 
ATOM     15  C   UNL     1       7.427   5.004  15.989  0.00  0.00    +0.000 A 
ATOM     16  C   UNL     1       6.513   4.597  16.964  0.00  0.00    +0.000 A 
ENDBRANCH   7  10
ENDBRANCH   1   4
BRANCH   1  17
ATOM     17  C   UNL     1       1.765   4.843  19.482  0.00  0.00    +0.000 C 
BRANCH  17  18
ATOM     18  C   UNL     1       2.407   6.041  20.152  0.00  0.00    +0.000 C 
BRANCH  18  21
ATOM     19  C   UNL     1       2.672   7.746  18.379  0.00  0.00    +0.000 C 
ATOM     20  O   UNL     1       3.599   7.136  17.853  0.00  0.00    +0.000 OA
ATOM     21  N   UNL     1       2.036   7.296  19.521  0.00  0.00    +0.000 N 
ATOM     22  H   UNL     1       1.226   7.800  19.866  0.00  0.00    +0.000 HD
BRANCH  19  23
ATOM     23  C   UNL     1       2.172   9.093  17.863  0.00  0.00    +0.000 C 
BRANCH  23  24
ATOM     24  O   UNL     1       0.773   9.102  17.677  0.00  0.00    +0.000 OA
BRANCH  24  31
ATOM     25  C   UNL     1      -2.228   9.895  16.989  0.00  0.00    +0.000 C 
ATOM     26  C   UNL     1      -1.311  10.473  18.030  0.00  0.00    +0.000 A 
ATOM     27  C   UNL     1      -1.855  11.526  18.802  0.00  0.00    +0.000 A 
ATOM     28  C   UNL     1      -1.124  12.156  19.807  0.00  0.00    +0.000 A 
ATOM     29  C   UNL     1       0.172  11.744  20.069  0.00  0.00    +0.000 A 
ATOM     30  C   UNL     1       0.730  10.709  19.316  0.00  0.00    +0.000 A 
ATOM     31  C   UNL     1       0.011  10.063  18.291  0.00  0.00    +0.000 A 
ENDBRANCH  24  31
ENDBRANCH  23  24
ENDBRANCH  19  23
ENDBRANCH  18  21
ENDBRANCH  17  18
ENDBRANCH   1  17
TORSDOF 8
ENDMDL
MODEL 2
REMARK VINA RESULT:      -8.0      1.713      2.565
REMARK  Name = 
REMARK  9 active torsions:
REMARK  status: ('A' for Active; 'I' for Inactive)
REMARK    1  A    between atoms: C_1  and  C_2
REMARK    2  A    between atoms: C_7  and  O_8
REMARK    3  A    between atoms: O_8  and  C_9
REMARK    4  A    between atoms: C_9  and  C_10
REMARK    5  A    between atoms: N_12  and  C_13
REMARK    6  A    between atoms: C_13  and  C_14
REMARK    7  A    between atoms: C_14  and  S_15
REMARK    8  A    between atoms: S_15  and  N_18
REMARK    9  A    between atoms: N_21  and  C_22
REMARK                            x       y       z     vdW  Elec       q    Type
REMARK                         _______ _______ _______ _____ _____    ______ ____
ROOT
ATOM      1  S   UNL     1       2.205   4.375  19.753  0.00  0.00    +0.000 S 
ATOM      2  O   UNL     1       1.649   3.818  20.969  0.00  0.00    +0.000 OA
ATOM      3  O   UNL     1       1.586   4.138  18.473  0.00  0.00    +0.000 OA
ENDROOT
BRANCH   1   4
ATOM      4  N   UNL     1       3.844   3.940  19.665  0.00  0.00    +0.000 NA
ATOM      5  C   UNL     1       4.160   2.740  18.823  0.00  0.00    +0.000 C 
ATOM      6  C   UNL     1       4.121   3.096  17.321  0.00  0.00    +0.000 C 
ATOM      7  N   UNL     1       5.057   4.208  17.067  0.00  0.00    +0.000 N 
ATOM      8  C   UNL     1       4.807   5.420  17.876  0.00  0.00    +0.000 C 
ATOM      9  C   UNL     1       4.819   5.046  19.375  0.00  0.00    +0.000 C 
BRANCH   7  10
ATOM     10  C   UNL     1       5.749   4.305  15.873  0.00  0.00    +0.000 A 
ATOM     11  C   UNL     1       6.899   5.096  15.723  0.00  0.00    +0.000 A 
ATOM     12  C   UNL     1       7.520   5.255  14.480  0.00  0.00    +0.000 A 
ATOM     13  C   UNL     1       6.994   4.618  13.366  0.00  0.00    +0.000 A 
ATOM     14  F   UNL     1       7.571   4.788  12.170  0.00  0.00    +0.000 F 
ATOM     15  C   UNL     1       5.869   3.818  13.476  0.00  0.00    +0.000 A 
ATOM     16  C   UNL     1       5.258   3.663  14.722  0.00  0.00    +0.000 A 
ENDBRANCH   7  10
ENDBRANCH   1   4
BRANCH   1  17
ATOM     17  C   UNL     1       2.326   6.139  19.992  0.00  0.00    +0.000 C 
BRANCH  17  18
ATOM     18  C   UNL     1       1.434   6.598  21.128  0.00  0.00    +0.000 C 
BRANCH  18  21
ATOM     19  C   UNL     1       0.331   8.745  21.669  0.00  0.00    +0.000 C 
ATOM     20  O   UNL     1      -0.763   8.208  21.823  0.00  0.00    +0.000 OA
ATOM     21  N   UNL     1       1.463   8.040  21.310  0.00  0.00    +0.000 N 
ATOM     22  H   UNL     1       2.355   8.522  21.273  0.00  0.00    +0.000 HD
BRANCH  19  23
ATOM     23  C   UNL     1       0.535  10.252  21.795  0.00  0.00    +0.000 C 
BRANCH  23  24
ATOM     24  O   UNL     1       0.805  10.855  20.547  0.00  0.00    +0.000 OA
BRANCH  24  31
ATOM     25  C   UNL     1       1.134   9.160  17.878  0.00  0.00    +0.000 C 
ATOM     26  C   UNL     1      -0.017  10.022  18.316  0.00  0.00    +0.000 A 
ATOM     27  C   UNL     1      -1.098  10.100  17.408  0.00  0.00    +0.000 A 
ATOM     28  C   UNL     1      -2.236  10.856  17.680  0.00  0.00    +0.000 A 
ATOM     29  C   UNL     1      -2.322  11.553  18.874  0.00  0.00    +0.000 A 
ATOM     30  C   UNL     1      -1.264  11.493  19.784  0.00  0.00    +0.000 A 
ATOM     31  C   UNL     1      -0.103  10.740  19.525  0.00  0.00    +0.000 A 
ENDBRANCH  24  31
ENDBRANCH  23  24
ENDBRANCH  19  23
ENDBRANCH  18  21
ENDBRANCH  17  18
ENDBRANCH   1  17
TORSDOF 8
ENDMDL
MODEL 3
REMARK VINA RESULT:      -8.0      6.433      8.672
REMARK  Name = 
REMARK  9 active torsions:
REMARK  status: ('A' for Active; 'I' for Inactive)
REMARK    1  A    between atoms: C_1  and  C_2
REMARK    2  A    between atoms: C_7  and  O_8
REMARK    3  A    between atoms: O_8  and  C_9
REMARK    4  A    between atoms: C_9  and  C_10
REMARK    5  A    between atoms: N_12  and  C_13
REMARK    6  A    between atoms: C_13  and  C_14
REMARK    7  A    between atoms: C_14  and  S_15
REMARK    8  A    between atoms: S_15  and  N_18
REMARK    9  A    between atoms: N_21  and  C_22
REMARK                            x       y       z     vdW  Elec       q    Type
REMARK                         _______ _______ _______ _____ _____    ______ ____
ROOT
ATOM      1  S   UNL     1       6.906   5.431  17.915  0.00  0.00    +0.000 S 
ATOM      2  O   UNL     1       7.767   4.415  17.345  0.00  0.00    +0.000 OA
ATOM      3  O   UNL     1       6.799   5.604  19.342  0.00  0.00    +0.000 OA
ENDROOT
BRANCH   1   4
ATOM      4  N   UNL     1       5.351   5.245  17.261  0.00  0.00    +0.000 NA
ATOM      5  C   UNL     1       4.284   4.807  18.219  0.00  0.00    +0.000 C 
ATOM      6  C   UNL     1       3.825   5.983  19.107  0.00  0.00    +0.000 C 
ATOM      7  N   UNL     1       3.366   7.087  18.242  0.00  0.00    +0.000 N 
ATOM      8  C   UNL     1       4.370   7.559  17.264  0.00  0.00    +0.000 C 
ATOM      9  C   UNL     1       4.843   6.369  16.401  0.00  0.00    +0.000 C 
BRANCH   7  10
ATOM     10  C   UNL     1       2.334   7.922  18.630  0.00  0.00    +0.000 A 
ATOM     11  C   UNL     1       1.752   8.864  17.766  0.00  0.00    +0.000 A 
ATOM     12  C   UNL     1       0.779   9.763  18.214  0.00  0.00    +0.000 A 
ATOM     13  C   UNL     1       0.373   9.728  19.539  0.00  0.00    +0.000 A 
ATOM     14  F   UNL     1      -0.540  10.603  19.978  0.00  0.00    +0.000 F 
ATOM     15  C   UNL     1       0.913   8.804  20.419  0.00  0.00    +0.000 A 
ATOM     16  C   UNL     1       1.882   7.908  19.962  0.00  0.00    +0.000 A 
ENDBRANCH   7  10
ENDBRANCH   1   4
BRANCH   1  17
ATOM     17  C   UNL     1       7.397   6.993  17.204  0.00  0.00    +0.000 C 
BRANCH  17  18
ATOM     18  C   UNL     1       8.120   7.852  18.221  0.00  0.00    +0.000 C 
BRANCH  18  21
ATOM     19  C   UNL     1       8.868  10.182  18.582  0.00  0.00    +0.000 C 
ATOM     20  O   UNL     1       9.285   9.934  19.710  0.00  0.00    +0.000 OA
ATOM     21  N   UNL     1       8.264   9.230  17.783  0.00  0.00    +0.000 N 
ATOM     22  H   UNL     1       8.011   9.472  16.831  0.00  0.00    +0.000 HD
BRANCH  19  23
ATOM     23  C   UNL     1       8.916  11.582  17.975  0.00  0.00    +0.000 C 
BRANCH  23  24
ATOM     24  O   UNL     1      10.196  11.895  17.468  0.00  0.00    +0.000 OA
BRANCH  24  31
ATOM     25  C   UNL     1      12.179  11.881  19.952  0.00  0.00    +0.000 C 
ATOM     26  C   UNL     1      11.766  13.031  19.078  0.00  0.00    +0.000 A 
ATOM     27  C   UNL     1      12.328  14.284  19.416  0.00  0.00    +0.000 A 
ATOM     28  C   UNL     1      12.042  15.439  18.692  0.00  0.00    +0.000 A 
ATOM     29  C   UNL     1      11.185  15.369  17.605  0.00  0.00    +0.000 A 
ATOM     30  C   UNL     1      10.615  14.142  17.257  0.00  0.00    +0.000 A 
ATOM     31  C   UNL     1      10.887  12.964  17.979  0.00  0.00    +0.000 A 
ENDBRANCH  24  31
ENDBRANCH  23  24
ENDBRANCH  19  23
ENDBRANCH  18  21
ENDBRANCH  17  18
ENDBRANCH   1  17
TORSDOF 8
ENDMDL
MODEL 4
REMARK VINA RESULT:      -7.9      1.665      2.258
REMARK  Name = 
REMARK  9 active torsions:
REMARK  status: ('A' for Active; 'I' for Inactive)
REMARK    1  A    between atoms: C_1  and  C_2
REMARK    2  A    between atoms: C_7  and  O_8
REMARK    3  A    between atoms: O_8  and  C_9
REMARK    4  A    between atoms: C_9  and  C_10
REMARK    5  A    between atoms: N_12  and  C_13
REMARK    6  A    between atoms: C_13  and  C_14
REMARK    7  A    between atoms: C_14  and  S_15
REMARK    8  A    between atoms: S_15  and  N_18
REMARK    9  A    between atoms: N_21  and  C_22
REMARK                            x       y       z     vdW  Elec       q    Type
REMARK                         _______ _______ _______ _____ _____    ______ ____
ROOT
ATOM      1  S   UNL     1       1.883   3.603  20.680  0.00  0.00    +0.000 S 
ATOM      2  O   UNL     1       2.040   3.136  22.042  0.00  0.00    +0.000 OA
ATOM      3  O   UNL     1       0.586   3.947  20.154  0.00  0.00    +0.000 OA
ENDROOT
BRANCH   1   4
ATOM      4  N   UNL     1       2.625   2.485  19.641  0.00  0.00    +0.000 NA
ATOM      5  C   UNL     1       2.251   2.587  18.192  0.00  0.00    +0.000 C 
ATOM      6  C   UNL     1       2.977   3.772  17.519  0.00  0.00    +0.000 C 
ATOM      7  N   UNL     1       4.432   3.608  17.700  0.00  0.00    +0.000 N 
ATOM      8  C   UNL     1       4.867   3.489  19.108  0.00  0.00    +0.000 C 
ATOM      9  C   UNL     1       4.112   2.320  19.780  0.00  0.00    +0.000 C 
BRANCH   7  10
ATOM     10  C   UNL     1       5.329   4.030  16.734  0.00  0.00    +0.000 A 
ATOM     11  C   UNL     1       6.155   5.152  16.903  0.00  0.00    +0.000 A 
ATOM     12  C   UNL     1       6.979   5.613  15.870  0.00  0.00    +0.000 A 
ATOM     13  C   UNL     1       6.986   4.951  14.652  0.00  0.00    +0.000 A 
ATOM     14  F   UNL     1       7.755   5.405  13.654  0.00  0.00    +0.000 F 
ATOM     15  C   UNL     1       6.195   3.832  14.453  0.00  0.00    +0.000 A 
ATOM     16  C   UNL     1       5.378   3.376  15.490  0.00  0.00    +0.000 A 
ENDBRANCH   7  10
ENDBRANCH   1   4
BRANCH   1  17
ATOM     17  C   UNL     1       2.952   5.019  20.486  0.00  0.00    +0.000 C 
BRANCH  17  18
ATOM     18  C   UNL     1       2.190   6.206  19.930  0.00  0.00    +0.000 C 
BRANCH  18  21
ATOM     19  C   UNL     1       1.328   8.381  20.730  0.00  0.00    +0.000 C 
ATOM     20  O   UNL     1       1.499   8.915  19.638  0.00  0.00    +0.000 OA
ATOM     21  N   UNL     1       1.654   7.061  20.975  0.00  0.00    +0.000 N 
ATOM     22  H   UNL     1       1.417   6.652  21.873  0.00  0.00    +0.000 HD
BRANCH  19  23
ATOM     23  C   UNL     1       0.798   9.140  21.945  0.00  0.00    +0.000 C 
BRANCH  23  24
ATOM     24  O   UNL     1      -0.556   9.506  21.790  0.00  0.00    +0.000 OA
BRANCH  24  31
ATOM     25  C   UNL     1      -1.027  11.105  19.082  0.00  0.00    +0.000 C 
ATOM     26  C   UNL     1      -1.102  11.600  20.499  0.00  0.00    +0.000 A 
ATOM     27  C   UNL     1      -1.412  12.972  20.648  0.00  0.00    +0.000 A 
ATOM     28  C   UNL     1      -1.522  13.571  21.901  0.00  0.00    +0.000 A 
ATOM     29  C   UNL     1      -1.326  12.808  23.041  0.00  0.00    +0.000 A 
ATOM     30  C   UNL     1      -1.014  11.453  22.917  0.00  0.00    +0.000 A 
ATOM     31  C   UNL     1      -0.893  10.829  21.660  0.00  0.00    +0.000 A 
ENDBRANCH  24  31
ENDBRANCH  23  24
ENDBRANCH  19  23
ENDBRANCH  18  21
ENDBRANCH  17  18
ENDBRANCH   1  17
TORSDOF 8
ENDMDL
MODEL 5
REMARK VINA RESULT:      -7.9      6.237      8.130
REMARK  Name = 
REMARK  9 active torsions:
REMARK  status: ('A' for Active; 'I' for Inactive)
REMARK    1  A    between atoms: C_1  and  C_2
REMARK    2  A    between atoms: C_7  and  O_8
REMARK    3  A    between atoms: O_8  and  C_9
REMARK    4  A    between atoms: C_9  and  C_10
REMARK    5  A    between atoms: N_12  and  C_13
REMARK    6  A    between atoms: C_13  and  C_14
REMARK    7  A    between atoms: C_14  and  S_15
REMARK    8  A    between atoms: S_15  and  N_18
REMARK    9  A    between atoms: N_21  and  C_22
REMARK                            x       y       z     vdW  Elec       q    Type
REMARK                         _______ _______ _______ _____ _____    ______ ____
ROOT
ATOM      1  S   UNL     1       7.225   5.073  17.962  0.00  0.00    +0.000 S 
ATOM      2  O   UNL     1       8.097   4.267  17.132  0.00  0.00    +0.000 OA
ATOM      3  O   UNL     1       7.375   5.100  19.396  0.00  0.00    +0.000 OA
ENDROOT
BRANCH   1   4
ATOM      4  N   UNL     1       5.616   4.690  17.580  0.00  0.00    +0.000 NA
ATOM      5  C   UNL     1       4.702   4.458  18.746  0.00  0.00    +0.000 C 
ATOM      6  C   UNL     1       4.284   5.797  19.391  0.00  0.00    +0.000 C 
ATOM      7  N   UNL     1       3.657   6.650  18.363  0.00  0.00    +0.000 N 
ATOM      8  C   UNL     1       4.504   6.908  17.179  0.00  0.00    +0.000 C 
ATOM      9  C   UNL     1       4.940   5.562  16.559  0.00  0.00    +0.000 C 
BRANCH   7  10
ATOM     10  C   UNL     1       2.630   7.521  18.681  0.00  0.00    +0.000 A 
ATOM     11  C   UNL     1       2.149   8.489  17.784  0.00  0.00    +0.000 A 
ATOM     12  C   UNL     1       1.179   9.421  18.167  0.00  0.00    +0.000 A 
ATOM     13  C   UNL     1       0.676   9.394  19.458  0.00  0.00    +0.000 A 
ATOM     14  F   UNL     1      -0.234  10.301  19.836  0.00  0.00    +0.000 F 
ATOM     15  C   UNL     1       1.115   8.446  20.368  0.00  0.00    +0.000 A 
ATOM     16  C   UNL     1       2.081   7.517  19.976  0.00  0.00    +0.000 A 
ENDBRANCH   7  10
ENDBRANCH   1   4
BRANCH   1  17
ATOM     17  C   UNL     1       7.334   6.750  17.362  0.00  0.00    +0.000 C 
BRANCH  17  18
ATOM     18  C   UNL     1       8.046   7.641  18.360  0.00  0.00    +0.000 C 
BRANCH  18  21
ATOM     19  C   UNL     1       8.928   9.941  18.588  0.00  0.00    +0.000 C 
ATOM     20  O   UNL     1       9.151   9.798  19.787  0.00  0.00    +0.000 OA
ATOM     21  N   UNL     1       8.371   8.946  17.808  0.00  0.00    +0.000 N 
ATOM     22  H   UNL     1       8.283   9.092  16.808  0.00  0.00    +0.000 HD
BRANCH  19  23
ATOM     23  C   UNL     1       9.185  11.255  17.853  0.00  0.00    +0.000 C 
BRANCH  23  24
ATOM     24  O   UNL     1       8.691  12.366  18.570  0.00  0.00    +0.000 OA
BRANCH  24  31
ATOM     25  C   UNL     1       9.080  12.802  21.695  0.00  0.00    +0.000 C 
ATOM     26  C   UNL     1       9.782  13.478  20.550  0.00  0.00    +0.000 A 
ATOM     27  C   UNL     1      10.739  14.453  20.914  0.00  0.00    +0.000 A 
ATOM     28  C   UNL     1      11.472  15.158  19.962  0.00  0.00    +0.000 A 
ATOM     29  C   UNL     1      11.267  14.901  18.616  0.00  0.00    +0.000 A 
ATOM     30  C   UNL     1      10.323  13.945  18.234  0.00  0.00    +0.000 A 
ATOM     31  C   UNL     1       9.568  13.226  19.181  0.00  0.00    +0.000 A 
ENDBRANCH  24  31
ENDBRANCH  23  24
ENDBRANCH  19  23
ENDBRANCH  18  21
ENDBRANCH  17  18
ENDBRANCH   1  17
TORSDOF 8
ENDMDL
MODEL 6
REMARK VINA RESULT:      -7.9      6.378      8.128
REMARK  Name = 
REMARK  9 active torsions:
REMARK  status: ('A' for Active; 'I' for Inactive)
REMARK    1  A    between atoms: C_1  and  C_2
REMARK    2  A    between atoms: C_7  and  O_8
REMARK    3  A    between atoms: O_8  and  C_9
REMARK    4  A    between atoms: C_9  and  C_10
REMARK    5  A    between atoms: N_12  and  C_13
REMARK    6  A    between atoms: C_13  and  C_14
REMARK    7  A    between atoms: C_14  and  S_15
REMARK    8  A    between atoms: S_15  and  N_18
REMARK    9  A    between atoms: N_21  and  C_22
REMARK                            x       y       z     vdW  Elec       q    Type
REMARK                         _______ _______ _______ _____ _____    ______ ____
ROOT
ATOM      1  S   UNL     1       6.906   6.029  16.790  0.00  0.00    +0.000 S 
ATOM      2  O   UNL     1       7.668   5.990  15.558  0.00  0.00    +0.000 OA
ATOM      3  O   UNL     1       7.302   5.251  17.938  0.00  0.00    +0.000 OA
ENDROOT
BRANCH   1   4
ATOM      4  N   UNL     1       5.282   5.693  16.427  0.00  0.00    +0.000 NA
ATOM      5  C   UNL     1       4.912   4.241  16.359  0.00  0.00    +0.000 C 
ATOM      6  C   UNL     1       4.772   3.643  17.776  0.00  0.00    +0.000 C 
ATOM      7  N   UNL     1       3.779   4.428  18.533  0.00  0.00    +0.000 N 
ATOM      8  C   UNL     1       4.080   5.873  18.627  0.00  0.00    +0.000 C 
ATOM      9  C   UNL     1       4.246   6.455  17.206  0.00  0.00    +0.000 C 
BRANCH   7  10
ATOM     10  C   UNL     1       2.955   3.832  19.472  0.00  0.00    +0.000 A 
ATOM     11  C   UNL     1       1.586   4.121  19.573  0.00  0.00    +0.000 A 
ATOM     12  C   UNL     1       0.799   3.579  20.595  0.00  0.00    +0.000 A 
ATOM     13  C   UNL     1       1.379   2.736  21.531  0.00  0.00    +0.000 A 
ATOM     14  F   UNL     1       0.634   2.235  22.525  0.00  0.00    +0.000 F 
ATOM     15  C   UNL     1       2.724   2.415  21.455  0.00  0.00    +0.000 A 
ATOM     16  C   UNL     1       3.501   2.959  20.429  0.00  0.00    +0.000 A 
ENDBRANCH   7  10
ENDBRANCH   1   4
BRANCH   1  17
ATOM     17  C   UNL     1       6.803   7.739  17.289  0.00  0.00    +0.000 C 
BRANCH  17  18
ATOM     18  C   UNL     1       8.062   8.173  18.013  0.00  0.00    +0.000 C 
BRANCH  18  21
ATOM     19  C   UNL     1       9.107  10.360  18.505  0.00  0.00    +0.000 C 
ATOM     20  O   UNL     1       9.270  10.079  19.689  0.00  0.00    +0.000 OA
ATOM     21  N   UNL     1       8.507   9.496  17.609  0.00  0.00    +0.000 N 
ATOM     22  H   UNL     1       8.471   9.749  16.628  0.00  0.00    +0.000 HD
BRANCH  19  23
ATOM     23  C   UNL     1       9.492  11.716  17.919  0.00  0.00    +0.000 C 
BRANCH  23  24
ATOM     24  O   UNL     1       8.673  12.756  18.409  0.00  0.00    +0.000 OA
BRANCH  24  31
ATOM     25  C   UNL     1      11.293  13.230  20.147  0.00  0.00    +0.000 C 
ATOM     26  C   UNL     1      10.377  14.243  19.520  0.00  0.00    +0.000 A 
ATOM     27  C   UNL     1      10.721  15.596  19.746  0.00  0.00    +0.000 A 
ATOM     28  C   UNL     1       9.968  16.645  19.223  0.00  0.00    +0.000 A 
ATOM     29  C   UNL     1       8.850  16.366  18.455  0.00  0.00    +0.000 A 
ATOM     30  C   UNL     1       8.489  15.036  18.223  0.00  0.00    +0.000 A 
ATOM     31  C   UNL     1       9.233  13.962  18.747  0.00  0.00    +0.000 A 
ENDBRANCH  24  31
ENDBRANCH  23  24
ENDBRANCH  19  23
ENDBRANCH  18  21
ENDBRANCH  17  18
ENDBRANCH   1  17
TORSDOF 8
ENDMDL
MODEL 7
REMARK VINA RESULT:      -7.8      1.289      1.916
REMARK  Name = 
REMARK  9 active torsions:
REMARK  status: ('A' for Active; 'I' for Inactive)
REMARK    1  A    between atoms: C_1  and  C_2
REMARK    2  A    between atoms: C_7  and  O_8
REMARK    3  A    between atoms: O_8  and  C_9
REMARK    4  A    between atoms: C_9  and  C_10
REMARK    5  A    between atoms: N_12  and  C_13
REMARK    6  A    between atoms: C_13  and  C_14
REMARK    7  A    between atoms: C_14  and  S_15
REMARK    8  A    between atoms: S_15  and  N_18
REMARK    9  A    between atoms: N_21  and  C_22
REMARK                            x       y       z     vdW  Elec       q    Type
REMARK                         _______ _______ _______ _____ _____    ______ ____
ROOT
ATOM      1  S   UNL     1       1.930   3.374  20.360  0.00  0.00    +0.000 S 
ATOM      2  O   UNL     1       3.338   3.530  20.664  0.00  0.00    +0.000 OA
ATOM      3  O   UNL     1       1.099   2.468  21.114  0.00  0.00    +0.000 OA
ENDROOT
BRANCH   1   4
ATOM      4  N   UNL     1       1.776   3.021  18.707  0.00  0.00    +0.000 NA
ATOM      5  C   UNL     1       1.617   4.202  17.796  0.00  0.00    +0.000 C 
ATOM      6  C   UNL     1       2.971   4.909  17.571  0.00  0.00    +0.000 C 
ATOM      7  N   UNL     1       3.940   3.932  17.039  0.00  0.00    +0.000 N 
ATOM      8  C   UNL     1       4.134   2.736  17.886  0.00  0.00    +0.000 C 
ATOM      9  C   UNL     1       2.770   2.053  18.129  0.00  0.00    +0.000 C 
BRANCH   7  10
ATOM     10  C   UNL     1       4.924   4.310  16.142  0.00  0.00    +0.000 A 
ATOM     11  C   UNL     1       5.180   3.607  14.955  0.00  0.00    +0.000 A 
ATOM     12  C   UNL     1       6.246   3.954  14.117  0.00  0.00    +0.000 A 
ATOM     13  C   UNL     1       7.070   5.014  14.461  0.00  0.00    +0.000 A 
ATOM     14  F   UNL     1       8.106   5.333  13.674  0.00  0.00    +0.000 F 
ATOM     15  C   UNL     1       6.840   5.741  15.617  0.00  0.00    +0.000 A 
ATOM     16  C   UNL     1       5.772   5.390  16.446  0.00  0.00    +0.000 A 
ENDBRANCH   7  10
ENDBRANCH   1   4
BRANCH   1  17
ATOM     17  C   UNL     1       1.193   4.997  20.439  0.00  0.00    +0.000 C 
BRANCH  17  18
ATOM     18  C   UNL     1       2.205   6.034  20.884  0.00  0.00    +0.000 C 
BRANCH  18  21
ATOM     19  C   UNL     1       1.501   8.281  20.126  0.00  0.00    +0.000 C 
ATOM     20  O   UNL     1       1.942   8.099  18.994  0.00  0.00    +0.000 OA
ATOM     21  N   UNL     1       1.599   7.333  21.126  0.00  0.00    +0.000 N 
ATOM     22  H   UNL     1       1.148   7.507  22.017  0.00  0.00    +0.000 HD
BRANCH  19  23
ATOM     23  C   UNL     1       0.858   9.596  20.558  0.00  0.00    +0.000 C 
BRANCH  23  24
ATOM     24  O   UNL     1       0.710  10.493  19.478  0.00  0.00    +0.000 OA
BRANCH  24  31
ATOM     25  C   UNL     1      -1.505  12.429  20.683  0.00  0.00    +0.000 C 
ATOM     26  C   UNL     1      -1.568  11.570  19.452  0.00  0.00    +0.000 A 
ATOM     27  C   UNL     1      -2.787  11.619  18.737  0.00  0.00    +0.000 A 
ATOM     28  C   UNL     1      -2.990  10.881  17.573  0.00  0.00    +0.000 A 
ATOM     29  C   UNL     1      -1.972  10.073  17.092  0.00  0.00    +0.000 A 
ATOM     30  C   UNL     1      -0.761  10.006  17.784  0.00  0.00    +0.000 A 
ATOM     31  C   UNL     1      -0.538  10.740  18.966  0.00  0.00    +0.000 A 
ENDBRANCH  24  31
ENDBRANCH  23  24
ENDBRANCH  19  23
ENDBRANCH  18  21
ENDBRANCH  17  18
ENDBRANCH   1  17
TORSDOF 8
ENDMDL
MODEL 8
REMARK VINA RESULT:      -7.8      1.445      1.883
REMARK  Name = 
REMARK  9 active torsions:
REMARK  status: ('A' for Active; 'I' for Inactive)
REMARK    1  A    between atoms: C_1  and  C_2
REMARK    2  A    between atoms: C_7  and  O_8
REMARK    3  A    between atoms: O_8  and  C_9
REMARK    4  A    between atoms: C_9  and  C_10
REMARK    5  A    between atoms: N_12  and  C_13
REMARK    6  A    between atoms: C_13  and  C_14
REMARK    7  A    between atoms: C_14  and  S_15
REMARK    8  A    between atoms: S_15  and  N_18
REMARK    9  A    between atoms: N_21  and  C_22
REMARK                            x       y       z     vdW  Elec       q    Type
REMARK                         _______ _______ _______ _____ _____    ______ ____
ROOT
ATOM      1  S   UNL     1       1.850   3.504  20.252  0.00  0.00    +0.000 S 
ATOM      2  O   UNL     1       3.257   3.635  20.574  0.00  0.00    +0.000 OA
ATOM      3  O   UNL     1       1.018   2.537  20.924  0.00  0.00    +0.000 OA
ENDROOT
BRANCH   1   4
ATOM      4  N   UNL     1       1.702   3.293  18.575  0.00  0.00    +0.000 NA
ATOM      5  C   UNL     1       1.748   4.544  17.749  0.00  0.00    +0.000 C 
ATOM      6  C   UNL     1       3.198   5.057  17.608  0.00  0.00    +0.000 C 
ATOM      7  N   UNL     1       4.031   3.985  17.028  0.00  0.00    +0.000 N 
ATOM      8  C   UNL     1       4.019   2.718  17.790  0.00  0.00    +0.000 C 
ATOM      9  C   UNL     1       2.562   2.230  17.951  0.00  0.00    +0.000 C 
BRANCH   7  10
ATOM     10  C   UNL     1       5.089   4.274  16.185  0.00  0.00    +0.000 A 
ATOM     11  C   UNL     1       6.094   5.197  16.515  0.00  0.00    +0.000 A 
ATOM     12  C   UNL     1       7.096   5.542  15.602  0.00  0.00    +0.000 A 
ATOM     13  C   UNL     1       7.103   4.964  14.342  0.00  0.00    +0.000 A 
ATOM     14  F   UNL     1       8.046   5.312  13.457  0.00  0.00    +0.000 F 
ATOM     15  C   UNL     1       6.136   4.039  13.984  0.00  0.00    +0.000 A 
ATOM     16  C   UNL     1       5.142   3.697  14.904  0.00  0.00    +0.000 A 
ENDBRANCH   7  10
ENDBRANCH   1   4
BRANCH   1  17
ATOM     17  C   UNL     1       1.112   5.114  20.467  0.00  0.00    +0.000 C 
BRANCH  17  18
ATOM     18  C   UNL     1       2.146   6.137  20.891  0.00  0.00    +0.000 C 
BRANCH  18  21
ATOM     19  C   UNL     1       1.332   8.471  20.810  0.00  0.00    +0.000 C 
ATOM     20  O   UNL     1       0.832   8.396  21.929  0.00  0.00    +0.000 OA
ATOM     21  N   UNL     1       1.981   7.410  20.210  0.00  0.00    +0.000 N 
ATOM     22  H   UNL     1       2.443   7.553  19.318  0.00  0.00    +0.000 HD
BRANCH  19  23
ATOM     23  C   UNL     1       1.230   9.725  19.944  0.00  0.00    +0.000 C 
BRANCH  23  24
ATOM     24  O   UNL     1       0.202   9.620  18.981  0.00  0.00    +0.000 OA
BRANCH  24  31
ATOM     25  C   UNL     1      -2.196   9.824  16.905  0.00  0.00    +0.000 C 
ATOM     26  C   UNL     1      -1.974  10.598  18.173  0.00  0.00    +0.000 A 
ATOM     27  C   UNL     1      -2.964  11.561  18.478  0.00  0.00    +0.000 A 
ATOM     28  C   UNL     1      -2.895  12.351  19.624  0.00  0.00    +0.000 A 
ATOM     29  C   UNL     1      -1.832  12.194  20.498  0.00  0.00    +0.000 A 
ATOM     30  C   UNL     1      -0.841  11.251  20.214  0.00  0.00    +0.000 A 
ATOM     31  C   UNL     1      -0.889  10.448  19.059  0.00  0.00    +0.000 A 
ENDBRANCH  24  31
ENDBRANCH  23  24
ENDBRANCH  19  23
ENDBRANCH  18  21
ENDBRANCH  17  18
ENDBRANCH   1  17
TORSDOF 8
ENDMDL
MODEL 9
REMARK VINA RESULT:      -7.8      4.061      9.457
REMARK  Name = 
REMARK  9 active torsions:
REMARK  status: ('A' for Active; 'I' for Inactive)
REMARK    1  A    between atoms: C_1  and  C_2
REMARK    2  A    between atoms: C_7  and  O_8
REMARK    3  A    between atoms: O_8  and  C_9
REMARK    4  A    between atoms: C_9  and  C_10
REMARK    5  A    between atoms: N_12  and  C_13
REMARK    6  A    between atoms: C_13  and  C_14
REMARK    7  A    between atoms: C_14  and  S_15
REMARK    8  A    between atoms: S_15  and  N_18
REMARK    9  A    between atoms: N_21  and  C_22
REMARK                            x       y       z     vdW  Elec       q    Type
REMARK                         _______ _______ _______ _____ _____    ______ ____
ROOT
ATOM      1  S   UNL     1       0.420   9.351  21.080  0.00  0.00    +0.000 S 
ATOM      2  O   UNL     1      -0.538   8.463  21.705  0.00  0.00    +0.000 OA
ATOM      3  O   UNL     1       1.113  10.359  21.844  0.00  0.00    +0.000 OA
ENDROOT
BRANCH   1   4
ATOM      4  N   UNL     1      -0.323  10.085  19.742  0.00  0.00    +0.000 NA
ATOM      5  C   UNL     1      -1.243  11.229  20.047  0.00  0.00    +0.000 C 
ATOM      6  C   UNL     1      -0.442  12.509  20.369  0.00  0.00    +0.000 C 
ATOM      7  N   UNL     1       0.453  12.812  19.236  0.00  0.00    +0.000 N 
ATOM      8  C   UNL     1       1.380  11.719  18.875  0.00  0.00    +0.000 C 
ATOM      9  C   UNL     1       0.570  10.436  18.584  0.00  0.00    +0.000 C 
BRANCH   7  10
ATOM     10  C   UNL     1       0.756  14.117  18.889  0.00  0.00    +0.000 A 
ATOM     11  C   UNL     1       2.063  14.546  18.613  0.00  0.00    +0.000 A 
ATOM     12  C   UNL     1       2.353  15.892  18.362  0.00  0.00    +0.000 A 
ATOM     13  C   UNL     1       1.330  16.827  18.384  0.00  0.00    +0.000 A 
ATOM     14  F   UNL     1       1.607  18.120  18.169  0.00  0.00    +0.000 F 
ATOM     15  C   UNL     1       0.024  16.440  18.638  0.00  0.00    +0.000 A 
ATOM     16  C   UNL     1      -0.256  15.094  18.883  0.00  0.00    +0.000 A 
ENDBRANCH   7  10
ENDBRANCH   1   4
BRANCH   1  17
ATOM     17  C   UNL     1       1.642   8.326  20.280  0.00  0.00    +0.000 C 
BRANCH  17  18
ATOM     18  C   UNL     1       1.625   6.918  20.840  0.00  0.00    +0.000 C 
BRANCH  18  21
ATOM     19  C   UNL     1       2.582   4.680  20.401  0.00  0.00    +0.000 C 
ATOM     20  O   UNL     1       1.818   4.136  21.194  0.00  0.00    +0.000 OA
ATOM     21  N   UNL     1       2.575   6.043  20.174  0.00  0.00    +0.000 N 
ATOM     22  H   UNL     1       3.174   6.427  19.451  0.00  0.00    +0.000 HD
BRANCH  19  23
ATOM     23  C   UNL     1       3.659   3.915  19.637  0.00  0.00    +0.000 C 
BRANCH  23  24
ATOM     24  O   UNL     1       4.852   4.660  19.516  0.00  0.00    +0.000 OA
BRANCH  24  31
ATOM     25  C   UNL     1       7.835   5.661  19.058  0.00  0.00    +0.000 C 
ATOM     26  C   UNL     1       6.882   5.044  18.074  0.00  0.00    +0.000 A 
ATOM     27  C   UNL     1       7.377   4.901  16.757  0.00  0.00    +0.000 A 
ATOM     28  C   UNL     1       6.610   4.341  15.738  0.00  0.00    +0.000 A 
ATOM     29  C   UNL     1       5.324   3.905  16.013  0.00  0.00    +0.000 A 
ATOM     30  C   UNL     1       4.814   4.040  17.306  0.00  0.00    +0.000 A 
ATOM     31  C   UNL     1       5.570   4.609  18.348  0.00  0.00    +0.000 A 
ENDBRANCH  24  31
ENDBRANCH  23  24
ENDBRANCH  19  23
ENDBRANCH  18  21
ENDBRANCH  17  18
ENDBRANCH   1  17
TORSDOF 8
ENDMDL
