MODEL 1
REMARK VINA RESULT:      -7.2      0.000      0.000
REMARK  Name = 
REMARK  6 active torsions:
REMARK  status: ('A' for Active; 'I' for Inactive)
REMARK    1  A    between atoms: C_1  and  C_2
REMARK    2  A    between atoms: C_7  and  C_8
REMARK    3  A    between atoms: C_8  and  C_9
REMARK    4  A    between atoms: C_8  and  C_16
REMARK    5  A    between atoms: C_16  and  C_17
REMARK    6  A    between atoms: C_16  and  C_19
REMARK                            x       y       z     vdW  Elec       q    Type
REMARK                         _______ _______ _______ _____ _____    ______ ____
ROOT
ATOM      1  C   UNL     1       4.618   5.169  18.355  0.00  0.00    +0.000 C 
ENDROOT
BRANCH   1   8
ATOM      2  C   UNL     1       7.856   5.914  19.148  0.00  0.00    +0.000 C 
ATOM      3  C   UNL     1       7.235   5.254  17.963  0.00  0.00    +0.000 C 
ATOM      4  N   UNL     1       7.889   4.416  17.216  0.00  0.00    +0.000 NA
ATOM      5  N   UNL     1       7.064   4.105  16.177  0.00  0.00    +0.000 N 
ATOM      6  C   UNL     1       5.836   4.741  16.196  0.00  0.00    +0.000 C 
ATOM      7  O   UNL     1       4.935   4.642  15.384  0.00  0.00    +0.000 OA
ATOM      8  C   UNL     1       5.833   5.563  17.469  0.00  0.00    +0.000 C 
ATOM      9  H   UNL     1       7.362   3.464  15.449  0.00  0.00    +0.000 HD
ENDBRANCH   1   8
BRANCH   1  10
ATOM     10  C   UNL     1       3.631   6.333  18.509  0.00  0.00    +0.000 A 
ATOM     11  C   UNL     1       3.461   7.318  17.524  0.00  0.00    +0.000 A 
ATOM     12  C   UNL     1       2.564   8.372  17.717  0.00  0.00    +0.000 A 
ATOM     13  C   UNL     1       1.832   8.457  18.897  0.00  0.00    +0.000 A 
ATOM     14 CL   UNL     1       0.737   9.761  19.131  0.00  0.00    +0.000 Cl
ATOM     15  C   UNL     1       1.983   7.490  19.886  0.00  0.00    +0.000 A 
ATOM     16  C   UNL     1       2.873   6.432  19.691  0.00  0.00    +0.000 A 
ENDBRANCH   1  10
BRANCH   1  17
ATOM     17  C   UNL     1       3.937   3.824  17.952  0.00  0.00    +0.000 C 
BRANCH  17  18
ATOM     18  C   UNL     1       2.496   4.010  17.681  0.00  0.00    +0.000 C 
ATOM     19  N   UNL     1       1.367   4.140  17.445  0.00  0.00    +0.000 NA
ENDBRANCH  17  18
BRANCH  17  20
ATOM     20  C   UNL     1       4.106   2.802  18.999  0.00  0.00    +0.000 C 
ATOM     21  N   UNL     1       4.222   1.974  19.803  0.00  0.00    +0.000 NA
ENDBRANCH  17  20
ENDBRANCH   1  17
TORSDOF 5
ENDMDL
MODEL 2
REMARK VINA RESULT:      -7.2      0.114      1.084
REMARK  Name = 
REMARK  6 active torsions:
REMARK  status: ('A' for Active; 'I' for Inactive)
REMARK    1  A    between atoms: C_1  and  C_2
REMARK    2  A    between atoms: C_7  and  C_8
REMARK    3  A    between atoms: C_8  and  C_9
REMARK    4  A    between atoms: C_8  and  C_16
REMARK    5  A    between atoms: C_16  and  C_17
REMARK    6  A    between atoms: C_16  and  C_19
REMARK                            x       y       z     vdW  Elec       q    Type
REMARK                         _______ _______ _______ _____ _____    ______ ____
ROOT
ATOM      1  C   UNL     1       4.638   5.054  18.369  0.00  0.00    +0.000 C 
ENDROOT
BRANCH   1   8
ATOM      2  C   UNL     1       7.868   5.798  19.195  0.00  0.00    +0.000 C 
ATOM      3  C   UNL     1       7.257   5.154  17.996  0.00  0.00    +0.000 C 
ATOM      4  N   UNL     1       7.920   4.329  17.242  0.00  0.00    +0.000 NA
ATOM      5  N   UNL     1       7.102   4.030  16.193  0.00  0.00    +0.000 N 
ATOM      6  C   UNL     1       5.872   4.661  16.213  0.00  0.00    +0.000 C 
ATOM      7  O   UNL     1       4.977   4.571  15.393  0.00  0.00    +0.000 OA
ATOM      8  C   UNL     1       5.858   5.466  17.497  0.00  0.00    +0.000 C 
ATOM      9  H   UNL     1       7.408   3.400  15.457  0.00  0.00    +0.000 HD
ENDBRANCH   1   8
BRANCH   1  10
ATOM     10  C   UNL     1       3.672   6.228  18.576  0.00  0.00    +0.000 A 
ATOM     11  C   UNL     1       2.880   6.363  19.728  0.00  0.00    +0.000 A 
ATOM     12  C   UNL     1       2.000   7.440  19.864  0.00  0.00    +0.000 A 
ATOM     13  C   UNL     1       1.896   8.388  18.852  0.00  0.00    +0.000 A 
ATOM     14 CL   UNL     1       0.804   9.704  19.024  0.00  0.00    +0.000 Cl
ATOM     15  C   UNL     1       2.673   8.275  17.704  0.00  0.00    +0.000 A 
ATOM     16  C   UNL     1       3.559   7.204  17.570  0.00  0.00    +0.000 A 
ENDBRANCH   1  10
BRANCH   1  17
ATOM     17  C   UNL     1       3.933   3.741  17.911  0.00  0.00    +0.000 C 
BRANCH  17  18
ATOM     18  C   UNL     1       2.497   3.965  17.642  0.00  0.00    +0.000 C 
ATOM     19  N   UNL     1       1.367   4.116  17.420  0.00  0.00    +0.000 NA
ENDBRANCH  17  18
BRANCH  17  20
ATOM     20  C   UNL     1       4.077   2.675  18.917  0.00  0.00    +0.000 C 
ATOM     21  N   UNL     1       4.210   1.817  19.686  0.00  0.00    +0.000 NA
ENDBRANCH  17  20
ENDBRANCH   1  17
TORSDOF 5
ENDMDL
MODEL 3
REMARK VINA RESULT:      -6.7      1.576      2.034
REMARK  Name = 
REMARK  6 active torsions:
REMARK  status: ('A' for Active; 'I' for Inactive)
REMARK    1  A    between atoms: C_1  and  C_2
REMARK    2  A    between atoms: C_7  and  C_8
REMARK    3  A    between atoms: C_8  and  C_9
REMARK    4  A    between atoms: C_8  and  C_16
REMARK    5  A    between atoms: C_16  and  C_17
REMARK    6  A    between atoms: C_16  and  C_19
REMARK                            x       y       z     vdW  Elec       q    Type
REMARK                         _______ _______ _______ _____ _____    ______ ____
ROOT
ATOM      1  C   UNL     1       4.376   4.464  18.261  0.00  0.00    +0.000 C 
ENDROOT
BRANCH   1   8
ATOM      2  C   UNL     1       5.559   5.117  15.124  0.00  0.00    +0.000 C 
ATOM      3  C   UNL     1       6.003   5.553  16.480  0.00  0.00    +0.000 C 
ATOM      4  N   UNL     1       6.661   6.657  16.669  0.00  0.00    +0.000 NA
ATOM      5  N   UNL     1       6.999   6.678  17.990  0.00  0.00    +0.000 N 
ATOM      6  C   UNL     1       6.585   5.576  18.716  0.00  0.00    +0.000 C 
ATOM      7  O   UNL     1       6.770   5.353  19.898  0.00  0.00    +0.000 OA
ATOM      8  C   UNL     1       5.816   4.717  17.733  0.00  0.00    +0.000 C 
ATOM      9  H   UNL     1       7.530   7.450  18.380  0.00  0.00    +0.000 HD
ENDBRANCH   1   8
BRANCH   1  10
ATOM     10  C   UNL     1       3.601   5.776  18.438  0.00  0.00    +0.000 A 
ATOM     11  C   UNL     1       3.501   6.739  17.422  0.00  0.00    +0.000 A 
ATOM     12  C   UNL     1       2.800   7.929  17.635  0.00  0.00    +0.000 A 
ATOM     13  C   UNL     1       2.198   8.173  18.865  0.00  0.00    +0.000 A 
ATOM     14 CL   UNL     1       1.346   9.644  19.122  0.00  0.00    +0.000 Cl
ATOM     15  C   UNL     1       2.283   7.232  19.885  0.00  0.00    +0.000 A 
ATOM     16  C   UNL     1       2.976   6.038  19.670  0.00  0.00    +0.000 A 
ENDBRANCH   1  10
BRANCH   1  17
ATOM     17  C   UNL     1       3.584   3.373  17.475  0.00  0.00    +0.000 C 
BRANCH  17  18
ATOM     18  C   UNL     1       2.148   3.711  17.385  0.00  0.00    +0.000 C 
ATOM     19  N   UNL     1       1.024   3.999  17.330  0.00  0.00    +0.000 NA
ENDBRANCH  17  18
BRANCH  17  20
ATOM     20  C   UNL     1       3.733   2.048  18.099  0.00  0.00    +0.000 C 
ATOM     21  N   UNL     1       3.884   1.010  18.594  0.00  0.00    +0.000 NA
ENDBRANCH  17  20
ENDBRANCH   1  17
TORSDOF 5
ENDMDL
MODEL 4
REMARK VINA RESULT:      -6.6      1.585      2.305
REMARK  Name = 
REMARK  6 active torsions:
REMARK  status: ('A' for Active; 'I' for Inactive)
REMARK    1  A    between atoms: C_1  and  C_2
REMARK    2  A    between atoms: C_7  and  C_8
REMARK    3  A    between atoms: C_8  and  C_9
REMARK    4  A    between atoms: C_8  and  C_16
REMARK    5  A    between atoms: C_16  and  C_17
REMARK    6  A    between atoms: C_16  and  C_19
REMARK                            x       y       z     vdW  Elec       q    Type
REMARK                         _______ _______ _______ _____ _____    ______ ____
ROOT
ATOM      1  C   UNL     1       4.413   4.454  18.274  0.00  0.00    +0.000 C 
ENDROOT
BRANCH   1   8
ATOM      2  C   UNL     1       5.581   5.125  15.135  0.00  0.00    +0.000 C 
ATOM      3  C   UNL     1       6.027   5.559  16.490  0.00  0.00    +0.000 C 
ATOM      4  N   UNL     1       6.679   6.666  16.681  0.00  0.00    +0.000 NA
ATOM      5  N   UNL     1       7.022   6.685  18.000  0.00  0.00    +0.000 N 
ATOM      6  C   UNL     1       6.617   5.578  18.725  0.00  0.00    +0.000 C 
ATOM      7  O   UNL     1       6.808   5.352  19.905  0.00  0.00    +0.000 OA
ATOM      8  C   UNL     1       5.850   4.718  17.741  0.00  0.00    +0.000 C 
ATOM      9  H   UNL     1       7.549   7.459  18.391  0.00  0.00    +0.000 HD
ENDBRANCH   1   8
BRANCH   1  10
ATOM     10  C   UNL     1       3.642   5.762  18.488  0.00  0.00    +0.000 A 
ATOM     11  C   UNL     1       3.006   6.077  19.699  0.00  0.00    +0.000 A 
ATOM     12  C   UNL     1       2.298   7.274  19.842  0.00  0.00    +0.000 A 
ATOM     13  C   UNL     1       2.212   8.165  18.777  0.00  0.00    +0.000 A 
ATOM     14 CL   UNL     1       1.332   9.629  18.957  0.00  0.00    +0.000 Cl
ATOM     15  C   UNL     1       2.837   7.873  17.569  0.00  0.00    +0.000 A 
ATOM     16  C   UNL     1       3.552   6.682  17.427  0.00  0.00    +0.000 A 
ENDBRANCH   1  10
BRANCH   1  17
ATOM     17  C   UNL     1       3.614   3.384  17.467  0.00  0.00    +0.000 C 
BRANCH  17  18
ATOM     18  C   UNL     1       2.178   3.727  17.393  0.00  0.00    +0.000 C 
ATOM     19  N   UNL     1       1.057   4.024  17.342  0.00  0.00    +0.000 NA
ENDBRANCH  17  18
BRANCH  17  20
ATOM     20  C   UNL     1       3.762   2.044  18.059  0.00  0.00    +0.000 C 
ATOM     21  N   UNL     1       3.844   0.987  18.530  0.00  0.00    +0.000 NA
ENDBRANCH  17  20
ENDBRANCH   1  17
TORSDOF 5
ENDMDL
MODEL 5
REMARK VINA RESULT:      -6.4      2.755      4.158
REMARK  Name = 
REMARK  6 active torsions:
REMARK  status: ('A' for Active; 'I' for Inactive)
REMARK    1  A    between atoms: C_1  and  C_2
REMARK    2  A    between atoms: C_7  and  C_8
REMARK    3  A    between atoms: C_8  and  C_9
REMARK    4  A    between atoms: C_8  and  C_16
REMARK    5  A    between atoms: C_16  and  C_17
REMARK    6  A    between atoms: C_16  and  C_19
REMARK                            x       y       z     vdW  Elec       q    Type
REMARK                         _______ _______ _______ _____ _____    ______ ____
ROOT
ATOM      1  C   UNL     1       4.278   4.804  17.431  0.00  0.00    +0.000 C 
ENDROOT
BRANCH   1   8
ATOM      2  C   UNL     1       5.877   3.615  14.657  0.00  0.00    +0.000 C 
ATOM      3  C   UNL     1       6.377   4.170  15.948  0.00  0.00    +0.000 C 
ATOM      4  N   UNL     1       7.543   4.734  16.052  0.00  0.00    +0.000 NA
ATOM      5  N   UNL     1       7.715   5.014  17.375  0.00  0.00    +0.000 N 
ATOM      6  C   UNL     1       6.668   4.630  18.194  0.00  0.00    +0.000 C 
ATOM      7  O   UNL     1       6.584   4.756  19.401  0.00  0.00    +0.000 OA
ATOM      8  C   UNL     1       5.626   4.048  17.261  0.00  0.00    +0.000 C 
ATOM      9  H   UNL     1       8.565   5.457  17.708  0.00  0.00    +0.000 HD
ENDBRANCH   1   8
BRANCH   1  10
ATOM     10  C   UNL     1       3.466   4.251  18.609  0.00  0.00    +0.000 A 
ATOM     11  C   UNL     1       3.404   4.895  19.855  0.00  0.00    +0.000 A 
ATOM     12  C   UNL     1       2.666   4.344  20.906  0.00  0.00    +0.000 A 
ATOM     13  C   UNL     1       1.989   3.142  20.728  0.00  0.00    +0.000 A 
ATOM     14 CL   UNL     1       1.093   2.466  22.029  0.00  0.00    +0.000 Cl
ATOM     15  C   UNL     1       2.036   2.488  19.501  0.00  0.00    +0.000 A 
ATOM     16  C   UNL     1       2.766   3.042  18.447  0.00  0.00    +0.000 A 
ENDBRANCH   1  10
BRANCH   1  17
ATOM     17  C   UNL     1       4.409   6.358  17.439  0.00  0.00    +0.000 C 
BRANCH  17  18
ATOM     18  C   UNL     1       3.147   7.003  17.862  0.00  0.00    +0.000 C 
ATOM     19  N   UNL     1       2.167   7.534  18.186  0.00  0.00    +0.000 NA
ENDBRANCH  17  18
BRANCH  17  20
ATOM     20  C   UNL     1       4.794   6.871  16.113  0.00  0.00    +0.000 C 
ATOM     21  N   UNL     1       5.085   7.246  15.055  0.00  0.00    +0.000 NA
ENDBRANCH  17  20
ENDBRANCH   1  17
TORSDOF 5
ENDMDL
MODEL 6
REMARK VINA RESULT:      -6.2      1.669      2.149
REMARK  Name = 
REMARK  6 active torsions:
REMARK  status: ('A' for Active; 'I' for Inactive)
REMARK    1  A    between atoms: C_1  and  C_2
REMARK    2  A    between atoms: C_7  and  C_8
REMARK    3  A    between atoms: C_8  and  C_9
REMARK    4  A    between atoms: C_8  and  C_16
REMARK    5  A    between atoms: C_16  and  C_17
REMARK    6  A    between atoms: C_16  and  C_19
REMARK                            x       y       z     vdW  Elec       q    Type
REMARK                         _______ _______ _______ _____ _____    ______ ____
ROOT
ATOM      1  C   UNL     1       4.867   4.491  19.022  0.00  0.00    +0.000 C 
ENDROOT
BRANCH   1   8
ATOM      2  C   UNL     1       5.615   4.368  15.692  0.00  0.00    +0.000 C 
ATOM      3  C   UNL     1       6.255   5.068  16.843  0.00  0.00    +0.000 C 
ATOM      4  N   UNL     1       6.959   6.149  16.690  0.00  0.00    +0.000 NA
ATOM      5  N   UNL     1       7.478   6.443  17.915  0.00  0.00    +0.000 N 
ATOM      6  C   UNL     1       7.144   5.554  18.920  0.00  0.00    +0.000 C 
ATOM      7  O   UNL     1       7.487   5.588  20.087  0.00  0.00    +0.000 OA
ATOM      8  C   UNL     1       6.225   4.542  18.266  0.00  0.00    +0.000 C 
ATOM      9  H   UNL     1       8.076   7.253  18.047  0.00  0.00    +0.000 HD
ENDBRANCH   1   8
BRANCH   1  10
ATOM     10  C   UNL     1       4.004   5.722  18.715  0.00  0.00    +0.000 A 
ATOM     11  C   UNL     1       4.088   6.423  17.502  0.00  0.00    +0.000 A 
ATOM     12  C   UNL     1       3.296   7.551  17.275  0.00  0.00    +0.000 A 
ATOM     13  C   UNL     1       2.417   7.995  18.257  0.00  0.00    +0.000 A 
ATOM     14 CL   UNL     1       1.452   9.389  17.974  0.00  0.00    +0.000 Cl
ATOM     15  C   UNL     1       2.316   7.314  19.466  0.00  0.00    +0.000 A 
ATOM     16  C   UNL     1       3.101   6.181  19.691  0.00  0.00    +0.000 A 
ENDBRANCH   1  10
BRANCH   1  17
ATOM     17  C   UNL     1       4.099   3.140  18.876  0.00  0.00    +0.000 C 
BRANCH  17  18
ATOM     18  C   UNL     1       3.056   3.223  17.833  0.00  0.00    +0.000 C 
ATOM     19  N   UNL     1       2.254   3.303  16.997  0.00  0.00    +0.000 NA
ENDBRANCH  17  18
BRANCH  17  20
ATOM     20  C   UNL     1       3.481   2.734  20.150  0.00  0.00    +0.000 C 
ATOM     21  N   UNL     1       2.974   2.443  21.151  0.00  0.00    +0.000 NA
ENDBRANCH  17  20
ENDBRANCH   1  17
TORSDOF 5
ENDMDL
MODEL 7
REMARK VINA RESULT:      -6.2      3.429      5.862
REMARK  Name = 
REMARK  6 active torsions:
REMARK  status: ('A' for Active; 'I' for Inactive)
REMARK    1  A    between atoms: C_1  and  C_2
REMARK    2  A    between atoms: C_7  and  C_8
REMARK    3  A    between atoms: C_8  and  C_9
REMARK    4  A    between atoms: C_8  and  C_16
REMARK    5  A    between atoms: C_16  and  C_17
REMARK    6  A    between atoms: C_16  and  C_19
REMARK                            x       y       z     vdW  Elec       q    Type
REMARK                         _______ _______ _______ _____ _____    ______ ____
ROOT
ATOM      1  C   UNL     1       6.556   4.633  17.836  0.00  0.00    +0.000 C 
ENDROOT
BRANCH   1   8
ATOM      2  C   UNL     1       4.228   6.899  16.781  0.00  0.00    +0.000 C 
ATOM      3  C   UNL     1       4.118   5.622  17.544  0.00  0.00    +0.000 C 
ATOM      4  N   UNL     1       3.035   4.905  17.538  0.00  0.00    +0.000 NA
ATOM      5  N   UNL     1       3.246   3.887  18.421  0.00  0.00    +0.000 N 
ATOM      6  C   UNL     1       4.477   3.906  19.050  0.00  0.00    +0.000 C 
ATOM      7  O   UNL     1       4.900   3.122  19.880  0.00  0.00    +0.000 OA
ATOM      8  C   UNL     1       5.209   5.094  18.458  0.00  0.00    +0.000 C 
ATOM      9  H   UNL     1       2.528   3.190  18.594  0.00  0.00    +0.000 HD
ENDBRANCH   1   8
BRANCH   1  10
ATOM     10  C   UNL     1       6.430   4.405  16.324  0.00  0.00    +0.000 A 
ATOM     11  C   UNL     1       5.534   3.477  15.770  0.00  0.00    +0.000 A 
ATOM     12  C   UNL     1       5.468   3.290  14.387  0.00  0.00    +0.000 A 
ATOM     13  C   UNL     1       6.299   4.020  13.543  0.00  0.00    +0.000 A 
ATOM     14 CL   UNL     1       6.218   3.776  11.844  0.00  0.00    +0.000 Cl
ATOM     15  C   UNL     1       7.193   4.945  14.071  0.00  0.00    +0.000 A 
ATOM     16  C   UNL     1       7.254   5.140  15.452  0.00  0.00    +0.000 A 
ENDBRANCH   1  10
BRANCH   1  17
ATOM     17  C   UNL     1       7.783   5.511  18.233  0.00  0.00    +0.000 C 
BRANCH  17  18
ATOM     18  C   UNL     1       8.039   5.451  19.688  0.00  0.00    +0.000 C 
ATOM     19  N   UNL     1       8.214   5.414  20.835  0.00  0.00    +0.000 NA
ENDBRANCH  17  18
BRANCH  17  20
ATOM     20  C   UNL     1       7.592   6.915  17.831  0.00  0.00    +0.000 C 
ATOM     21  N   UNL     1       7.476   8.022  17.509  0.00  0.00    +0.000 NA
ENDBRANCH  17  20
ENDBRANCH   1  17
TORSDOF 5
ENDMDL
MODEL 8
REMARK VINA RESULT:      -6.2      2.754      4.145
REMARK  Name = 
REMARK  6 active torsions:
REMARK  status: ('A' for Active; 'I' for Inactive)
REMARK    1  A    between atoms: C_1  and  C_2
REMARK    2  A    between atoms: C_7  and  C_8
REMARK    3  A    between atoms: C_8  and  C_9
REMARK    4  A    between atoms: C_8  and  C_16
REMARK    5  A    between atoms: C_16  and  C_17
REMARK    6  A    between atoms: C_16  and  C_19
REMARK                            x       y       z     vdW  Elec       q    Type
REMARK                         _______ _______ _______ _____ _____    ______ ____
ROOT
ATOM      1  C   UNL     1       4.272   4.737  17.315  0.00  0.00    +0.000 C 
ENDROOT
BRANCH   1   8
ATOM      2  C   UNL     1       5.806   3.646  14.465  0.00  0.00    +0.000 C 
ATOM      3  C   UNL     1       6.336   4.152  15.764  0.00  0.00    +0.000 C 
ATOM      4  N   UNL     1       7.506   4.709  15.863  0.00  0.00    +0.000 NA
ATOM      5  N   UNL     1       7.708   4.940  17.191  0.00  0.00    +0.000 N 
ATOM      6  C   UNL     1       6.678   4.529  18.018  0.00  0.00    +0.000 C 
ATOM      7  O   UNL     1       6.621   4.612  19.231  0.00  0.00    +0.000 OA
ATOM      8  C   UNL     1       5.613   3.984  17.088  0.00  0.00    +0.000 C 
ATOM      9  H   UNL     1       8.567   5.369  17.521  0.00  0.00    +0.000 HD
ENDBRANCH   1   8
BRANCH   1  10
ATOM     10  C   UNL     1       3.472   4.126  18.472  0.00  0.00    +0.000 A 
ATOM     11  C   UNL     1       2.663   2.989  18.317  0.00  0.00    +0.000 A 
ATOM     12  C   UNL     1       1.936   2.479  19.396  0.00  0.00    +0.000 A 
ATOM     13  C   UNL     1       2.003   3.101  20.638  0.00  0.00    +0.000 A 
ATOM     14 CL   UNL     1       1.098   2.474  21.958  0.00  0.00    +0.000 Cl
ATOM     15  C   UNL     1       2.799   4.228  20.815  0.00  0.00    +0.000 A 
ATOM     16  C   UNL     1       3.533   4.733  19.740  0.00  0.00    +0.000 A 
ENDBRANCH   1  10
BRANCH   1  17
ATOM     17  C   UNL     1       4.412   6.288  17.405  0.00  0.00    +0.000 C 
BRANCH  17  18
ATOM     18  C   UNL     1       3.159   6.916  17.874  0.00  0.00    +0.000 C 
ATOM     19  N   UNL     1       2.160   7.393  18.225  0.00  0.00    +0.000 NA
ENDBRANCH  17  18
BRANCH  17  20
ATOM     20  C   UNL     1       4.788   6.869  16.105  0.00  0.00    +0.000 C 
ATOM     21  N   UNL     1       5.106   7.299  15.076  0.00  0.00    +0.000 NA
ENDBRANCH  17  20
ENDBRANCH   1  17
TORSDOF 5
ENDMDL
MODEL 9
REMARK VINA RESULT:      -6.1      3.434      5.796
REMARK  Name = 
REMARK  6 active torsions:
REMARK  status: ('A' for Active; 'I' for Inactive)
REMARK    1  A    between atoms: C_1  and  C_2
REMARK    2  A    between atoms: C_7  and  C_8
REMARK    3  A    between atoms: C_8  and  C_9
REMARK    4  A    between atoms: C_8  and  C_16
REMARK    5  A    between atoms: C_16  and  C_17
REMARK    6  A    between atoms: C_16  and  C_19
REMARK                            x       y       z     vdW  Elec       q    Type
REMARK                         _______ _______ _______ _____ _____    ______ ____
ROOT
ATOM      1  C   UNL     1       6.589   4.643  17.844  0.00  0.00    +0.000 C 
ENDROOT
BRANCH   1   8
ATOM      2  C   UNL     1       4.274   6.892  16.728  0.00  0.00    +0.000 C 
ATOM      3  C   UNL     1       4.155   5.627  17.509  0.00  0.00    +0.000 C 
ATOM      4  N   UNL     1       3.071   4.910  17.502  0.00  0.00    +0.000 NA
ATOM      5  N   UNL     1       3.272   3.906  18.401  0.00  0.00    +0.000 N 
ATOM      6  C   UNL     1       4.496   3.934  19.045  0.00  0.00    +0.000 C 
ATOM      7  O   UNL     1       4.909   3.163  19.891  0.00  0.00    +0.000 OA
ATOM      8  C   UNL     1       5.234   5.113  18.444  0.00  0.00    +0.000 C 
ATOM      9  H   UNL     1       2.552   3.212  18.577  0.00  0.00    +0.000 HD
ENDBRANCH   1   8
BRANCH   1  10
ATOM     10  C   UNL     1       6.486   4.412  16.331  0.00  0.00    +0.000 A 
ATOM     11  C   UNL     1       7.225   5.157  15.398  0.00  0.00    +0.000 A 
ATOM     12  C   UNL     1       7.084   4.924  14.028  0.00  0.00    +0.000 A 
ATOM     13  C   UNL     1       6.200   3.951  13.573  0.00  0.00    +0.000 A 
ATOM     14 CL   UNL     1       6.024   3.678  11.885  0.00  0.00    +0.000 Cl
ATOM     15  C   UNL     1       5.459   3.200  14.480  0.00  0.00    +0.000 A 
ATOM     16  C   UNL     1       5.605   3.426  15.850  0.00  0.00    +0.000 A 
ENDBRANCH   1  10
BRANCH   1  17
ATOM     17  C   UNL     1       7.815   5.514  18.259  0.00  0.00    +0.000 C 
BRANCH  17  18
ATOM     18  C   UNL     1       8.055   5.446  19.716  0.00  0.00    +0.000 C 
ATOM     19  N   UNL     1       8.227   5.414  20.864  0.00  0.00    +0.000 NA
ENDBRANCH  17  18
BRANCH  17  20
ATOM     20  C   UNL     1       7.632   6.921  17.863  0.00  0.00    +0.000 C 
ATOM     21  N   UNL     1       7.482   8.018  17.518  0.00  0.00    +0.000 NA
ENDBRANCH  17  20
ENDBRANCH   1  17
TORSDOF 5
ENDMDL
