MODEL 1
REMARK VINA RESULT:      -6.6      0.000      0.000
REMARK  Name = 
REMARK  4 active torsions:
REMARK  status: ('A' for Active; 'I' for Inactive)
REMARK    1  A    between atoms: N_1  and  C_2
REMARK    2  A    between atoms: C_2  and  C_3
REMARK    3  A    between atoms: C_5  and  C_6
REMARK    4  A    between atoms: C_5  and  C_14
REMARK                            x       y       z     vdW  Elec       q    Type
REMARK                         _______ _______ _______ _____ _____    ______ ____
ROOT
ATOM      1  C   UNL     1       1.988   4.212  18.959  0.00  0.00    +0.000 C 
ATOM      2  C   UNL     1       2.227   4.576  17.534  0.00  0.00    +0.000 C 
ATOM      3  C   UNL     1       2.934   5.393  18.623  0.00  0.00    +0.000 C 
ENDROOT
BRANCH   3   4
ATOM      4  C   UNL     1       4.416   5.202  18.823  0.00  0.00    +0.000 C 
ATOM      5  O   UNL     1       4.856   5.173  19.974  0.00  0.00    +0.000 OA
ATOM      6  N   UNL     1       5.231   5.047  17.686  0.00  0.00    +0.000 N 
ATOM      7  C   UNL     1       6.555   4.674  17.855  0.00  0.00    +0.000 C 
ATOM      8  C   UNL     1       7.404   4.508  16.830  0.00  0.00    +0.000 C 
ATOM      9  C   UNL     1       7.003   4.654  15.397  0.00  0.00    +0.000 C 
ATOM     10  C   UNL     1       5.489   4.686  15.223  0.00  0.00    +0.000 C 
ATOM     11  C   UNL     1       4.816   5.479  16.342  0.00  0.00    +0.000 C 
ENDBRANCH   3   4
BRANCH   3  12
ATOM     12  C   UNL     1       2.439   6.843  18.873  0.00  0.00    +0.000 A 
ATOM     13  C   UNL     1       2.001   7.368  20.125  0.00  0.00    +0.000 A 
ATOM     14  C   UNL     1       1.470   8.636  19.996  0.00  0.00    +0.000 A 
ATOM     15  S   UNL     1       1.582   9.223  18.395  0.00  0.00    +0.000 S 
ATOM     16  C   UNL     1       2.349   7.787  17.870  0.00  0.00    +0.000 A 
ENDBRANCH   3  12
BRANCH   1  17
ATOM     17  C   UNL     1       2.522   2.935  19.541  0.00  0.00    +0.000 C 
BRANCH  17  18
ATOM     18  N   UNL     1       2.175   1.804  18.689  0.00  0.00    +0.000 NA
ATOM     19  H   UNL     1       1.237   1.495  18.949  0.00  0.00    +0.000 HD
ATOM     20  H   UNL     1       2.781   1.017  18.920  0.00  0.00    +0.000 HD
ENDBRANCH  17  18
ENDBRANCH   1  17
TORSDOF 4
ENDMDL
MODEL 2
REMARK VINA RESULT:      -6.4      1.554      3.945
REMARK  Name = 
REMARK  4 active torsions:
REMARK  status: ('A' for Active; 'I' for Inactive)
REMARK    1  A    between atoms: N_1  and  C_2
REMARK    2  A    between atoms: C_2  and  C_3
REMARK    3  A    between atoms: C_5  and  C_6
REMARK    4  A    between atoms: C_5  and  C_14
REMARK                            x       y       z     vdW  Elec       q    Type
REMARK                         _______ _______ _______ _____ _____    ______ ____
ROOT
ATOM      1  C   UNL     1       5.297   6.286  16.210  0.00  0.00    +0.000 C 
ATOM      2  C   UNL     1       6.101   6.940  17.281  0.00  0.00    +0.000 C 
ATOM      3  C   UNL     1       4.855   6.142  17.688  0.00  0.00    +0.000 C 
ENDROOT
BRANCH   3   4
ATOM      4  C   UNL     1       5.039   4.807  18.364  0.00  0.00    +0.000 C 
ATOM      5  O   UNL     1       6.121   4.565  18.902  0.00  0.00    +0.000 OA
ATOM      6  N   UNL     1       3.960   3.904  18.368  0.00  0.00    +0.000 N 
ATOM      7  C   UNL     1       4.043   2.763  19.150  0.00  0.00    +0.000 C 
ATOM      8  C   UNL     1       3.065   1.846  19.211  0.00  0.00    +0.000 C 
ATOM      9  C   UNL     1       1.764   1.981  18.486  0.00  0.00    +0.000 C 
ATOM     10  C   UNL     1       1.546   3.391  17.951  0.00  0.00    +0.000 C 
ATOM     11  C   UNL     1       2.844   3.990  17.412  0.00  0.00    +0.000 C 
ENDBRANCH   3   4
BRANCH   3  12
ATOM     12  C   UNL     1       3.617   6.940  18.180  0.00  0.00    +0.000 A 
ATOM     13  C   UNL     1       2.942   7.963  17.448  0.00  0.00    +0.000 A 
ATOM     14  C   UNL     1       1.983   8.596  18.213  0.00  0.00    +0.000 A 
ATOM     15  S   UNL     1       1.834   7.904  19.768  0.00  0.00    +0.000 S 
ATOM     16  C   UNL     1       3.047   6.749  19.423  0.00  0.00    +0.000 A 
ENDBRANCH   3  12
BRANCH   1  17
ATOM     17  C   UNL     1       5.825   5.108  15.443  0.00  0.00    +0.000 C 
BRANCH  17  18
ATOM     18  N   UNL     1       7.202   5.347  15.029  0.00  0.00    +0.000 NA
ATOM     19  H   UNL     1       7.412   4.705  14.263  0.00  0.00    +0.000 HD
ATOM     20  H   UNL     1       7.828   5.065  15.782  0.00  0.00    +0.000 HD
ENDBRANCH  17  18
ENDBRANCH   1  17
TORSDOF 4
ENDMDL
MODEL 3
REMARK VINA RESULT:      -6.4      2.198      4.583
REMARK  Name = 
REMARK  4 active torsions:
REMARK  status: ('A' for Active; 'I' for Inactive)
REMARK    1  A    between atoms: N_1  and  C_2
REMARK    2  A    between atoms: C_2  and  C_3
REMARK    3  A    between atoms: C_5  and  C_6
REMARK    4  A    between atoms: C_5  and  C_14
REMARK                            x       y       z     vdW  Elec       q    Type
REMARK                         _______ _______ _______ _____ _____    ______ ____
ROOT
ATOM      1  C   UNL     1       3.057   3.146  18.157  0.00  0.00    +0.000 C 
ATOM      2  C   UNL     1       3.833   2.667  19.336  0.00  0.00    +0.000 C 
ATOM      3  C   UNL     1       3.792   4.174  19.053  0.00  0.00    +0.000 C 
ENDROOT
BRANCH   3   4
ATOM      4  C   UNL     1       2.967   5.057  19.955  0.00  0.00    +0.000 C 
ATOM      5  O   UNL     1       2.695   4.651  21.087  0.00  0.00    +0.000 OA
ATOM      6  N   UNL     1       2.559   6.314  19.472  0.00  0.00    +0.000 N 
ATOM      7  C   UNL     1       1.976   7.214  20.350  0.00  0.00    +0.000 C 
ATOM      8  C   UNL     1       1.555   8.431  19.975  0.00  0.00    +0.000 C 
ATOM      9  C   UNL     1       1.715   8.968  18.588  0.00  0.00    +0.000 C 
ATOM     10  C   UNL     1       2.681   8.133  17.756  0.00  0.00    +0.000 C 
ATOM     11  C   UNL     1       2.512   6.640  18.037  0.00  0.00    +0.000 C 
ENDBRANCH   3   4
BRANCH   3  12
ATOM     12  C   UNL     1       5.087   4.842  18.518  0.00  0.00    +0.000 A 
ATOM     13  C   UNL     1       5.452   4.968  17.144  0.00  0.00    +0.000 A 
ATOM     14  C   UNL     1       6.732   5.461  16.994  0.00  0.00    +0.000 A 
ATOM     15  S   UNL     1       7.454   5.855  18.491  0.00  0.00    +0.000 S 
ATOM     16  C   UNL     1       6.053   5.376  19.347  0.00  0.00    +0.000 A 
ENDBRANCH   3  12
BRANCH   1  17
ATOM     17  C   UNL     1       1.557   3.079  18.127  0.00  0.00    +0.000 C 
BRANCH  17  18
ATOM     18  N   UNL     1       1.093   1.817  18.693  0.00  0.00    +0.000 NA
ATOM     19  H   UNL     1       1.847   1.439  19.268  0.00  0.00    +0.000 HD
ATOM     20  H   UNL     1       0.977   1.140  17.940  0.00  0.00    +0.000 HD
ENDBRANCH  17  18
ENDBRANCH   1  17
TORSDOF 4
ENDMDL
MODEL 4
REMARK VINA RESULT:      -6.3      2.681      5.288
REMARK  Name = 
REMARK  4 active torsions:
REMARK  status: ('A' for Active; 'I' for Inactive)
REMARK    1  A    between atoms: N_1  and  C_2
REMARK    2  A    between atoms: C_2  and  C_3
REMARK    3  A    between atoms: C_5  and  C_6
REMARK    4  A    between atoms: C_5  and  C_14
REMARK                            x       y       z     vdW  Elec       q    Type
REMARK                         _______ _______ _______ _____ _____    ______ ____
ROOT
ATOM      1  C   UNL     1       6.665   4.669  18.048  0.00  0.00    +0.000 C 
ATOM      2  C   UNL     1       6.510   4.306  16.610  0.00  0.00    +0.000 C 
ATOM      3  C   UNL     1       5.264   4.744  17.391  0.00  0.00    +0.000 C 
ENDROOT
BRANCH   3   4
ATOM      4  C   UNL     1       4.675   6.104  17.111  0.00  0.00    +0.000 C 
ATOM      5  O   UNL     1       5.010   6.688  16.078  0.00  0.00    +0.000 OA
ATOM      6  N   UNL     1       3.757   6.639  18.033  0.00  0.00    +0.000 N 
ATOM      7  C   UNL     1       3.060   7.788  17.695  0.00  0.00    +0.000 C 
ATOM      8  C   UNL     1       2.169   8.369  18.513  0.00  0.00    +0.000 C 
ATOM      9  C   UNL     1       1.792   7.813  19.849  0.00  0.00    +0.000 C 
ATOM     10  C   UNL     1       2.273   6.378  20.032  0.00  0.00    +0.000 C 
ATOM     11  C   UNL     1       3.661   6.173  19.425  0.00  0.00    +0.000 C 
ENDBRANCH   3   4
BRANCH   3  12
ATOM     12  C   UNL     1       4.214   3.656  17.742  0.00  0.00    +0.000 A 
ATOM     13  C   UNL     1       3.024   3.378  17.003  0.00  0.00    +0.000 A 
ATOM     14  C   UNL     1       2.215   2.469  17.653  0.00  0.00    +0.000 A 
ATOM     15  S   UNL     1       2.922   1.886  19.095  0.00  0.00    +0.000 S 
ATOM     16  C   UNL     1       4.320   2.842  18.852  0.00  0.00    +0.000 A 
ENDBRANCH   3  12
BRANCH   1  17
ATOM     17  C   UNL     1       7.390   5.915  18.467  0.00  0.00    +0.000 C 
BRANCH  17  18
ATOM     18  N   UNL     1       8.105   5.692  19.718  0.00  0.00    +0.000 NA
ATOM     19  H   UNL     1       7.781   4.805  20.106  0.00  0.00    +0.000 HD
ATOM     20  H   UNL     1       7.812   6.394  20.396  0.00  0.00    +0.000 HD
ENDBRANCH  17  18
ENDBRANCH   1  17
TORSDOF 4
ENDMDL
MODEL 5
REMARK VINA RESULT:      -6.3      2.272      4.430
REMARK  Name = 
REMARK  4 active torsions:
REMARK  status: ('A' for Active; 'I' for Inactive)
REMARK    1  A    between atoms: N_1  and  C_2
REMARK    2  A    between atoms: C_2  and  C_3
REMARK    3  A    between atoms: C_5  and  C_6
REMARK    4  A    between atoms: C_5  and  C_14
REMARK                            x       y       z     vdW  Elec       q    Type
REMARK                         _______ _______ _______ _____ _____    ______ ____
ROOT
ATOM      1  C   UNL     1       3.376   2.820  18.183  0.00  0.00    +0.000 C 
ATOM      2  C   UNL     1       4.097   2.398  19.418  0.00  0.00    +0.000 C 
ATOM      3  C   UNL     1       4.044   3.894  19.080  0.00  0.00    +0.000 C 
ENDROOT
BRANCH   3   4
ATOM      4  C   UNL     1       3.156   4.791  19.905  0.00  0.00    +0.000 C 
ATOM      5  O   UNL     1       2.805   4.405  21.022  0.00  0.00    +0.000 OA
ATOM      6  N   UNL     1       2.782   6.038  19.371  0.00  0.00    +0.000 N 
ATOM      7  C   UNL     1       2.138   6.952  20.190  0.00  0.00    +0.000 C 
ATOM      8  C   UNL     1       1.742   8.161  19.764  0.00  0.00    +0.000 C 
ATOM      9  C   UNL     1       1.999   8.674  18.383  0.00  0.00    +0.000 C 
ATOM     10  C   UNL     1       3.022   7.826  17.636  0.00  0.00    +0.000 C 
ATOM     11  C   UNL     1       2.836   6.338  17.931  0.00  0.00    +0.000 C 
ENDBRANCH   3   4
BRANCH   3  12
ATOM     12  C   UNL     1       5.353   4.569  18.590  0.00  0.00    +0.000 A 
ATOM     13  C   UNL     1       6.241   5.345  19.394  0.00  0.00    +0.000 A 
ATOM     14  C   UNL     1       7.228   5.945  18.640  0.00  0.00    +0.000 A 
ATOM     15  S   UNL     1       7.140   5.507  16.991  0.00  0.00    +0.000 S 
ATOM     16  C   UNL     1       5.786   4.503  17.280  0.00  0.00    +0.000 A 
ENDBRANCH   3  12
BRANCH   1  17
ATOM     17  C   UNL     1       1.881   2.723  18.077  0.00  0.00    +0.000 C 
BRANCH  17  18
ATOM     18  N   UNL     1       1.392   1.578  18.836  0.00  0.00    +0.000 NA
ATOM     19  H   UNL     1       0.491   1.305  18.439  0.00  0.00    +0.000 HD
ATOM     20  H   UNL     1       1.176   1.878  19.786  0.00  0.00    +0.000 HD
ENDBRANCH  17  18
ENDBRANCH   1  17
TORSDOF 4
ENDMDL
MODEL 6
REMARK VINA RESULT:      -6.3      2.871      5.541
REMARK  Name = 
REMARK  4 active torsions:
REMARK  status: ('A' for Active; 'I' for Inactive)
REMARK    1  A    between atoms: N_1  and  C_2
REMARK    2  A    between atoms: C_2  and  C_3
REMARK    3  A    between atoms: C_5  and  C_6
REMARK    4  A    between atoms: C_5  and  C_14
REMARK                            x       y       z     vdW  Elec       q    Type
REMARK                         _______ _______ _______ _____ _____    ______ ____
ROOT
ATOM      1  C   UNL     1       7.158   5.539  18.035  0.00  0.00    +0.000 C 
ATOM      2  C   UNL     1       7.165   6.841  17.310  0.00  0.00    +0.000 C 
ATOM      3  C   UNL     1       6.097   5.805  16.938  0.00  0.00    +0.000 C 
ENDROOT
BRANCH   3   4
ATOM      4  C   UNL     1       4.671   6.051  17.365  0.00  0.00    +0.000 C 
ATOM      5  O   UNL     1       4.257   7.211  17.390  0.00  0.00    +0.000 OA
ATOM      6  N   UNL     1       3.872   4.942  17.699  0.00  0.00    +0.000 N 
ATOM      7  C   UNL     1       2.513   5.131  17.899  0.00  0.00    +0.000 C 
ATOM      8  C   UNL     1       1.678   4.133  18.224  0.00  0.00    +0.000 C 
ATOM      9  C   UNL     1       2.108   2.706  18.352  0.00  0.00    +0.000 C 
ATOM     10  C   UNL     1       3.495   2.469  17.767  0.00  0.00    +0.000 C 
ATOM     11  C   UNL     1       4.435   3.634  18.069  0.00  0.00    +0.000 C 
ENDBRANCH   3   4
BRANCH   3  12
ATOM     12  C   UNL     1       6.237   5.084  15.571  0.00  0.00    +0.000 A 
ATOM     13  C   UNL     1       7.373   5.148  14.709  0.00  0.00    +0.000 A 
ATOM     14  C   UNL     1       7.134   4.535  13.495  0.00  0.00    +0.000 A 
ATOM     15  S   UNL     1       5.587   3.812  13.428  0.00  0.00    +0.000 S 
ATOM     16  C   UNL     1       5.233   4.307  15.027  0.00  0.00    +0.000 A 
ENDBRANCH   3  12
BRANCH   1  17
ATOM     17  C   UNL     1       6.769   5.451  19.483  0.00  0.00    +0.000 C 
BRANCH  17  18
ATOM     18  N   UNL     1       7.956   5.455  20.330  0.00  0.00    +0.000 NA
ATOM     19  H   UNL     1       8.666   6.025  19.867  0.00  0.00    +0.000 HD
ATOM     20  H   UNL     1       8.351   4.516  20.351  0.00  0.00    +0.000 HD
ENDBRANCH  17  18
ENDBRANCH   1  17
TORSDOF 4
ENDMDL
MODEL 7
REMARK VINA RESULT:      -6.3      1.583      2.054
REMARK  Name = 
REMARK  4 active torsions:
REMARK  status: ('A' for Active; 'I' for Inactive)
REMARK    1  A    between atoms: N_1  and  C_2
REMARK    2  A    between atoms: C_2  and  C_3
REMARK    3  A    between atoms: C_5  and  C_6
REMARK    4  A    between atoms: C_5  and  C_14
REMARK                            x       y       z     vdW  Elec       q    Type
REMARK                         _______ _______ _______ _____ _____    ______ ____
ROOT
ATOM      1  C   UNL     1       2.317   3.988  20.406  0.00  0.00    +0.000 C 
ATOM      2  C   UNL     1       1.048   3.980  19.625  0.00  0.00    +0.000 C 
ATOM      3  C   UNL     1       2.264   4.705  19.033  0.00  0.00    +0.000 C 
ENDROOT
BRANCH   3   4
ATOM      4  C   UNL     1       2.985   4.076  17.868  0.00  0.00    +0.000 C 
ATOM      5  O   UNL     1       2.340   3.373  17.088  0.00  0.00    +0.000 OA
ATOM      6  N   UNL     1       4.359   4.335  17.711  0.00  0.00    +0.000 N 
ATOM      7  C   UNL     1       4.989   3.932  16.544  0.00  0.00    +0.000 C 
ATOM      8  C   UNL     1       6.295   4.133  16.313  0.00  0.00    +0.000 C 
ATOM      9  C   UNL     1       7.198   4.858  17.260  0.00  0.00    +0.000 C 
ATOM     10  C   UNL     1       6.421   5.610  18.334  0.00  0.00    +0.000 C 
ATOM     11  C   UNL     1       5.212   4.807  18.814  0.00  0.00    +0.000 C 
ENDBRANCH   3   4
BRANCH   3  12
ATOM     12  C   UNL     1       2.232   6.257  19.001  0.00  0.00    +0.000 A 
ATOM     13  C   UNL     1       1.973   7.107  20.117  0.00  0.00    +0.000 A 
ATOM     14  C   UNL     1       1.852   8.430  19.740  0.00  0.00    +0.000 A 
ATOM     15  S   UNL     1       2.139   8.656  18.071  0.00  0.00    +0.000 S 
ATOM     16  C   UNL     1       2.435   6.987  17.846  0.00  0.00    +0.000 A 
ENDBRANCH   3  12
BRANCH   1  17
ATOM     17  C   UNL     1       3.128   2.738  20.594  0.00  0.00    +0.000 C 
BRANCH  17  18
ATOM     18  N   UNL     1       2.962   2.223  21.948  0.00  0.00    +0.000 NA
ATOM     19  H   UNL     1       3.776   1.645  22.163  0.00  0.00    +0.000 HD
ATOM     20  H   UNL     1       2.174   1.576  21.961  0.00  0.00    +0.000 HD
ENDBRANCH  17  18
ENDBRANCH   1  17
TORSDOF 4
ENDMDL
MODEL 8
REMARK VINA RESULT:      -6.3      0.841      1.159
REMARK  Name = 
REMARK  4 active torsions:
REMARK  status: ('A' for Active; 'I' for Inactive)
REMARK    1  A    between atoms: N_1  and  C_2
REMARK    2  A    between atoms: C_2  and  C_3
REMARK    3  A    between atoms: C_5  and  C_6
REMARK    4  A    between atoms: C_5  and  C_14
REMARK                            x       y       z     vdW  Elec       q    Type
REMARK                         _______ _______ _______ _____ _____    ______ ____
ROOT
ATOM      1  C   UNL     1       2.006   4.051  19.030  0.00  0.00    +0.000 C 
ATOM      2  C   UNL     1       2.226   4.363  17.588  0.00  0.00    +0.000 C 
ATOM      3  C   UNL     1       2.903   5.253  18.638  0.00  0.00    +0.000 C 
ENDROOT
BRANCH   3   4
ATOM      4  C   UNL     1       4.393   5.131  18.839  0.00  0.00    +0.000 C 
ATOM      5  O   UNL     1       4.832   5.124  19.990  0.00  0.00    +0.000 OA
ATOM      6  N   UNL     1       5.214   5.012  17.703  0.00  0.00    +0.000 N 
ATOM      7  C   UNL     1       6.554   4.700  17.873  0.00  0.00    +0.000 C 
ATOM      8  C   UNL     1       7.410   4.572  16.848  0.00  0.00    +0.000 C 
ATOM      9  C   UNL     1       7.003   4.698  15.414  0.00  0.00    +0.000 C 
ATOM     10  C   UNL     1       5.490   4.660  15.240  0.00  0.00    +0.000 C 
ATOM     11  C   UNL     1       4.780   5.423  16.358  0.00  0.00    +0.000 C 
ENDBRANCH   3   4
BRANCH   3  12
ATOM     12  C   UNL     1       2.351   6.691  18.828  0.00  0.00    +0.000 A 
ATOM     13  C   UNL     1       2.251   7.685  17.809  0.00  0.00    +0.000 A 
ATOM     14  C   UNL     1       1.874   8.911  18.319  0.00  0.00    +0.000 A 
ATOM     15  S   UNL     1       1.557   8.844  19.997  0.00  0.00    +0.000 S 
ATOM     16  C   UNL     1       1.913   7.172  20.046  0.00  0.00    +0.000 A 
ENDBRANCH   3  12
BRANCH   1  17
ATOM     17  C   UNL     1       2.593   2.823  19.663  0.00  0.00    +0.000 C 
BRANCH  17  18
ATOM     18  N   UNL     1       2.608   2.957  21.115  0.00  0.00    +0.000 NA
ATOM     19  H   UNL     1       2.920   3.904  21.336  0.00  0.00    +0.000 HD
ATOM     20  H   UNL     1       3.333   2.350  21.496  0.00  0.00    +0.000 HD
ENDBRANCH  17  18
ENDBRANCH   1  17
TORSDOF 4
ENDMDL
MODEL 9
REMARK VINA RESULT:      -6.1      1.833      2.484
REMARK  Name = 
REMARK  4 active torsions:
REMARK  status: ('A' for Active; 'I' for Inactive)
REMARK    1  A    between atoms: N_1  and  C_2
REMARK    2  A    between atoms: C_2  and  C_3
REMARK    3  A    between atoms: C_5  and  C_6
REMARK    4  A    between atoms: C_5  and  C_14
REMARK                            x       y       z     vdW  Elec       q    Type
REMARK                         _______ _______ _______ _____ _____    ______ ____
ROOT
ATOM      1  C   UNL     1       3.151   3.017  20.091  0.00  0.00    +0.000 C 
ATOM      2  C   UNL     1       1.767   2.848  19.563  0.00  0.00    +0.000 C 
ATOM      3  C   UNL     1       2.654   3.939  18.949  0.00  0.00    +0.000 C 
ENDROOT
BRANCH   3   4
ATOM      4  C   UNL     1       3.209   3.727  17.564  0.00  0.00    +0.000 C 
ATOM      5  O   UNL     1       2.535   3.090  16.751  0.00  0.00    +0.000 OA
ATOM      6  N   UNL     1       4.465   4.280  17.252  0.00  0.00    +0.000 N 
ATOM      7  C   UNL     1       4.897   4.267  15.936  0.00  0.00    +0.000 C 
ATOM      8  C   UNL     1       6.080   4.768  15.550  0.00  0.00    +0.000 C 
ATOM      9  C   UNL     1       7.034   5.441  16.485  0.00  0.00    +0.000 C 
ATOM     10  C   UNL     1       6.387   5.779  17.822  0.00  0.00    +0.000 C 
ATOM     11  C   UNL     1       5.442   4.669  18.282  0.00  0.00    +0.000 C 
ENDBRANCH   3   4
BRANCH   3  12
ATOM     12  C   UNL     1       2.310   5.417  19.278  0.00  0.00    +0.000 A 
ATOM     13  C   UNL     1       2.479   6.527  18.397  0.00  0.00    +0.000 A 
ATOM     14  C   UNL     1       2.238   7.729  19.029  0.00  0.00    +0.000 A 
ATOM     15  S   UNL     1       1.724   7.519  20.646  0.00  0.00    +0.000 S 
ATOM     16  C   UNL     1       1.813   5.817  20.503  0.00  0.00    +0.000 A 
ENDBRANCH   3  12
BRANCH   1  17
ATOM     17  C   UNL     1       4.214   1.986  19.844  0.00  0.00    +0.000 C 
BRANCH  17  18
ATOM     18  N   UNL     1       5.069   1.845  21.017  0.00  0.00    +0.000 NA
ATOM     19  H   UNL     1       4.978   2.698  21.572  0.00  0.00    +0.000 HD
ATOM     20  H   UNL     1       6.043   1.833  20.718  0.00  0.00    +0.000 HD
ENDBRANCH  17  18
ENDBRANCH   1  17
TORSDOF 4
ENDMDL
