MODEL 1
REMARK VINA RESULT:      -8.7      0.000      0.000
REMARK  Name = 
REMARK  7 active torsions:
REMARK  status: ('A' for Active; 'I' for Inactive)
REMARK    1  A    between atoms: C_1  and  C_2
REMARK    2  A    between atoms: C_9  and  O_10
REMARK    3  A    between atoms: O_10  and  C_11
REMARK    4  A    between atoms: C_24  and  C_25
REMARK    5  A    between atoms: C_25  and  C_26
REMARK    6  A    between atoms: C_25  and  C_27
REMARK    7  A    between atoms: C_25  and  C_28
REMARK                            x       y       z     vdW  Elec       q    Type
REMARK                         _______ _______ _______ _____ _____    ______ ____
ROOT
ATOM      1  C   UNL     1       2.090   7.160  20.141  0.00  0.00    +0.000 A 
ATOM      2  C   UNL     1       1.225   7.386  21.213  0.00  0.00    +0.000 A 
ATOM      3  C   UNL     1       0.393   8.522  21.240  0.00  0.00    +0.000 A 
ATOM      4  C   UNL     1       0.443   9.393  20.133  0.00  0.00    +0.000 A 
ATOM      5  C   UNL     1       1.270   9.155  19.038  0.00  0.00    +0.000 A 
ATOM      6  C   UNL     1       1.065  10.182  18.087  0.00  0.00    +0.000 A 
ATOM      7  C   UNL     1      -0.070  10.841  18.485  0.00  0.00    +0.000 A 
ATOM      8  N   UNL     1      -0.221  10.569  19.832  0.00  0.00    +0.000 N 
ATOM      9  C   UNL     1      -0.788  11.480  20.704  0.00  0.00    +0.000 C 
ATOM     10  O   UNL     1      -1.945  11.849  20.514  0.00  0.00    +0.000 OA
ATOM     11  N   UNL     1       0.208  12.041  21.489  0.00  0.00    +0.000 N 
ATOM     12  C   UNL     1      -0.138  13.114  22.266  0.00  0.00    +0.000 A 
ATOM     13  C   UNL     1      -1.364  13.213  22.921  0.00  0.00    +0.000 A 
ATOM     14  C   UNL     1      -1.461  14.530  23.266  0.00  0.00    +0.000 A 
ATOM     15  O   UNL     1      -0.263  15.138  23.032  0.00  0.00    +0.000 OA
ATOM     16  N   UNL     1       0.606  14.209  22.439  0.00  0.00    +0.000 NA
ATOM     17  C   UNL     1       2.094   8.028  19.044  0.00  0.00    +0.000 A 
ATOM     18  H   UNL     1       1.166  12.020  21.153  0.00  0.00    +0.000 HD
ENDROOT
BRANCH  14  19
ATOM     19  C   UNL     1      -2.654  15.292  23.749  0.00  0.00    +0.000 C 
ATOM     20  C   UNL     1      -2.798  16.555  22.883  0.00  0.00    +0.000 C 
ATOM     21  C   UNL     1      -3.943  14.471  23.701  0.00  0.00    +0.000 C 
ATOM     22  C   UNL     1      -2.388  15.710  25.216  0.00  0.00    +0.000 C 
ENDBRANCH  14  19
BRANCH   1  23
ATOM     23  O   UNL     1       2.893   6.030  20.165  0.00  0.00    +0.000 OA
BRANCH  23  32
ATOM     24  C   UNL     1       7.350   6.446  17.237  0.00  0.00    +0.000 C 
ATOM     25  C   UNL     1       6.217   5.432  17.314  0.00  0.00    +0.000 C 
ATOM     26  C   UNL     1       5.134   5.871  18.332  0.00  0.00    +0.000 C 
ATOM     27  C   UNL     1       3.856   5.092  18.186  0.00  0.00    +0.000 A 
ATOM     28  C   UNL     1       3.659   4.226  17.118  0.00  0.00    +0.000 A 
ATOM     29  N   UNL     1       2.572   3.431  17.001  0.00  0.00    +0.000 NA
ATOM     30  C   UNL     1       1.624   3.586  17.928  0.00  0.00    +0.000 A 
ATOM     31  N   UNL     1       1.652   4.469  18.924  0.00  0.00    +0.000 NA
ATOM     32  C   UNL     1       2.791   5.181  19.062  0.00  0.00    +0.000 A 
ATOM     33  C   UNL     1       4.687   4.124  16.012  0.00  0.00    +0.000 C 
ATOM     34  N   UNL     1       5.643   5.243  15.978  0.00  0.00    +0.000 NA
ATOM     35  H   UNL     1       5.137   6.087  15.710  0.00  0.00    +0.000 HD
ENDBRANCH  23  32
ENDBRANCH   1  23
TORSDOF 3
ENDMDL
MODEL 2
REMARK VINA RESULT:      -8.5      0.744      1.030
REMARK  Name = 
REMARK  7 active torsions:
REMARK  status: ('A' for Active; 'I' for Inactive)
REMARK    1  A    between atoms: C_1  and  C_2
REMARK    2  A    between atoms: C_9  and  O_10
REMARK    3  A    between atoms: O_10  and  C_11
REMARK    4  A    between atoms: C_24  and  C_25
REMARK    5  A    between atoms: C_25  and  C_26
REMARK    6  A    between atoms: C_25  and  C_27
REMARK    7  A    between atoms: C_25  and  C_28
REMARK                            x       y       z     vdW  Elec       q    Type
REMARK                         _______ _______ _______ _____ _____    ______ ____
ROOT
ATOM      1  C   UNL     1       2.441   6.812  19.888  0.00  0.00    +0.000 A 
ATOM      2  C   UNL     1       1.618   7.057  20.987  0.00  0.00    +0.000 A 
ATOM      3  C   UNL     1       0.772   8.184  21.018  0.00  0.00    +0.000 A 
ATOM      4  C   UNL     1       0.766   9.024  19.886  0.00  0.00    +0.000 A 
ATOM      5  C   UNL     1       1.552   8.767  18.765  0.00  0.00    +0.000 A 
ATOM      6  C   UNL     1       1.295   9.764  17.796  0.00  0.00    +0.000 A 
ATOM      7  C   UNL     1       0.169  10.420  18.221  0.00  0.00    +0.000 A 
ATOM      8  N   UNL     1       0.076  10.184  19.581  0.00  0.00    +0.000 N 
ATOM      9  C   UNL     1      -0.467  11.112  20.450  0.00  0.00    +0.000 C 
ATOM     10  O   UNL     1      -1.636  11.461  20.297  0.00  0.00    +0.000 OA
ATOM     11  N   UNL     1       0.552  11.705  21.178  0.00  0.00    +0.000 N 
ATOM     12  C   UNL     1       0.223  12.795  21.939  0.00  0.00    +0.000 A 
ATOM     13  C   UNL     1      -0.976  12.898  22.640  0.00  0.00    +0.000 A 
ATOM     14  C   UNL     1      -1.077  14.222  22.954  0.00  0.00    +0.000 A 
ATOM     15  O   UNL     1       0.103  14.838  22.654  0.00  0.00    +0.000 OA
ATOM     16  N   UNL     1       0.960  13.904  22.052  0.00  0.00    +0.000 NA
ATOM     17  C   UNL     1       2.391   7.650  18.768  0.00  0.00    +0.000 A 
ATOM     18  H   UNL     1       1.496  11.687  20.805  0.00  0.00    +0.000 HD
ENDROOT
BRANCH  14  19
ATOM     19  C   UNL     1      -2.259  14.984  23.464  0.00  0.00    +0.000 C 
ATOM     20  C   UNL     1      -1.867  15.641  24.798  0.00  0.00    +0.000 C 
ATOM     21  C   UNL     1      -2.751  16.046  22.479  0.00  0.00    +0.000 C 
ATOM     22  C   UNL     1      -3.404  13.972  23.713  0.00  0.00    +0.000 C 
ENDBRANCH  14  19
BRANCH   1  23
ATOM     23  O   UNL     1       3.260   5.693  19.910  0.00  0.00    +0.000 OA
BRANCH  23  32
ATOM     24  C   UNL     1       7.759   7.364  17.547  0.00  0.00    +0.000 C 
ATOM     25  C   UNL     1       6.845   6.160  17.366  0.00  0.00    +0.000 C 
ATOM     26  C   UNL     1       5.621   6.232  18.316  0.00  0.00    +0.000 C 
ATOM     27  C   UNL     1       4.537   5.264  17.933  0.00  0.00    +0.000 A 
ATOM     28  C   UNL     1       4.596   4.550  16.742  0.00  0.00    +0.000 A 
ATOM     29  N   UNL     1       3.699   3.598  16.405  0.00  0.00    +0.000 NA
ATOM     30  C   UNL     1       2.671   3.432  17.240  0.00  0.00    +0.000 A 
ATOM     31  N   UNL     1       2.448   4.141  18.344  0.00  0.00    +0.000 NA
ATOM     32  C   UNL     1       3.411   5.020  18.696  0.00  0.00    +0.000 A 
ATOM     33  C   UNL     1       5.705   4.811  15.745  0.00  0.00    +0.000 C 
ATOM     34  N   UNL     1       6.422   6.077  15.964  0.00  0.00    +0.000 NA
ATOM     35  H   UNL     1       5.783   6.846  15.763  0.00  0.00    +0.000 HD
ENDBRANCH  23  32
ENDBRANCH   1  23
TORSDOF 3
ENDMDL
MODEL 3
REMARK VINA RESULT:      -8.5      1.973      3.513
REMARK  Name = 
REMARK  7 active torsions:
REMARK  status: ('A' for Active; 'I' for Inactive)
REMARK    1  A    between atoms: C_1  and  C_2
REMARK    2  A    between atoms: C_9  and  O_10
REMARK    3  A    between atoms: O_10  and  C_11
REMARK    4  A    between atoms: C_24  and  C_25
REMARK    5  A    between atoms: C_25  and  C_26
REMARK    6  A    between atoms: C_25  and  C_27
REMARK    7  A    between atoms: C_25  and  C_28
REMARK                            x       y       z     vdW  Elec       q    Type
REMARK                         _______ _______ _______ _____ _____    ______ ____
ROOT
ATOM      1  C   UNL     1       2.375   7.736  18.272  0.00  0.00    +0.000 A 
ATOM      2  C   UNL     1       2.329   9.056  17.824  0.00  0.00    +0.000 A 
ATOM      3  C   UNL     1       1.817  10.079  18.645  0.00  0.00    +0.000 A 
ATOM      4  C   UNL     1       1.393   9.722  19.941  0.00  0.00    +0.000 A 
ATOM      5  C   UNL     1       1.474   8.416  20.416  0.00  0.00    +0.000 A 
ATOM      6  C   UNL     1       1.008   8.392  21.751  0.00  0.00    +0.000 A 
ATOM      7  C   UNL     1       0.935   9.702  22.147  0.00  0.00    +0.000 A 
ATOM      8  N   UNL     1       0.854  10.451  20.987  0.00  0.00    +0.000 N 
ATOM      9  C   UNL     1       0.155  11.643  20.932  0.00  0.00    +0.000 C 
ATOM     10  O   UNL     1       0.495  12.569  21.664  0.00  0.00    +0.000 OA
ATOM     11  N   UNL     1      -1.027  11.445  20.234  0.00  0.00    +0.000 N 
ATOM     12  C   UNL     1      -1.944  12.462  20.258  0.00  0.00    +0.000 A 
ATOM     13  C   UNL     1      -1.587  13.807  20.205  0.00  0.00    +0.000 A 
ATOM     14  C   UNL     1      -2.707  14.474  20.607  0.00  0.00    +0.000 A 
ATOM     15  O   UNL     1      -3.745  13.592  20.680  0.00  0.00    +0.000 OA
ATOM     16  N   UNL     1      -3.262  12.303  20.399  0.00  0.00    +0.000 NA
ATOM     17  C   UNL     1       1.973   7.419  19.575  0.00  0.00    +0.000 A 
ATOM     18  H   UNL     1      -1.402  10.504  20.163  0.00  0.00    +0.000 HD
ENDROOT
BRANCH  14  19
ATOM     19  C   UNL     1      -2.860  15.908  21.006  0.00  0.00    +0.000 C 
ATOM     20  C   UNL     1      -1.902  16.749  20.146  0.00  0.00    +0.000 C 
ATOM     21  C   UNL     1      -4.293  16.418  20.850  0.00  0.00    +0.000 C 
ATOM     22  C   UNL     1      -2.449  16.033  22.494  0.00  0.00    +0.000 C 
ENDBRANCH  14  19
BRANCH   1  23
ATOM     23  O   UNL     1       2.882   6.765  17.422  0.00  0.00    +0.000 OA
BRANCH  23  32
ATOM     24  C   UNL     1       0.578   2.136  18.793  0.00  0.00    +0.000 C 
ATOM     25  C   UNL     1       2.015   2.584  18.567  0.00  0.00    +0.000 C 
ATOM     26  C   UNL     1       2.089   4.097  18.237  0.00  0.00    +0.000 C 
ATOM     27  C   UNL     1       3.486   4.643  18.349  0.00  0.00    +0.000 A 
ATOM     28  C   UNL     1       4.518   3.879  18.881  0.00  0.00    +0.000 A 
ATOM     29  N   UNL     1       5.804   4.291  18.908  0.00  0.00    +0.000 NA
ATOM     30  C   UNL     1       6.037   5.534  18.480  0.00  0.00    +0.000 A 
ATOM     31  N   UNL     1       5.111   6.395  18.064  0.00  0.00    +0.000 NA
ATOM     32  C   UNL     1       3.851   5.919  17.965  0.00  0.00    +0.000 A 
ATOM     33  C   UNL     1       4.238   2.510  19.462  0.00  0.00    +0.000 C 
ATOM     34  N   UNL     1       2.817   2.261  19.752  0.00  0.00    +0.000 NA
ATOM     35  H   UNL     1       2.536   2.870  20.521  0.00  0.00    +0.000 HD
ENDBRANCH  23  32
ENDBRANCH   1  23
TORSDOF 3
ENDMDL
MODEL 4
REMARK VINA RESULT:      -8.0      1.905      2.634
REMARK  Name = 
REMARK  7 active torsions:
REMARK  status: ('A' for Active; 'I' for Inactive)
REMARK    1  A    between atoms: C_1  and  C_2
REMARK    2  A    between atoms: C_9  and  O_10
REMARK    3  A    between atoms: O_10  and  C_11
REMARK    4  A    between atoms: C_24  and  C_25
REMARK    5  A    between atoms: C_25  and  C_26
REMARK    6  A    between atoms: C_25  and  C_27
REMARK    7  A    between atoms: C_25  and  C_28
REMARK                            x       y       z     vdW  Elec       q    Type
REMARK                         _______ _______ _______ _____ _____    ______ ____
ROOT
ATOM      1  C   UNL     1       2.069   8.133  18.331  0.00  0.00    +0.000 A 
ATOM      2  C   UNL     1       1.973   9.462  17.914  0.00  0.00    +0.000 A 
ATOM      3  C   UNL     1       1.461  10.452  18.775  0.00  0.00    +0.000 A 
ATOM      4  C   UNL     1       1.089  10.056  20.075  0.00  0.00    +0.000 A 
ATOM      5  C   UNL     1       1.220   8.742  20.517  0.00  0.00    +0.000 A 
ATOM      6  C   UNL     1       0.799   8.676  21.866  0.00  0.00    +0.000 A 
ATOM      7  C   UNL     1       0.704   9.974  22.293  0.00  0.00    +0.000 A 
ATOM      8  N   UNL     1       0.566  10.746  21.154  0.00  0.00    +0.000 N 
ATOM      9  C   UNL     1      -0.166  11.919  21.148  0.00  0.00    +0.000 C 
ATOM     10  O   UNL     1       0.173  12.839  21.890  0.00  0.00    +0.000 OA
ATOM     11  N   UNL     1      -1.365  11.704  20.485  0.00  0.00    +0.000 N 
ATOM     12  C   UNL     1      -2.307  12.695  20.561  0.00  0.00    +0.000 A 
ATOM     13  C   UNL     1      -1.988  14.050  20.527  0.00  0.00    +0.000 A 
ATOM     14  C   UNL     1      -3.112  14.678  20.980  0.00  0.00    +0.000 A 
ATOM     15  O   UNL     1      -4.123  13.766  21.066  0.00  0.00    +0.000 OA
ATOM     16  N   UNL     1      -3.615  12.498  20.741  0.00  0.00    +0.000 NA
ATOM     17  C   UNL     1       1.718   7.777  19.638  0.00  0.00    +0.000 A 
ATOM     18  H   UNL     1      -1.716  10.756  20.404  0.00  0.00    +0.000 HD
ENDROOT
BRANCH  14  19
ATOM     19  C   UNL     1      -3.289  16.097  21.416  0.00  0.00    +0.000 C 
ATOM     20  C   UNL     1      -1.897  16.697  21.675  0.00  0.00    +0.000 C 
ATOM     21  C   UNL     1      -4.044  16.944  20.390  0.00  0.00    +0.000 C 
ATOM     22  C   UNL     1      -4.094  16.091  22.739  0.00  0.00    +0.000 C 
ENDBRANCH  14  19
BRANCH   1  23
ATOM     23  O   UNL     1       2.573   7.195  17.443  0.00  0.00    +0.000 OA
BRANCH  23  32
ATOM     24  C   UNL     1       7.578   5.912  18.830  0.00  0.00    +0.000 C 
ATOM     25  C   UNL     1       6.207   5.312  19.112  0.00  0.00    +0.000 C 
ATOM     26  C   UNL     1       5.087   6.094  18.380  0.00  0.00    +0.000 C 
ATOM     27  C   UNL     1       3.785   5.342  18.349  0.00  0.00    +0.000 A 
ATOM     28  C   UNL     1       3.707   4.020  18.771  0.00  0.00    +0.000 A 
ATOM     29  N   UNL     1       2.543   3.339  18.857  0.00  0.00    +0.000 NA
ATOM     30  C   UNL     1       1.454   3.972  18.415  0.00  0.00    +0.000 A 
ATOM     31  N   UNL     1       1.430   5.190  17.877  0.00  0.00    +0.000 NA
ATOM     32  C   UNL     1       2.594   5.874  17.893  0.00  0.00    +0.000 A 
ATOM     33  C   UNL     1       4.956   3.268  19.175  0.00  0.00    +0.000 C 
ATOM     34  N   UNL     1       6.207   3.898  18.723  0.00  0.00    +0.000 NA
ATOM     35  H   UNL     1       6.249   3.832  17.706  0.00  0.00    +0.000 HD
ENDBRANCH  23  32
ENDBRANCH   1  23
TORSDOF 3
ENDMDL
MODEL 5
REMARK VINA RESULT:      -8.0      1.231      1.613
REMARK  Name = 
REMARK  7 active torsions:
REMARK  status: ('A' for Active; 'I' for Inactive)
REMARK    1  A    between atoms: C_1  and  C_2
REMARK    2  A    between atoms: C_9  and  O_10
REMARK    3  A    between atoms: O_10  and  C_11
REMARK    4  A    between atoms: C_24  and  C_25
REMARK    5  A    between atoms: C_25  and  C_26
REMARK    6  A    between atoms: C_25  and  C_27
REMARK    7  A    between atoms: C_25  and  C_28
REMARK                            x       y       z     vdW  Elec       q    Type
REMARK                         _______ _______ _______ _____ _____    ______ ____
ROOT
ATOM      1  C   UNL     1       1.929   7.908  20.091  0.00  0.00    +0.000 A 
ATOM      2  C   UNL     1       1.457   8.172  21.377  0.00  0.00    +0.000 A 
ATOM      3  C   UNL     1       0.535   9.211  21.607  0.00  0.00    +0.000 A 
ATOM      4  C   UNL     1       0.084   9.941  20.489  0.00  0.00    +0.000 A 
ATOM      5  C   UNL     1       0.515   9.659  19.195  0.00  0.00    +0.000 A 
ATOM      6  C   UNL     1      -0.142  10.536  18.300  0.00  0.00    +0.000 A 
ATOM      7  C   UNL     1      -1.153  11.118  19.019  0.00  0.00    +0.000 A 
ATOM      8  N   UNL     1      -0.798  10.998  20.351  0.00  0.00    +0.000 N 
ATOM      9  C   UNL     1      -1.156  11.945  21.293  0.00  0.00    +0.000 C 
ATOM     10  O   UNL     1      -2.348  12.167  21.494  0.00  0.00    +0.000 OA
ATOM     11  N   UNL     1      -0.040  12.696  21.630  0.00  0.00    +0.000 N 
ATOM     12  C   UNL     1      -0.248  13.815  22.392  0.00  0.00    +0.000 A 
ATOM     13  C   UNL     1      -1.179  13.866  23.427  0.00  0.00    +0.000 A 
ATOM     14  C   UNL     1      -1.335  15.198  23.681  0.00  0.00    +0.000 A 
ATOM     15  O   UNL     1      -0.384  15.893  22.993  0.00  0.00    +0.000 OA
ATOM     16  N   UNL     1       0.352  14.993  22.206  0.00  0.00    +0.000 NA
ATOM     17  C   UNL     1       1.440   8.632  18.998  0.00  0.00    +0.000 A 
ATOM     18  H   UNL     1       0.739  12.734  20.981  0.00  0.00    +0.000 HD
ENDROOT
BRANCH  14  19
ATOM     19  C   UNL     1      -2.386  15.887  24.492  0.00  0.00    +0.000 C 
ATOM     20  C   UNL     1      -2.963  17.038  23.651  0.00  0.00    +0.000 C 
ATOM     21  C   UNL     1      -3.507  14.945  24.934  0.00  0.00    +0.000 C 
ATOM     22  C   UNL     1      -1.705  16.471  25.754  0.00  0.00    +0.000 C 
ENDBRANCH  14  19
BRANCH   1  23
ATOM     23  O   UNL     1       2.841   6.878  19.918  0.00  0.00    +0.000 OA
BRANCH  23  32
ATOM     24  C   UNL     1       5.224   4.424  15.805  0.00  0.00    +0.000 C 
ATOM     25  C   UNL     1       4.387   3.953  16.986  0.00  0.00    +0.000 C 
ATOM     26  C   UNL     1       3.901   5.148  17.846  0.00  0.00    +0.000 C 
ATOM     27  C   UNL     1       2.805   4.762  18.801  0.00  0.00    +0.000 A 
ATOM     28  C   UNL     1       2.203   3.512  18.739  0.00  0.00    +0.000 A 
ATOM     29  N   UNL     1       1.288   3.086  19.638  0.00  0.00    +0.000 NA
ATOM     30  C   UNL     1       0.904   3.975  20.557  0.00  0.00    +0.000 A 
ATOM     31  N   UNL     1       1.322   5.236  20.637  0.00  0.00    +0.000 NA
ATOM     32  C   UNL     1       2.302   5.597  19.780  0.00  0.00    +0.000 A 
ATOM     33  C   UNL     1       2.562   2.540  17.635  0.00  0.00    +0.000 C 
ATOM     34  N   UNL     1       3.256   3.160  16.494  0.00  0.00    +0.000 NA
ATOM     35  H   UNL     1       2.599   3.777  16.017  0.00  0.00    +0.000 HD
ENDBRANCH  23  32
ENDBRANCH   1  23
TORSDOF 3
ENDMDL
MODEL 6
REMARK VINA RESULT:      -7.9      2.286      3.174
REMARK  Name = 
REMARK  7 active torsions:
REMARK  status: ('A' for Active; 'I' for Inactive)
REMARK    1  A    between atoms: C_1  and  C_2
REMARK    2  A    between atoms: C_9  and  O_10
REMARK    3  A    between atoms: O_10  and  C_11
REMARK    4  A    between atoms: C_24  and  C_25
REMARK    5  A    between atoms: C_25  and  C_26
REMARK    6  A    between atoms: C_25  and  C_27
REMARK    7  A    between atoms: C_25  and  C_28
REMARK                            x       y       z     vdW  Elec       q    Type
REMARK                         _______ _______ _______ _____ _____    ______ ____
ROOT
ATOM      1  C   UNL     1       1.601   9.630  17.988  0.00  0.00    +0.000 A 
ATOM      2  C   UNL     1       0.211   9.512  17.934  0.00  0.00    +0.000 A 
ATOM      3  C   UNL     1      -0.619  10.507  18.486  0.00  0.00    +0.000 A 
ATOM      4  C   UNL     1       0.007  11.634  19.058  0.00  0.00    +0.000 A 
ATOM      5  C   UNL     1       1.391  11.783  19.080  0.00  0.00    +0.000 A 
ATOM      6  C   UNL     1       1.701  13.024  19.683  0.00  0.00    +0.000 A 
ATOM      7  C   UNL     1       0.520  13.717  19.744  0.00  0.00    +0.000 A 
ATOM      8  N   UNL     1      -0.486  12.771  19.672  0.00  0.00    +0.000 N 
ATOM      9  C   UNL     1      -1.700  12.942  20.313  0.00  0.00    +0.000 C 
ATOM     10  O   UNL     1      -2.403  13.905  20.013  0.00  0.00    +0.000 OA
ATOM     11  N   UNL     1      -1.749  12.113  21.423  0.00  0.00    +0.000 N 
ATOM     12  C   UNL     1      -2.788  12.298  22.295  0.00  0.00    +0.000 A 
ATOM     13  C   UNL     1      -4.082  12.605  21.880  0.00  0.00    +0.000 A 
ATOM     14  C   UNL     1      -4.706  13.053  23.008  0.00  0.00    +0.000 A 
ATOM     15  O   UNL     1      -3.900  12.815  24.083  0.00  0.00    +0.000 OA
ATOM     16  N   UNL     1      -2.687  12.276  23.626  0.00  0.00    +0.000 NA
ATOM     17  C   UNL     1       2.190  10.775  18.537  0.00  0.00    +0.000 A 
ATOM     18  H   UNL     1      -0.879  11.781  21.826  0.00  0.00    +0.000 HD
ENDROOT
BRANCH  14  19
ATOM     19  C   UNL     1      -6.011  13.772  23.143  0.00  0.00    +0.000 C 
ATOM     20  C   UNL     1      -6.936  12.923  24.032  0.00  0.00    +0.000 C 
ATOM     21  C   UNL     1      -5.858  15.175  23.732  0.00  0.00    +0.000 C 
ATOM     22  C   UNL     1      -6.634  13.893  21.731  0.00  0.00    +0.000 C 
ENDBRANCH  14  19
BRANCH   1  23
ATOM     23  O   UNL     1       2.373   8.620  17.435  0.00  0.00    +0.000 OA
BRANCH  23  32
ATOM     24  C   UNL     1       5.948   5.444  15.036  0.00  0.00    +0.000 C 
ATOM     25  C   UNL     1       5.437   5.585  16.463  0.00  0.00    +0.000 C 
ATOM     26  C   UNL     1       4.327   6.663  16.562  0.00  0.00    +0.000 C 
ATOM     27  C   UNL     1       3.566   6.589  17.857  0.00  0.00    +0.000 A 
ATOM     28  C   UNL     1       3.750   5.534  18.742  0.00  0.00    +0.000 A 
ATOM     29  N   UNL     1       3.166   5.478  19.959  0.00  0.00    +0.000 NA
ATOM     30  C   UNL     1       2.305   6.457  20.247  0.00  0.00    +0.000 A 
ATOM     31  N   UNL     1       1.960   7.450  19.430  0.00  0.00    +0.000 NA
ATOM     32  C   UNL     1       2.631   7.524  18.260  0.00  0.00    +0.000 A 
ATOM     33  C   UNL     1       4.646   4.371  18.373  0.00  0.00    +0.000 C 
ATOM     34  N   UNL     1       4.955   4.283  16.937  0.00  0.00    +0.000 NA
ATOM     35  H   UNL     1       4.097   4.045  16.440  0.00  0.00    +0.000 HD
ENDBRANCH  23  32
ENDBRANCH   1  23
TORSDOF 3
ENDMDL
MODEL 7
REMARK VINA RESULT:      -7.9      1.452      1.956
REMARK  Name = 
REMARK  7 active torsions:
REMARK  status: ('A' for Active; 'I' for Inactive)
REMARK    1  A    between atoms: C_1  and  C_2
REMARK    2  A    between atoms: C_9  and  O_10
REMARK    3  A    between atoms: O_10  and  C_11
REMARK    4  A    between atoms: C_24  and  C_25
REMARK    5  A    between atoms: C_25  and  C_26
REMARK    6  A    between atoms: C_25  and  C_27
REMARK    7  A    between atoms: C_25  and  C_28
REMARK                            x       y       z     vdW  Elec       q    Type
REMARK                         _______ _______ _______ _____ _____    ______ ____
ROOT
ATOM      1  C   UNL     1       1.797   8.463  19.095  0.00  0.00    +0.000 A 
ATOM      2  C   UNL     1       1.633   8.620  20.472  0.00  0.00    +0.000 A 
ATOM      3  C   UNL     1       0.693   9.535  20.987  0.00  0.00    +0.000 A 
ATOM      4  C   UNL     1      -0.093  10.251  20.061  0.00  0.00    +0.000 A 
ATOM      5  C   UNL     1       0.032  10.072  18.686  0.00  0.00    +0.000 A 
ATOM      6  C   UNL     1      -0.913  10.900  18.036  0.00  0.00    +0.000 A 
ATOM      7  C   UNL     1      -1.770  11.331  19.015  0.00  0.00    +0.000 A 
ATOM      8  N   UNL     1      -1.087  11.202  20.210  0.00  0.00    +0.000 N 
ATOM      9  C   UNL     1      -1.297  12.063  21.272  0.00  0.00    +0.000 C 
ATOM     10  O   UNL     1      -2.419  12.136  21.768  0.00  0.00    +0.000 OA
ATOM     11  N   UNL     1      -0.216  12.925  21.379  0.00  0.00    +0.000 N 
ATOM     12  C   UNL     1      -0.344  13.981  22.242  0.00  0.00    +0.000 A 
ATOM     13  C   UNL     1      -0.990  13.882  23.472  0.00  0.00    +0.000 A 
ATOM     14  C   UNL     1      -1.216  15.176  23.844  0.00  0.00    +0.000 A 
ATOM     15  O   UNL     1      -0.542  16.004  22.995  0.00  0.00    +0.000 OA
ATOM     16  N   UNL     1       0.066  15.228  21.995  0.00  0.00    +0.000 NA
ATOM     17  C   UNL     1       0.981   9.168  18.203  0.00  0.00    +0.000 A 
ATOM     18  H   UNL     1       0.371  13.079  20.565  0.00  0.00    +0.000 HD
ENDROOT
BRANCH  14  19
ATOM     19  C   UNL     1      -2.099  15.705  24.928  0.00  0.00    +0.000 C 
ATOM     20  C   UNL     1      -1.259  15.837  26.210  0.00  0.00    +0.000 C 
ATOM     21  C   UNL     1      -2.733  17.052  24.573  0.00  0.00    +0.000 C 
ATOM     22  C   UNL     1      -3.230  14.674  25.165  0.00  0.00    +0.000 C 
ENDBRANCH  14  19
BRANCH   1  23
ATOM     23  O   UNL     1       2.740   7.554  18.640  0.00  0.00    +0.000 OA
BRANCH  23  32
ATOM     24  C   UNL     1       5.841   4.261  15.785  0.00  0.00    +0.000 C 
ATOM     25  C   UNL     1       5.219   4.201  17.172  0.00  0.00    +0.000 C 
ATOM     26  C   UNL     1       4.343   5.450  17.453  0.00  0.00    +0.000 C 
ATOM     27  C   UNL     1       3.448   5.269  18.648  0.00  0.00    +0.000 A 
ATOM     28  C   UNL     1       3.321   4.034  19.272  0.00  0.00    +0.000 A 
ATOM     29  N   UNL     1       2.610   3.849  20.406  0.00  0.00    +0.000 NA
ATOM     30  C   UNL     1       1.937   4.908  20.862  0.00  0.00    +0.000 A 
ATOM     31  N   UNL     1       1.888   6.103  20.279  0.00  0.00    +0.000 NA
ATOM     32  C   UNL     1       2.682   6.277  19.201  0.00  0.00    +0.000 A 
ATOM     33  C   UNL     1       4.000   2.810  18.697  0.00  0.00    +0.000 C 
ATOM     34  N   UNL     1       4.437   2.967  17.301  0.00  0.00    +0.000 NA
ATOM     35  H   UNL     1       3.607   3.035  16.712  0.00  0.00    +0.000 HD
ENDBRANCH  23  32
ENDBRANCH   1  23
TORSDOF 3
ENDMDL
MODEL 8
REMARK VINA RESULT:      -7.9      1.475      1.826
REMARK  Name = 
REMARK  7 active torsions:
REMARK  status: ('A' for Active; 'I' for Inactive)
REMARK    1  A    between atoms: C_1  and  C_2
REMARK    2  A    between atoms: C_9  and  O_10
REMARK    3  A    between atoms: O_10  and  C_11
REMARK    4  A    between atoms: C_24  and  C_25
REMARK    5  A    between atoms: C_25  and  C_26
REMARK    6  A    between atoms: C_25  and  C_27
REMARK    7  A    between atoms: C_25  and  C_28
REMARK                            x       y       z     vdW  Elec       q    Type
REMARK                         _______ _______ _______ _____ _____    ______ ____
ROOT
ATOM      1  C   UNL     1       1.900   8.493  18.461  0.00  0.00    +0.000 A 
ATOM      2  C   UNL     1       1.848   8.630  19.849  0.00  0.00    +0.000 A 
ATOM      3  C   UNL     1       0.888   9.462  20.457  0.00  0.00    +0.000 A 
ATOM      4  C   UNL     1      -0.033  10.116  19.614  0.00  0.00    +0.000 A 
ATOM      5  C   UNL     1      -0.019   9.954  18.231  0.00  0.00    +0.000 A 
ATOM      6  C   UNL     1      -1.082  10.706  17.678  0.00  0.00    +0.000 A 
ATOM      7  C   UNL     1      -1.880  11.061  18.735  0.00  0.00    +0.000 A 
ATOM      8  N   UNL     1      -1.083  10.982  19.863  0.00  0.00    +0.000 N 
ATOM      9  C   UNL     1      -1.265  11.818  20.949  0.00  0.00    +0.000 C 
ATOM     10  O   UNL     1      -2.340  11.797  21.545  0.00  0.00    +0.000 OA
ATOM     11  N   UNL     1      -0.253  12.765  20.969  0.00  0.00    +0.000 N 
ATOM     12  C   UNL     1      -0.387  13.803  21.852  0.00  0.00    +0.000 A 
ATOM     13  C   UNL     1      -0.910  13.647  23.134  0.00  0.00    +0.000 A 
ATOM     14  C   UNL     1      -1.204  14.916  23.540  0.00  0.00    +0.000 A 
ATOM     15  O   UNL     1      -0.679  15.800  22.644  0.00  0.00    +0.000 OA
ATOM     16  N   UNL     1      -0.103  15.080  21.585  0.00  0.00    +0.000 NA
ATOM     17  C   UNL     1       0.952   9.132  17.654  0.00  0.00    +0.000 A 
ATOM     18  H   UNL     1       0.244  12.970  20.108  0.00  0.00    +0.000 HD
ENDROOT
BRANCH  14  19
ATOM     19  C   UNL     1      -2.026  15.367  24.706  0.00  0.00    +0.000 C 
ATOM     20  C   UNL     1      -3.144  14.334  24.932  0.00  0.00    +0.000 C 
ATOM     21  C   UNL     1      -1.202  15.538  25.983  0.00  0.00    +0.000 C 
ATOM     22  C   UNL     1      -2.661  16.731  24.340  0.00  0.00    +0.000 C 
ENDBRANCH  14  19
BRANCH   1  23
ATOM     23  O   UNL     1       2.868   7.666  17.912  0.00  0.00    +0.000 OA
BRANCH  23  32
ATOM     24  C   UNL     1       7.755   5.786  19.006  0.00  0.00    +0.000 C 
ATOM     25  C   UNL     1       6.340   5.293  19.274  0.00  0.00    +0.000 C 
ATOM     26  C   UNL     1       5.284   6.246  18.657  0.00  0.00    +0.000 C 
ATOM     27  C   UNL     1       3.915   5.626  18.597  0.00  0.00    +0.000 A 
ATOM     28  C   UNL     1       3.718   4.283  18.893  0.00  0.00    +0.000 A 
ATOM     29  N   UNL     1       2.496   3.710  18.951  0.00  0.00    +0.000 NA
ATOM     30  C   UNL     1       1.464   4.483  18.608  0.00  0.00    +0.000 A 
ATOM     31  N   UNL     1       1.546   5.744  18.190  0.00  0.00    +0.000 NA
ATOM     32  C   UNL     1       2.771   6.311  18.233  0.00  0.00    +0.000 A 
ATOM     33  C   UNL     1       4.898   3.380  19.182  0.00  0.00    +0.000 C 
ATOM     34  N   UNL     1       6.193   3.930  18.752  0.00  0.00    +0.000 NA
ATOM     35  H   UNL     1       6.205   3.961  17.733  0.00  0.00    +0.000 HD
ENDBRANCH  23  32
ENDBRANCH   1  23
TORSDOF 3
ENDMDL
MODEL 9
REMARK VINA RESULT:      -7.8      2.504      3.661
REMARK  Name = 
REMARK  7 active torsions:
REMARK  status: ('A' for Active; 'I' for Inactive)
REMARK    1  A    between atoms: C_1  and  C_2
REMARK    2  A    between atoms: C_9  and  O_10
REMARK    3  A    between atoms: O_10  and  C_11
REMARK    4  A    between atoms: C_24  and  C_25
REMARK    5  A    between atoms: C_25  and  C_26
REMARK    6  A    between atoms: C_25  and  C_27
REMARK    7  A    between atoms: C_25  and  C_28
REMARK                            x       y       z     vdW  Elec       q    Type
REMARK                         _______ _______ _______ _____ _____    ______ ____
ROOT
ATOM      1  C   UNL     1       1.228  10.203  18.689  0.00  0.00    +0.000 A 
ATOM      2  C   UNL     1      -0.137  10.171  18.400  0.00  0.00    +0.000 A 
ATOM      3  C   UNL     1      -1.013  11.125  18.952  0.00  0.00    +0.000 A 
ATOM      4  C   UNL     1      -0.454  12.125  19.773  0.00  0.00    +0.000 A 
ATOM      5  C   UNL     1       0.912  12.193  20.035  0.00  0.00    +0.000 A 
ATOM      6  C   UNL     1       1.159  13.320  20.853  0.00  0.00    +0.000 A 
ATOM      7  C   UNL     1       0.007  14.063  20.826  0.00  0.00    +0.000 A 
ATOM      8  N   UNL     1      -1.004  13.193  20.460  0.00  0.00    +0.000 N 
ATOM      9  C   UNL     1      -2.300  13.341  20.919  0.00  0.00    +0.000 C 
ATOM     10  O   UNL     1      -2.912  14.374  20.655  0.00  0.00    +0.000 OA
ATOM     11  N   UNL     1      -2.558  12.371  21.874  0.00  0.00    +0.000 N 
ATOM     12  C   UNL     1      -3.720  12.492  22.589  0.00  0.00    +0.000 A 
ATOM     13  C   UNL     1      -4.917  12.925  22.024  0.00  0.00    +0.000 A 
ATOM     14  C   UNL     1      -5.703  13.247  23.092  0.00  0.00    +0.000 A 
ATOM     15  O   UNL     1      -5.093  12.818  24.235  0.00  0.00    +0.000 OA
ATOM     16  N   UNL     1      -3.839  12.280  23.902  0.00  0.00    +0.000 NA
ATOM     17  C   UNL     1       1.757  11.226  19.484  0.00  0.00    +0.000 A 
ATOM     18  H   UNL     1      -1.777  11.939  22.358  0.00  0.00    +0.000 HD
ENDROOT
BRANCH  14  19
ATOM     19  C   UNL     1      -6.988  14.011  23.122  0.00  0.00    +0.000 C 
ATOM     20  C   UNL     1      -7.795  13.641  21.866  0.00  0.00    +0.000 C 
ATOM     21  C   UNL     1      -7.814  13.735  24.379  0.00  0.00    +0.000 C 
ATOM     22  C   UNL     1      -6.644  15.520  23.078  0.00  0.00    +0.000 C 
ENDBRANCH  14  19
BRANCH   1  23
ATOM     23  O   UNL     1       2.048   9.237  18.125  0.00  0.00    +0.000 OA
BRANCH  23  32
ATOM     24  C   UNL     1       5.328   5.954  15.465  0.00  0.00    +0.000 C 
ATOM     25  C   UNL     1       4.802   6.007  16.892  0.00  0.00    +0.000 C 
ATOM     26  C   UNL     1       3.807   7.181  17.085  0.00  0.00    +0.000 C 
ATOM     27  C   UNL     1       3.014   7.061  18.356  0.00  0.00    +0.000 A 
ATOM     28  C   UNL     1       3.067   5.909  19.133  0.00  0.00    +0.000 A 
ATOM     29  N   UNL     1       2.452   5.796  20.331  0.00  0.00    +0.000 NA
ATOM     30  C   UNL     1       1.691   6.827  20.704  0.00  0.00    +0.000 A 
ATOM     31  N   UNL     1       1.470   7.926  19.987  0.00  0.00    +0.000 NA
ATOM     32  C   UNL     1       2.171   8.044  18.839  0.00  0.00    +0.000 A 
ATOM     33  C   UNL     1       3.846   4.701  18.661  0.00  0.00    +0.000 C 
ATOM     34  N   UNL     1       4.177   4.723  17.227  0.00  0.00    +0.000 NA
ATOM     35  H   UNL     1       3.310   4.626  16.698  0.00  0.00    +0.000 HD
ENDBRANCH  23  32
ENDBRANCH   1  23
TORSDOF 3
ENDMDL
