MODEL 1
REMARK VINA RESULT:      -6.9      0.000      0.000
REMARK  Name = 
REMARK  9 active torsions:
REMARK  status: ('A' for Active; 'I' for Inactive)
REMARK    1  A    between atoms: C_1  and  O_2
REMARK    2  A    between atoms: O_2  and  C_3
REMARK    3  A    between atoms: C_7  and  C_8
REMARK    4  A    between atoms: C_8  and  C_9
REMARK    5  A    between atoms: C_9  and  N_10
REMARK    6  A    between atoms: N_10  and  S_11
REMARK    7  A    between atoms: S_11  and  C_14
REMARK    8  A    between atoms: C_17  and  N_18
REMARK    9  A    between atoms: C_19  and  C_20
REMARK                            x       y       z     vdW  Elec       q    Type
REMARK                         _______ _______ _______ _____ _____    ______ ____
ROOT
ATOM      1  S   UNL     1       1.657   2.799  20.232  0.00  0.00    +0.000 S 
ATOM      2  O   UNL     1       1.154   1.972  19.161  0.00  0.00    +0.000 OA
ATOM      3  O   UNL     1       1.024   2.823  21.530  0.00  0.00    +0.000 OA
ENDROOT
BRANCH   1   4
ATOM      4  C   UNL     1       1.812   4.469  19.654  0.00  0.00    +0.000 A 
ATOM      5  C   UNL     1       1.791   4.730  18.292  0.00  0.00    +0.000 A 
ATOM      6  C   UNL     1       1.980   6.039  17.841  0.00  0.00    +0.000 A 
ATOM      7  C   UNL     1       2.195   7.091  18.740  0.00  0.00    +0.000 A 
ATOM      8  C   UNL     1       2.244   6.809  20.111  0.00  0.00    +0.000 A 
ATOM      9  C   UNL     1       2.021   5.508  20.575  0.00  0.00    +0.000 A 
BRANCH   7  10
ATOM     10  N   UNL     1       2.331   8.438  18.339  0.00  0.00    +0.000 N 
ATOM     11  C   UNL     1       1.470   9.478  18.644  0.00  0.00    +0.000 C 
ATOM     12  C   UNL     1       1.965  10.825  18.188  0.00  0.00    +0.000 C 
ATOM     13  O   UNL     1       0.388   9.391  19.217  0.00  0.00    +0.000 OA
ATOM     14  H   UNL     1       3.182   8.675  17.842  0.00  0.00    +0.000 HD
ENDBRANCH   7  10
ENDBRANCH   1   4
BRANCH   1  15
ATOM     15  N   UNL     1       3.287   2.350  20.486  0.00  0.00    +0.000 NA
ATOM     16  H   UNL     1       3.618   2.873  21.302  0.00  0.00    +0.000 HD
BRANCH  15  17
ATOM     17  C   UNL     1       4.155   2.516  19.298  0.00  0.00    +0.000 C 
BRANCH  17  18
ATOM     18  C   UNL     1       5.170   3.637  19.474  0.00  0.00    +0.000 C 
BRANCH  18  23
ATOM     19  C   UNL     1       6.273   6.166  16.826  0.00  0.00    +0.000 A 
ATOM     20  C   UNL     1       5.756   5.574  15.671  0.00  0.00    +0.000 A 
ATOM     21  C   UNL     1       5.061   4.367  15.739  0.00  0.00    +0.000 A 
ATOM     22  C   UNL     1       4.859   3.749  16.972  0.00  0.00    +0.000 A 
ATOM     23  C   UNL     1       5.351   4.337  18.143  0.00  0.00    +0.000 A 
ATOM     24  C   UNL     1       6.081   5.537  18.058  0.00  0.00    +0.000 A 
BRANCH  19  26
ATOM     25  C   UNL     1       7.707   7.858  17.691  0.00  0.00    +0.000 C 
ATOM     26  O   UNL     1       6.932   7.345  16.615  0.00  0.00    +0.000 OA
ENDBRANCH  19  26
ENDBRANCH  18  23
ENDBRANCH  17  18
ENDBRANCH  15  17
ENDBRANCH   1  15
TORSDOF 7
ENDMDL
MODEL 2
REMARK VINA RESULT:      -6.9      2.157      2.944
REMARK  Name = 
REMARK  9 active torsions:
REMARK  status: ('A' for Active; 'I' for Inactive)
REMARK    1  A    between atoms: C_1  and  O_2
REMARK    2  A    between atoms: O_2  and  C_3
REMARK    3  A    between atoms: C_7  and  C_8
REMARK    4  A    between atoms: C_8  and  C_9
REMARK    5  A    between atoms: C_9  and  N_10
REMARK    6  A    between atoms: N_10  and  S_11
REMARK    7  A    between atoms: S_11  and  C_14
REMARK    8  A    between atoms: C_17  and  N_18
REMARK    9  A    between atoms: C_19  and  C_20
REMARK                            x       y       z     vdW  Elec       q    Type
REMARK                         _______ _______ _______ _____ _____    ______ ____
ROOT
ATOM      1  S   UNL     1       3.242   3.203  17.857  0.00  0.00    +0.000 S 
ATOM      2  O   UNL     1       2.439   3.167  16.657  0.00  0.00    +0.000 OA
ATOM      3  O   UNL     1       3.317   2.071  18.750  0.00  0.00    +0.000 OA
ENDROOT
BRANCH   1   4
ATOM      4  C   UNL     1       2.808   4.638  18.806  0.00  0.00    +0.000 A 
ATOM      5  C   UNL     1       2.136   4.489  20.010  0.00  0.00    +0.000 A 
ATOM      6  C   UNL     1       1.738   5.626  20.719  0.00  0.00    +0.000 A 
ATOM      7  C   UNL     1       2.004   6.912  20.234  0.00  0.00    +0.000 A 
ATOM      8  C   UNL     1       2.657   7.048  19.002  0.00  0.00    +0.000 A 
ATOM      9  C   UNL     1       3.090   5.918  18.302  0.00  0.00    +0.000 A 
BRANCH   7  10
ATOM     10  N   UNL     1       1.677   8.090  20.940  0.00  0.00    +0.000 N 
ATOM     11  C   UNL     1       0.452   8.396  21.507  0.00  0.00    +0.000 C 
ATOM     12  C   UNL     1       0.462   9.667  22.314  0.00  0.00    +0.000 C 
ATOM     13  O   UNL     1      -0.587   7.752  21.401  0.00  0.00    +0.000 OA
ATOM     14  H   UNL     1       2.438   8.739  21.108  0.00  0.00    +0.000 HD
ENDBRANCH   7  10
ENDBRANCH   1   4
BRANCH   1  15
ATOM     15  N   UNL     1       4.844   3.558  17.374  0.00  0.00    +0.000 NA
ATOM     16  H   UNL     1       5.177   4.316  17.977  0.00  0.00    +0.000 HD
BRANCH  15  17
ATOM     17  C   UNL     1       4.992   3.855  15.932  0.00  0.00    +0.000 C 
BRANCH  17  18
ATOM     18  C   UNL     1       6.426   4.201  15.555  0.00  0.00    +0.000 C 
BRANCH  18  23
ATOM     19  C   UNL     1       7.413   7.348  17.490  0.00  0.00    +0.000 A 
ATOM     20  C   UNL     1       7.977   6.781  18.635  0.00  0.00    +0.000 A 
ATOM     21  C   UNL     1       8.036   5.397  18.791  0.00  0.00    +0.000 A 
ATOM     22  C   UNL     1       7.548   4.563  17.787  0.00  0.00    +0.000 A 
ATOM     23  C   UNL     1       6.999   5.111  16.621  0.00  0.00    +0.000 A 
ATOM     24  C   UNL     1       6.912   6.510  16.492  0.00  0.00    +0.000 A 
BRANCH  19  26
ATOM     25  C   UNL     1       8.449   9.373  18.196  0.00  0.00    +0.000 C 
ATOM     26  O   UNL     1       7.419   8.715  17.469  0.00  0.00    +0.000 OA
ENDBRANCH  19  26
ENDBRANCH  18  23
ENDBRANCH  17  18
ENDBRANCH  15  17
ENDBRANCH   1  15
TORSDOF 7
ENDMDL
MODEL 3
REMARK VINA RESULT:      -6.7      0.984      1.735
REMARK  Name = 
REMARK  9 active torsions:
REMARK  status: ('A' for Active; 'I' for Inactive)
REMARK    1  A    between atoms: C_1  and  O_2
REMARK    2  A    between atoms: O_2  and  C_3
REMARK    3  A    between atoms: C_7  and  C_8
REMARK    4  A    between atoms: C_8  and  C_9
REMARK    5  A    between atoms: C_9  and  N_10
REMARK    6  A    between atoms: N_10  and  S_11
REMARK    7  A    between atoms: S_11  and  C_14
REMARK    8  A    between atoms: C_17  and  N_18
REMARK    9  A    between atoms: C_19  and  C_20
REMARK                            x       y       z     vdW  Elec       q    Type
REMARK                         _______ _______ _______ _____ _____    ______ ____
ROOT
ATOM      1  S   UNL     1       1.481   2.957  19.708  0.00  0.00    +0.000 S 
ATOM      2  O   UNL     1       0.653   2.358  18.687  0.00  0.00    +0.000 OA
ATOM      3  O   UNL     1       1.126   2.887  21.106  0.00  0.00    +0.000 OA
ENDROOT
BRANCH   1   4
ATOM      4  C   UNL     1       1.784   4.654  19.290  0.00  0.00    +0.000 A 
ATOM      5  C   UNL     1       1.936   5.019  17.960  0.00  0.00    +0.000 A 
ATOM      6  C   UNL     1       2.241   6.345  17.643  0.00  0.00    +0.000 A 
ATOM      7  C   UNL     1       2.398   7.312  18.643  0.00  0.00    +0.000 A 
ATOM      8  C   UNL     1       2.271   6.924  19.983  0.00  0.00    +0.000 A 
ATOM      9  C   UNL     1       1.932   5.607  20.310  0.00  0.00    +0.000 A 
BRANCH   7  10
ATOM     10  N   UNL     1       2.645   8.675  18.372  0.00  0.00    +0.000 N 
ATOM     11  C   UNL     1       1.698   9.639  18.074  0.00  0.00    +0.000 C 
ATOM     12  C   UNL     1       2.265  11.031  17.974  0.00  0.00    +0.000 C 
ATOM     13  O   UNL     1       0.499   9.457  17.885  0.00  0.00    +0.000 OA
ATOM     14  H   UNL     1       3.604   8.987  18.479  0.00  0.00    +0.000 HD
ENDBRANCH   7  10
ENDBRANCH   1   4
BRANCH   1  15
ATOM     15  N   UNL     1       3.036   2.264  19.559  0.00  0.00    +0.000 NA
ATOM     16  H   UNL     1       3.392   2.121  20.508  0.00  0.00    +0.000 HD
BRANCH  15  17
ATOM     17  C   UNL     1       3.965   3.032  18.699  0.00  0.00    +0.000 C 
BRANCH  17  18
ATOM     18  C   UNL     1       5.095   3.671  19.493  0.00  0.00    +0.000 C 
BRANCH  18  23
ATOM     19  C   UNL     1       6.276   5.524  16.363  0.00  0.00    +0.000 A 
ATOM     20  C   UNL     1       7.193   6.416  16.921  0.00  0.00    +0.000 A 
ATOM     21  C   UNL     1       7.430   6.429  18.296  0.00  0.00    +0.000 A 
ATOM     22  C   UNL     1       6.762   5.530  19.124  0.00  0.00    +0.000 A 
ATOM     23  C   UNL     1       5.854   4.613  18.582  0.00  0.00    +0.000 A 
ATOM     24  C   UNL     1       5.597   4.634  17.199  0.00  0.00    +0.000 A 
BRANCH  19  26
ATOM     25  C   UNL     1       6.478   4.474  14.235  0.00  0.00    +0.000 C 
ATOM     26  O   UNL     1       6.141   5.621  15.006  0.00  0.00    +0.000 OA
ENDBRANCH  19  26
ENDBRANCH  18  23
ENDBRANCH  17  18
ENDBRANCH  15  17
ENDBRANCH   1  15
TORSDOF 7
ENDMDL
MODEL 4
REMARK VINA RESULT:      -6.7      1.912      4.951
REMARK  Name = 
REMARK  9 active torsions:
REMARK  status: ('A' for Active; 'I' for Inactive)
REMARK    1  A    between atoms: C_1  and  O_2
REMARK    2  A    between atoms: O_2  and  C_3
REMARK    3  A    between atoms: C_7  and  C_8
REMARK    4  A    between atoms: C_8  and  C_9
REMARK    5  A    between atoms: C_9  and  N_10
REMARK    6  A    between atoms: N_10  and  S_11
REMARK    7  A    between atoms: S_11  and  C_14
REMARK    8  A    between atoms: C_17  and  N_18
REMARK    9  A    between atoms: C_19  and  C_20
REMARK                            x       y       z     vdW  Elec       q    Type
REMARK                         _______ _______ _______ _____ _____    ______ ____
ROOT
ATOM      1  S   UNL     1       3.178   2.102  18.361  0.00  0.00    +0.000 S 
ATOM      2  O   UNL     1       3.863   0.857  18.620  0.00  0.00    +0.000 OA
ATOM      3  O   UNL     1       2.259   2.243  17.256  0.00  0.00    +0.000 OA
ENDROOT
BRANCH   1   4
ATOM      4  C   UNL     1       4.368   3.414  18.271  0.00  0.00    +0.000 A 
ATOM      5  C   UNL     1       4.757   3.907  17.033  0.00  0.00    +0.000 A 
ATOM      6  C   UNL     1       5.743   4.894  16.967  0.00  0.00    +0.000 A 
ATOM      7  C   UNL     1       6.349   5.393  18.127  0.00  0.00    +0.000 A 
ATOM      8  C   UNL     1       5.969   4.865  19.367  0.00  0.00    +0.000 A 
ATOM      9  C   UNL     1       4.957   3.902  19.448  0.00  0.00    +0.000 A 
BRANCH   7  10
ATOM     10  N   UNL     1       7.305   6.431  18.117  0.00  0.00    +0.000 N 
ATOM     11  C   UNL     1       7.157   7.680  17.540  0.00  0.00    +0.000 C 
ATOM     12  C   UNL     1       8.304   8.615  17.822  0.00  0.00    +0.000 C 
ATOM     13  O   UNL     1       6.220   8.061  16.845  0.00  0.00    +0.000 OA
ATOM     14  H   UNL     1       8.153   6.266  18.649  0.00  0.00    +0.000 HD
ENDBRANCH   7  10
ENDBRANCH   1   4
BRANCH   1  15
ATOM     15  N   UNL     1       2.309   2.497  19.779  0.00  0.00    +0.000 NA
ATOM     16  H   UNL     1       1.774   1.666  20.043  0.00  0.00    +0.000 HD
BRANCH  15  17
ATOM     17  C   UNL     1       1.474   3.714  19.661  0.00  0.00    +0.000 C 
BRANCH  17  18
ATOM     18  C   UNL     1       1.871   4.789  20.662  0.00  0.00    +0.000 C 
BRANCH  18  23
ATOM     19  C   UNL     1       1.511   8.534  19.977  0.00  0.00    +0.000 A 
ATOM     20  C   UNL     1       1.996   8.605  18.669  0.00  0.00    +0.000 A 
ATOM     21  C   UNL     1       2.443   7.460  18.011  0.00  0.00    +0.000 A 
ATOM     22  C   UNL     1       2.387   6.224  18.651  0.00  0.00    +0.000 A 
ATOM     23  C   UNL     1       1.884   6.128  19.954  0.00  0.00    +0.000 A 
ATOM     24  C   UNL     1       1.470   7.295  20.621  0.00  0.00    +0.000 A 
BRANCH  19  26
ATOM     25  C   UNL     1      -0.220   9.808  21.003  0.00  0.00    +0.000 C 
ATOM     26  O   UNL     1       1.109   9.731  20.501  0.00  0.00    +0.000 OA
ENDBRANCH  19  26
ENDBRANCH  18  23
ENDBRANCH  17  18
ENDBRANCH  15  17
ENDBRANCH   1  15
TORSDOF 7
ENDMDL
MODEL 5
REMARK VINA RESULT:      -6.6      3.484      6.388
REMARK  Name = 
REMARK  9 active torsions:
REMARK  status: ('A' for Active; 'I' for Inactive)
REMARK    1  A    between atoms: C_1  and  O_2
REMARK    2  A    between atoms: O_2  and  C_3
REMARK    3  A    between atoms: C_7  and  C_8
REMARK    4  A    between atoms: C_8  and  C_9
REMARK    5  A    between atoms: C_9  and  N_10
REMARK    6  A    between atoms: N_10  and  S_11
REMARK    7  A    between atoms: S_11  and  C_14
REMARK    8  A    between atoms: C_17  and  N_18
REMARK    9  A    between atoms: C_19  and  C_20
REMARK                            x       y       z     vdW  Elec       q    Type
REMARK                         _______ _______ _______ _____ _____    ______ ____
ROOT
ATOM      1  S   UNL     1       6.041   5.858  15.831  0.00  0.00    +0.000 S 
ATOM      2  O   UNL     1       5.348   6.965  15.214  0.00  0.00    +0.000 OA
ATOM      3  O   UNL     1       6.453   4.704  15.066  0.00  0.00    +0.000 OA
ENDROOT
BRANCH   1   4
ATOM      4  C   UNL     1       5.112   5.298  17.235  0.00  0.00    +0.000 A 
ATOM      5  C   UNL     1       5.623   4.292  18.041  0.00  0.00    +0.000 A 
ATOM      6  C   UNL     1       4.857   3.810  19.105  0.00  0.00    +0.000 A 
ATOM      7  C   UNL     1       3.581   4.323  19.370  0.00  0.00    +0.000 A 
ATOM      8  C   UNL     1       3.065   5.317  18.530  0.00  0.00    +0.000 A 
ATOM      9  C   UNL     1       3.838   5.832  17.484  0.00  0.00    +0.000 A 
BRANCH   7  10
ATOM     10  N   UNL     1       2.793   3.913  20.468  0.00  0.00    +0.000 N 
ATOM     11  C   UNL     1       1.963   2.806  20.516  0.00  0.00    +0.000 C 
ATOM     12  C   UNL     1       1.365   2.560  21.876  0.00  0.00    +0.000 C 
ATOM     13  O   UNL     1       1.684   2.057  19.585  0.00  0.00    +0.000 OA
ATOM     14  H   UNL     1       2.905   4.443  21.324  0.00  0.00    +0.000 HD
ENDBRANCH   7  10
ENDBRANCH   1   4
BRANCH   1  15
ATOM     15  N   UNL     1       7.450   6.495  16.559  0.00  0.00    +0.000 NA
ATOM     16  H   UNL     1       7.875   5.738  17.101  0.00  0.00    +0.000 HD
BRANCH  15  17
ATOM     17  C   UNL     1       7.221   7.723  17.355  0.00  0.00    +0.000 C 
BRANCH  17  18
ATOM     18  C   UNL     1       8.290   7.932  18.418  0.00  0.00    +0.000 C 
BRANCH  18  23
ATOM     19  C   UNL     1       9.785  11.264  19.554  0.00  0.00    +0.000 A 
ATOM     20  C   UNL     1       9.233  12.130  18.609  0.00  0.00    +0.000 A 
ATOM     21  C   UNL     1       8.389  11.650  17.608  0.00  0.00    +0.000 A 
ATOM     22  C   UNL     1       8.073  10.294  17.557  0.00  0.00    +0.000 A 
ATOM     23  C   UNL     1       8.599   9.412  18.508  0.00  0.00    +0.000 A 
ATOM     24  C   UNL     1       9.477   9.902  19.492  0.00  0.00    +0.000 A 
BRANCH  19  26
ATOM     25  C   UNL     1      11.717  12.588  19.985  0.00  0.00    +0.000 C 
ATOM     26  O   UNL     1      10.594  11.867  20.477  0.00  0.00    +0.000 OA
ENDBRANCH  19  26
ENDBRANCH  18  23
ENDBRANCH  17  18
ENDBRANCH  15  17
ENDBRANCH   1  15
TORSDOF 7
ENDMDL
MODEL 6
REMARK VINA RESULT:      -6.5      1.969      5.716
REMARK  Name = 
REMARK  9 active torsions:
REMARK  status: ('A' for Active; 'I' for Inactive)
REMARK    1  A    between atoms: C_1  and  O_2
REMARK    2  A    between atoms: O_2  and  C_3
REMARK    3  A    between atoms: C_7  and  C_8
REMARK    4  A    between atoms: C_8  and  C_9
REMARK    5  A    between atoms: C_9  and  N_10
REMARK    6  A    between atoms: N_10  and  S_11
REMARK    7  A    between atoms: S_11  and  C_14
REMARK    8  A    between atoms: C_17  and  N_18
REMARK    9  A    between atoms: C_19  and  C_20
REMARK                            x       y       z     vdW  Elec       q    Type
REMARK                         _______ _______ _______ _____ _____    ______ ____
ROOT
ATOM      1  S   UNL     1       2.260   3.456  20.825  0.00  0.00    +0.000 S 
ATOM      2  O   UNL     1       2.924   2.614  21.793  0.00  0.00    +0.000 OA
ATOM      3  O   UNL     1       0.891   3.220  20.432  0.00  0.00    +0.000 OA
ENDROOT
BRANCH   1   4
ATOM      4  C   UNL     1       3.255   3.554  19.359  0.00  0.00    +0.000 A 
ATOM      5  C   UNL     1       4.623   3.759  19.469  0.00  0.00    +0.000 A 
ATOM      6  C   UNL     1       5.390   3.902  18.310  0.00  0.00    +0.000 A 
ATOM      7  C   UNL     1       4.803   3.845  17.040  0.00  0.00    +0.000 A 
ATOM      8  C   UNL     1       3.417   3.669  16.945  0.00  0.00    +0.000 A 
ATOM      9  C   UNL     1       2.644   3.489  18.097  0.00  0.00    +0.000 A 
BRANCH   7  10
ATOM     10  N   UNL     1       5.542   3.924  15.840  0.00  0.00    +0.000 N 
ATOM     11  C   UNL     1       5.966   5.081  15.210  0.00  0.00    +0.000 C 
ATOM     12  C   UNL     1       6.854   4.828  14.020  0.00  0.00    +0.000 C 
ATOM     13  O   UNL     1       5.681   6.233  15.522  0.00  0.00    +0.000 OA
ATOM     14  H   UNL     1       5.851   3.043  15.444  0.00  0.00    +0.000 HD
ENDBRANCH   7  10
ENDBRANCH   1   4
BRANCH   1  15
ATOM     15  N   UNL     1       2.334   5.056  21.421  0.00  0.00    +0.000 NA
ATOM     16  H   UNL     1       1.695   5.108  22.219  0.00  0.00    +0.000 HD
BRANCH  15  17
ATOM     17  C   UNL     1       2.075   6.098  20.402  0.00  0.00    +0.000 C 
BRANCH  17  18
ATOM     18  C   UNL     1       1.318   7.290  20.970  0.00  0.00    +0.000 C 
BRANCH  18  23
ATOM     19  C   UNL     1       0.958  10.749  19.379  0.00  0.00    +0.000 A 
ATOM     20  C   UNL     1       1.590  10.536  18.152  0.00  0.00    +0.000 A 
ATOM     21  C   UNL     1       2.134   9.291  17.836  0.00  0.00    +0.000 A 
ATOM     22  C   UNL     1       2.032   8.238  18.742  0.00  0.00    +0.000 A 
ATOM     23  C   UNL     1       1.383   8.425  19.969  0.00  0.00    +0.000 A 
ATOM     24  C   UNL     1       0.870   9.695  20.291  0.00  0.00    +0.000 A 
BRANCH  19  26
ATOM     25  C   UNL     1       0.457  12.524  20.885  0.00  0.00    +0.000 C 
ATOM     26  O   UNL     1       0.472  12.014  19.557  0.00  0.00    +0.000 OA
ENDBRANCH  19  26
ENDBRANCH  18  23
ENDBRANCH  17  18
ENDBRANCH  15  17
ENDBRANCH   1  15
TORSDOF 7
ENDMDL
MODEL 7
REMARK VINA RESULT:      -6.5      1.991      5.758
REMARK  Name = 
REMARK  9 active torsions:
REMARK  status: ('A' for Active; 'I' for Inactive)
REMARK    1  A    between atoms: C_1  and  O_2
REMARK    2  A    between atoms: O_2  and  C_3
REMARK    3  A    between atoms: C_7  and  C_8
REMARK    4  A    between atoms: C_8  and  C_9
REMARK    5  A    between atoms: C_9  and  N_10
REMARK    6  A    between atoms: N_10  and  S_11
REMARK    7  A    between atoms: S_11  and  C_14
REMARK    8  A    between atoms: C_17  and  N_18
REMARK    9  A    between atoms: C_19  and  C_20
REMARK                            x       y       z     vdW  Elec       q    Type
REMARK                         _______ _______ _______ _____ _____    ______ ____
ROOT
ATOM      1  S   UNL     1       2.238   3.503  20.695  0.00  0.00    +0.000 S 
ATOM      2  O   UNL     1       2.931   2.660  21.640  0.00  0.00    +0.000 OA
ATOM      3  O   UNL     1       0.873   3.236  20.303  0.00  0.00    +0.000 OA
ENDROOT
BRANCH   1   4
ATOM      4  C   UNL     1       3.221   3.663  19.227  0.00  0.00    +0.000 A 
ATOM      5  C   UNL     1       2.660   3.385  17.989  0.00  0.00    +0.000 A 
ATOM      6  C   UNL     1       3.458   3.448  16.844  0.00  0.00    +0.000 A 
ATOM      7  C   UNL     1       4.815   3.785  16.924  0.00  0.00    +0.000 A 
ATOM      8  C   UNL     1       5.375   4.035  18.183  0.00  0.00    +0.000 A 
ATOM      9  C   UNL     1       4.578   4.008  19.332  0.00  0.00    +0.000 A 
BRANCH   7  10
ATOM     10  N   UNL     1       5.648   3.922  15.793  0.00  0.00    +0.000 N 
ATOM     11  C   UNL     1       5.931   5.097  15.118  0.00  0.00    +0.000 C 
ATOM     12  C   UNL     1       6.967   4.936  14.035  0.00  0.00    +0.000 C 
ATOM     13  O   UNL     1       5.425   6.198  15.315  0.00  0.00    +0.000 OA
ATOM     14  H   UNL     1       6.141   3.088  15.494  0.00  0.00    +0.000 HD
ENDBRANCH   7  10
ENDBRANCH   1   4
BRANCH   1  15
ATOM     15  N   UNL     1       2.268   5.091  21.327  0.00  0.00    +0.000 NA
ATOM     16  H   UNL     1       1.723   5.078  22.193  0.00  0.00    +0.000 HD
BRANCH  15  17
ATOM     17  C   UNL     1       1.821   6.133  20.375  0.00  0.00    +0.000 C 
BRANCH  17  18
ATOM     18  C   UNL     1       1.445   7.433  21.072  0.00  0.00    +0.000 C 
BRANCH  18  23
ATOM     19  C   UNL     1       0.757  10.800  19.394  0.00  0.00    +0.000 A 
ATOM     20  C   UNL     1       1.368  10.600  18.154  0.00  0.00    +0.000 A 
ATOM     21  C   UNL     1       2.002   9.394  17.858  0.00  0.00    +0.000 A 
ATOM     22  C   UNL     1       2.013   8.365  18.797  0.00  0.00    +0.000 A 
ATOM     23  C   UNL     1       1.387   8.537  20.038  0.00  0.00    +0.000 A 
ATOM     24  C   UNL     1       0.782   9.771  20.339  0.00  0.00    +0.000 A 
BRANCH  19  26
ATOM     25  C   UNL     1      -0.709  12.464  18.527  0.00  0.00    +0.000 C 
ATOM     26  O   UNL     1       0.175  12.027  19.552  0.00  0.00    +0.000 OA
ENDBRANCH  19  26
ENDBRANCH  18  23
ENDBRANCH  17  18
ENDBRANCH  15  17
ENDBRANCH   1  15
TORSDOF 7
ENDMDL
MODEL 8
REMARK VINA RESULT:      -6.5      2.232      3.077
REMARK  Name = 
REMARK  9 active torsions:
REMARK  status: ('A' for Active; 'I' for Inactive)
REMARK    1  A    between atoms: C_1  and  O_2
REMARK    2  A    between atoms: O_2  and  C_3
REMARK    3  A    between atoms: C_7  and  C_8
REMARK    4  A    between atoms: C_8  and  C_9
REMARK    5  A    between atoms: C_9  and  N_10
REMARK    6  A    between atoms: N_10  and  S_11
REMARK    7  A    between atoms: S_11  and  C_14
REMARK    8  A    between atoms: C_17  and  N_18
REMARK    9  A    between atoms: C_19  and  C_20
REMARK                            x       y       z     vdW  Elec       q    Type
REMARK                         _______ _______ _______ _____ _____    ______ ____
ROOT
ATOM      1  S   UNL     1       2.783   5.718  19.179  0.00  0.00    +0.000 S 
ATOM      2  O   UNL     1       1.778   4.795  19.651  0.00  0.00    +0.000 OA
ATOM      3  O   UNL     1       4.082   5.805  19.805  0.00  0.00    +0.000 OA
ENDROOT
BRANCH   1   4
ATOM      4  C   UNL     1       2.087   7.348  19.101  0.00  0.00    +0.000 A 
ATOM      5  C   UNL     1       2.083   8.037  17.897  0.00  0.00    +0.000 A 
ATOM      6  C   UNL     1       1.594   9.345  17.857  0.00  0.00    +0.000 A 
ATOM      7  C   UNL     1       1.112   9.974  19.012  0.00  0.00    +0.000 A 
ATOM      8  C   UNL     1       1.149   9.278  20.226  0.00  0.00    +0.000 A 
ATOM      9  C   UNL     1       1.604   7.955  20.270  0.00  0.00    +0.000 A 
BRANCH   7  10
ATOM     10  N   UNL     1       0.552  11.271  19.013  0.00  0.00    +0.000 N 
ATOM     11  C   UNL     1       1.239  12.462  18.855  0.00  0.00    +0.000 C 
ATOM     12  C   UNL     1       0.341  13.668  18.762  0.00  0.00    +0.000 C 
ATOM     13  O   UNL     1       2.457  12.606  18.799  0.00  0.00    +0.000 OA
ATOM     14  H   UNL     1      -0.459  11.324  19.061  0.00  0.00    +0.000 HD
ENDBRANCH   7  10
ENDBRANCH   1   4
BRANCH   1  15
ATOM     15  N   UNL     1       3.053   5.359  17.529  0.00  0.00    +0.000 NA
ATOM     16  H   UNL     1       2.135   5.318  17.078  0.00  0.00    +0.000 HD
BRANCH  15  17
ATOM     17  C   UNL     1       3.870   4.147  17.296  0.00  0.00    +0.000 C 
BRANCH  17  18
ATOM     18  C   UNL     1       5.034   4.406  16.350  0.00  0.00    +0.000 C 
BRANCH  18  23
ATOM     19  C   UNL     1       7.340   7.263  17.421  0.00  0.00    +0.000 A 
ATOM     20  C   UNL     1       7.978   6.682  18.519  0.00  0.00    +0.000 A 
ATOM     21  C   UNL     1       7.668   5.383  18.919  0.00  0.00    +0.000 A 
ATOM     22  C   UNL     1       6.727   4.642  18.207  0.00  0.00    +0.000 A 
ATOM     23  C   UNL     1       6.092   5.198  17.090  0.00  0.00    +0.000 A 
ATOM     24  C   UNL     1       6.386   6.523  16.718  0.00  0.00    +0.000 A 
BRANCH  19  26
ATOM     25  C   UNL     1       8.335   9.282  18.197  0.00  0.00    +0.000 C 
ATOM     26  O   UNL     1       7.737   8.540  17.141  0.00  0.00    +0.000 OA
ENDBRANCH  19  26
ENDBRANCH  18  23
ENDBRANCH  17  18
ENDBRANCH  15  17
ENDBRANCH   1  15
TORSDOF 7
ENDMDL
MODEL 9
REMARK VINA RESULT:      -6.5      2.622      6.488
REMARK  Name = 
REMARK  9 active torsions:
REMARK  status: ('A' for Active; 'I' for Inactive)
REMARK    1  A    between atoms: C_1  and  O_2
REMARK    2  A    between atoms: O_2  and  C_3
REMARK    3  A    between atoms: C_7  and  C_8
REMARK    4  A    between atoms: C_8  and  C_9
REMARK    5  A    between atoms: C_9  and  N_10
REMARK    6  A    between atoms: N_10  and  S_11
REMARK    7  A    between atoms: S_11  and  C_14
REMARK    8  A    between atoms: C_17  and  N_18
REMARK    9  A    between atoms: C_19  and  C_20
REMARK                            x       y       z     vdW  Elec       q    Type
REMARK                         _______ _______ _______ _____ _____    ______ ____
ROOT
ATOM      1  S   UNL     1       3.953   3.518  19.334  0.00  0.00    +0.000 S 
ATOM      2  O   UNL     1       4.711   2.672  20.226  0.00  0.00    +0.000 OA
ATOM      3  O   UNL     1       2.686   3.094  18.787  0.00  0.00    +0.000 OA
ENDROOT
BRANCH   1   4
ATOM      4  C   UNL     1       4.997   4.036  17.996  0.00  0.00    +0.000 A 
ATOM      5  C   UNL     1       6.265   4.532  18.265  0.00  0.00    +0.000 A 
ATOM      6  C   UNL     1       7.055   5.000  17.212  0.00  0.00    +0.000 A 
ATOM      7  C   UNL     1       6.590   4.980  15.892  0.00  0.00    +0.000 A 
ATOM      8  C   UNL     1       5.297   4.505  15.639  0.00  0.00    +0.000 A 
ATOM      9  C   UNL     1       4.510   4.001  16.680  0.00  0.00    +0.000 A 
BRANCH   7  10
ATOM     10  N   UNL     1       7.371   5.385  14.788  0.00  0.00    +0.000 N 
ATOM     11  C   UNL     1       7.290   4.889  13.498  0.00  0.00    +0.000 C 
ATOM     12  C   UNL     1       8.162   5.625  12.514  0.00  0.00    +0.000 C 
ATOM     13  O   UNL     1       6.609   3.942  13.116  0.00  0.00    +0.000 OA
ATOM     14  H   UNL     1       8.000   6.164  14.944  0.00  0.00    +0.000 HD
ENDBRANCH   7  10
ENDBRANCH   1   4
BRANCH   1  15
ATOM     15  N   UNL     1       3.668   4.986  20.161  0.00  0.00    +0.000 NA
ATOM     16  H   UNL     1       3.740   4.785  21.162  0.00  0.00    +0.000 HD
BRANCH  15  17
ATOM     17  C   UNL     1       2.400   5.655  19.793  0.00  0.00    +0.000 C 
BRANCH  17  18
ATOM     18  C   UNL     1       2.624   6.887  18.926  0.00  0.00    +0.000 C 
BRANCH  18  23
ATOM     19  C   UNL     1       0.747  10.200  19.279  0.00  0.00    +0.000 A 
ATOM     20  C   UNL     1       0.359  10.136  20.619  0.00  0.00    +0.000 A 
ATOM     21  C   UNL     1       0.691   9.034  21.406  0.00  0.00    +0.000 A 
ATOM     22  C   UNL     1       1.437   7.990  20.861  0.00  0.00    +0.000 A 
ATOM     23  C   UNL     1       1.855   8.046  19.526  0.00  0.00    +0.000 A 
ATOM     24  C   UNL     1       1.483   9.146  18.732  0.00  0.00    +0.000 A 
BRANCH  19  26
ATOM     25  C   UNL     1      -0.385  12.293  19.373  0.00  0.00    +0.000 C 
ATOM     26  O   UNL     1       0.354  11.335  18.625  0.00  0.00    +0.000 OA
ENDBRANCH  19  26
ENDBRANCH  18  23
ENDBRANCH  17  18
ENDBRANCH  15  17
ENDBRANCH   1  15
TORSDOF 7
ENDMDL
