MODEL 1
REMARK VINA RESULT:      -8.6      0.000      0.000
REMARK  Name = 
REMARK  5 active torsions:
REMARK  status: ('A' for Active; 'I' for Inactive)
REMARK    1  A    between atoms: C_5  and  O_6
REMARK    2  A    between atoms: O_6  and  C_7
REMARK    3  A    between atoms: C_7  and  C_8
REMARK    4  A    between atoms: C_10  and  C_11
REMARK    5  A    between atoms: C_23  and  C_24
REMARK                            x       y       z     vdW  Elec       q    Type
REMARK                         _______ _______ _______ _____ _____    ______ ____
ROOT
ATOM      1  O   UNL     1       2.440   7.954  18.734  0.00  0.00    +0.000 OA
ENDROOT
BRANCH   1   6
ATOM      2  F   UNL     1       3.897   2.998  16.811  0.00  0.00    +0.000 F 
ATOM      3  C   UNL     1       3.549   4.214  17.262  0.00  0.00    +0.000 A 
ATOM      4  C   UNL     1       2.289   4.351  17.843  0.00  0.00    +0.000 A 
ATOM      5  C   UNL     1       1.875   5.587  18.349  0.00  0.00    +0.000 A 
ATOM      6  C   UNL     1       2.726   6.690  18.276  0.00  0.00    +0.000 A 
ATOM      7  C   UNL     1       3.997   6.527  17.687  0.00  0.00    +0.000 A 
ATOM      8  F   UNL     1       4.803   7.600  17.613  0.00  0.00    +0.000 F 
ATOM      9  C   UNL     1       4.429   5.296  17.171  0.00  0.00    +0.000 A 
BRANCH   9  10
ATOM     10  C   UNL     1       5.729   5.132  16.553  0.00  0.00    +0.000 A 
ATOM     11  C   UNL     1       6.810   4.444  17.057  0.00  0.00    +0.000 A 
ATOM     12  N   UNL     1       7.771   4.587  16.101  0.00  0.00    +0.000 N 
ATOM     13  N   UNL     1       7.325   5.310  15.063  0.00  0.00    +0.000 NA
ATOM     14  N   UNL     1       6.069   5.646  15.327  0.00  0.00    +0.000 NA
ATOM     15  H   UNL     1       8.719   4.234  16.078  0.00  0.00    +0.000 HD
ENDBRANCH   9  10
ENDBRANCH   1   6
BRANCH   1  16
ATOM     16  C   UNL     1       2.047   8.938  17.771  0.00  0.00    +0.000 C 
BRANCH  16  17
ATOM     17  C   UNL     1       0.887   9.709  18.328  0.00  0.00    +0.000 A 
ATOM     18  N   UNL     1       0.785  10.402  19.448  0.00  0.00    +0.000 NA
ATOM     19  C   UNL     1      -0.550  10.786  19.497  0.00  0.00    +0.000 A 
ATOM     20  C   UNL     1      -1.192  10.319  18.364  0.00  0.00    +0.000 A 
ATOM     21 BR   UNL     1      -2.957  10.564  17.803  0.00  0.00    +0.000 Br
ATOM     22  O   UNL     1      -0.283   9.612  17.626  0.00  0.00    +0.000 OA
BRANCH  19  23
ATOM     23  C   UNL     1      -1.100  11.562  20.608  0.00  0.00    +0.000 A 
ATOM     24  C   UNL     1      -0.868  11.143  21.929  0.00  0.00    +0.000 A 
ATOM     25  C   UNL     1      -1.404  11.851  23.017  0.00  0.00    +0.000 A 
ATOM     26  C   UNL     1      -2.181  12.984  22.792  0.00  0.00    +0.000 A 
ATOM     27 CL   UNL     1      -2.857  13.844  24.119  0.00  0.00    +0.000 Cl
ATOM     28  C   UNL     1      -2.427  13.413  21.492  0.00  0.00    +0.000 A 
ATOM     29  C   UNL     1      -1.900  12.698  20.408  0.00  0.00    +0.000 A 
ENDBRANCH  19  23
ENDBRANCH  16  17
ENDBRANCH   1  16
TORSDOF 5
ENDMDL
MODEL 2
REMARK VINA RESULT:      -8.6      6.734      9.565
REMARK  Name = 
REMARK  5 active torsions:
REMARK  status: ('A' for Active; 'I' for Inactive)
REMARK    1  A    between atoms: C_5  and  O_6
REMARK    2  A    between atoms: O_6  and  C_7
REMARK    3  A    between atoms: C_7  and  C_8
REMARK    4  A    between atoms: C_10  and  C_11
REMARK    5  A    between atoms: C_23  and  C_24
REMARK                            x       y       z     vdW  Elec       q    Type
REMARK                         _______ _______ _______ _____ _____    ______ ____
ROOT
ATOM      1  O   UNL     1       7.857   9.336  17.868  0.00  0.00    +0.000 OA
ENDROOT
BRANCH   1   6
ATOM      2  F   UNL     1      10.558  13.405  20.424  0.00  0.00    +0.000 F 
ATOM      3  C   UNL     1       9.907  12.421  19.783  0.00  0.00    +0.000 A 
ATOM      4  C   UNL     1      10.037  11.127  20.284  0.00  0.00    +0.000 A 
ATOM      5  C   UNL     1       9.369  10.061  19.674  0.00  0.00    +0.000 A 
ATOM      6  C   UNL     1       8.564  10.292  18.557  0.00  0.00    +0.000 A 
ATOM      7  C   UNL     1       8.445  11.610  18.070  0.00  0.00    +0.000 A 
ATOM      8  F   UNL     1       7.675  11.817  16.987  0.00  0.00    +0.000 F 
ATOM      9  C   UNL     1       9.110  12.691  18.667  0.00  0.00    +0.000 A 
BRANCH   9  10
ATOM     10  C   UNL     1       8.998  14.042  18.157  0.00  0.00    +0.000 A 
ATOM     11  C   UNL     1       9.961  14.762  17.485  0.00  0.00    +0.000 A 
ATOM     12  N   UNL     1       9.362  15.957  17.223  0.00  0.00    +0.000 N 
ATOM     13  N   UNL     1       8.105  15.987  17.690  0.00  0.00    +0.000 NA
ATOM     14  N   UNL     1       7.867  14.813  18.261  0.00  0.00    +0.000 NA
ATOM     15  H   UNL     1       9.724  16.773  16.746  0.00  0.00    +0.000 HD
ENDBRANCH   9  10
ENDBRANCH   1   6
BRANCH   1  16
ATOM     16  C   UNL     1       8.371   8.000  17.866  0.00  0.00    +0.000 C 
BRANCH  16  17
ATOM     17  C   UNL     1       7.286   7.075  17.402  0.00  0.00    +0.000 A 
ATOM     18  N   UNL     1       6.211   6.639  18.035  0.00  0.00    +0.000 NA
ATOM     19  C   UNL     1       5.647   5.714  17.164  0.00  0.00    +0.000 A 
ATOM     20  C   UNL     1       6.411   5.662  16.011  0.00  0.00    +0.000 A 
ATOM     21 BR   UNL     1       6.143   4.684  14.443  0.00  0.00    +0.000 Br
ATOM     22  O   UNL     1       7.470   6.512  16.169  0.00  0.00    +0.000 OA
BRANCH  19  23
ATOM     23  C   UNL     1       4.435   4.966  17.494  0.00  0.00    +0.000 A 
ATOM     24  C   UNL     1       3.250   5.662  17.790  0.00  0.00    +0.000 A 
ATOM     25  C   UNL     1       2.075   4.974  18.137  0.00  0.00    +0.000 A 
ATOM     26  C   UNL     1       2.078   3.583  18.196  0.00  0.00    +0.000 A 
ATOM     27 CL   UNL     1       0.649   2.735  18.640  0.00  0.00    +0.000 Cl
ATOM     28  C   UNL     1       3.241   2.875  17.912  0.00  0.00    +0.000 A 
ATOM     29  C   UNL     1       4.414   3.566  17.576  0.00  0.00    +0.000 A 
ENDBRANCH  19  23
ENDBRANCH  16  17
ENDBRANCH   1  16
TORSDOF 5
ENDMDL
MODEL 3
REMARK VINA RESULT:      -8.5      2.463      3.049
REMARK  Name = 
REMARK  5 active torsions:
REMARK  status: ('A' for Active; 'I' for Inactive)
REMARK    1  A    between atoms: C_5  and  O_6
REMARK    2  A    between atoms: O_6  and  C_7
REMARK    3  A    between atoms: C_7  and  C_8
REMARK    4  A    between atoms: C_10  and  C_11
REMARK    5  A    between atoms: C_23  and  C_24
REMARK                            x       y       z     vdW  Elec       q    Type
REMARK                         _______ _______ _______ _____ _____    ______ ____
ROOT
ATOM      1  O   UNL     1       2.349   7.570  18.727  0.00  0.00    +0.000 OA
ENDROOT
BRANCH   1   6
ATOM      2  F   UNL     1       4.023   2.528  17.257  0.00  0.00    +0.000 F 
ATOM      3  C   UNL     1       3.627   3.764  17.600  0.00  0.00    +0.000 A 
ATOM      4  C   UNL     1       2.274   3.954  17.881  0.00  0.00    +0.000 A 
ATOM      5  C   UNL     1       1.801   5.213  18.262  0.00  0.00    +0.000 A 
ATOM      6  C   UNL     1       2.686   6.288  18.365  0.00  0.00    +0.000 A 
ATOM      7  C   UNL     1       4.049   6.072  18.079  0.00  0.00    +0.000 A 
ATOM      8  F   UNL     1       4.889   7.117  18.171  0.00  0.00    +0.000 F 
ATOM      9  C   UNL     1       4.542   4.816  17.692  0.00  0.00    +0.000 A 
BRANCH   9  10
ATOM     10  C   UNL     1       5.941   4.598  17.385  0.00  0.00    +0.000 A 
ATOM     11  C   UNL     1       6.516   4.508  16.136  0.00  0.00    +0.000 A 
ATOM     12  N   UNL     1       7.839   4.309  16.393  0.00  0.00    +0.000 N 
ATOM     13  N   UNL     1       8.084   4.282  17.711  0.00  0.00    +0.000 NA
ATOM     14  N   UNL     1       6.925   4.465  18.332  0.00  0.00    +0.000 NA
ATOM     15  H   UNL     1       8.612   4.189  15.751  0.00  0.00    +0.000 HD
ENDBRANCH   9  10
ENDBRANCH   1   6
BRANCH   1  16
ATOM     16  C   UNL     1       2.197   8.539  17.684  0.00  0.00    +0.000 C 
BRANCH  16  17
ATOM     17  C   UNL     1       1.076   9.463  18.054  0.00  0.00    +0.000 A 
ATOM     18  N   UNL     1      -0.191   9.456  17.681  0.00  0.00    +0.000 NA
ATOM     19  C   UNL     1      -0.722  10.616  18.234  0.00  0.00    +0.000 A 
ATOM     20  C   UNL     1       0.268  11.262  18.953  0.00  0.00    +0.000 A 
ATOM     21 BR   UNL     1       0.174  12.815  19.985  0.00  0.00    +0.000 Br
ATOM     22  O   UNL     1       1.422  10.540  18.822  0.00  0.00    +0.000 OA
BRANCH  19  23
ATOM     23  C   UNL     1      -2.117  11.008  18.037  0.00  0.00    +0.000 A 
ATOM     24  C   UNL     1      -2.721  10.813  16.783  0.00  0.00    +0.000 A 
ATOM     25  C   UNL     1      -4.051  11.204  16.553  0.00  0.00    +0.000 A 
ATOM     26  C   UNL     1      -4.786  11.797  17.575  0.00  0.00    +0.000 A 
ATOM     27 CL   UNL     1      -6.408  12.297  17.295  0.00  0.00    +0.000 Cl
ATOM     28  C   UNL     1      -4.205  12.004  18.822  0.00  0.00    +0.000 A 
ATOM     29  C   UNL     1      -2.874  11.623  19.045  0.00  0.00    +0.000 A 
ENDBRANCH  19  23
ENDBRANCH  16  17
ENDBRANCH   1  16
TORSDOF 5
ENDMDL
MODEL 4
REMARK VINA RESULT:      -8.5      1.301      1.330
REMARK  Name = 
REMARK  5 active torsions:
REMARK  status: ('A' for Active; 'I' for Inactive)
REMARK    1  A    between atoms: C_5  and  O_6
REMARK    2  A    between atoms: O_6  and  C_7
REMARK    3  A    between atoms: C_7  and  C_8
REMARK    4  A    between atoms: C_10  and  C_11
REMARK    5  A    between atoms: C_23  and  C_24
REMARK                            x       y       z     vdW  Elec       q    Type
REMARK                         _______ _______ _______ _____ _____    ______ ____
ROOT
ATOM      1  O   UNL     1       2.249   7.339  18.890  0.00  0.00    +0.000 OA
ENDROOT
BRANCH   1   6
ATOM      2  F   UNL     1       3.984   2.535  16.821  0.00  0.00    +0.000 F 
ATOM      3  C   UNL     1       3.570   3.715  17.308  0.00  0.00    +0.000 A 
ATOM      4  C   UNL     1       2.273   3.784  17.816  0.00  0.00    +0.000 A 
ATOM      5  C   UNL     1       1.788   4.979  18.356  0.00  0.00    +0.000 A 
ATOM      6  C   UNL     1       2.605   6.110  18.390  0.00  0.00    +0.000 A 
ATOM      7  C   UNL     1       3.913   6.016  17.873  0.00  0.00    +0.000 A 
ATOM      8  F   UNL     1       4.685   7.116  17.902  0.00  0.00    +0.000 F 
ATOM      9  C   UNL     1       4.416   4.827  17.325  0.00  0.00    +0.000 A 
BRANCH   9  10
ATOM     10  C   UNL     1       5.756   4.735  16.781  0.00  0.00    +0.000 A 
ATOM     11  C   UNL     1       6.925   4.517  17.477  0.00  0.00    +0.000 A 
ATOM     12  N   UNL     1       7.889   4.511  16.515  0.00  0.00    +0.000 N 
ATOM     13  N   UNL     1       7.365   4.705  15.295  0.00  0.00    +0.000 NA
ATOM     14  N   UNL     1       6.053   4.838  15.445  0.00  0.00    +0.000 NA
ATOM     15  H   UNL     1       8.890   4.384  16.601  0.00  0.00    +0.000 HD
ENDBRANCH   9  10
ENDBRANCH   1   6
BRANCH   1  16
ATOM     16  C   UNL     1       2.033   8.403  17.956  0.00  0.00    +0.000 C 
BRANCH  16  17
ATOM     17  C   UNL     1       1.407   9.554  18.683  0.00  0.00    +0.000 A 
ATOM     18  N   UNL     1       0.545   9.561  19.684  0.00  0.00    +0.000 NA
ATOM     19  C   UNL     1       0.225  10.903  19.857  0.00  0.00    +0.000 A 
ATOM     20  C   UNL     1       0.950  11.656  18.950  0.00  0.00    +0.000 A 
ATOM     21 BR   UNL     1       1.028  13.508  18.728  0.00  0.00    +0.000 Br
ATOM     22  O   UNL     1       1.688  10.797  18.185  0.00  0.00    +0.000 OA
BRANCH  19  23
ATOM     23  C   UNL     1      -0.734  11.354  20.865  0.00  0.00    +0.000 A 
ATOM     24  C   UNL     1      -0.596  10.924  22.195  0.00  0.00    +0.000 A 
ATOM     25  C   UNL     1      -1.514  11.317  23.183  0.00  0.00    +0.000 A 
ATOM     26  C   UNL     1      -2.583  12.144  22.845  0.00  0.00    +0.000 A 
ATOM     27 CL   UNL     1      -3.723  12.614  24.044  0.00  0.00    +0.000 Cl
ATOM     28  C   UNL     1      -2.741  12.578  21.532  0.00  0.00    +0.000 A 
ATOM     29  C   UNL     1      -1.828  12.174  20.548  0.00  0.00    +0.000 A 
ENDBRANCH  19  23
ENDBRANCH  16  17
ENDBRANCH   1  16
TORSDOF 5
ENDMDL
MODEL 5
REMARK VINA RESULT:      -8.4      1.458      1.838
REMARK  Name = 
REMARK  5 active torsions:
REMARK  status: ('A' for Active; 'I' for Inactive)
REMARK    1  A    between atoms: C_5  and  O_6
REMARK    2  A    between atoms: O_6  and  C_7
REMARK    3  A    between atoms: C_7  and  C_8
REMARK    4  A    between atoms: C_10  and  C_11
REMARK    5  A    between atoms: C_23  and  C_24
REMARK                            x       y       z     vdW  Elec       q    Type
REMARK                         _______ _______ _______ _____ _____    ______ ____
ROOT
ATOM      1  O   UNL     1       2.409   7.781  18.758  0.00  0.00    +0.000 OA
ENDROOT
BRANCH   1   6
ATOM      2  F   UNL     1       3.918   2.795  16.959  0.00  0.00    +0.000 F 
ATOM      3  C   UNL     1       3.558   4.017  17.379  0.00  0.00    +0.000 A 
ATOM      4  C   UNL     1       2.292   4.158  17.947  0.00  0.00    +0.000 A 
ATOM      5  C   UNL     1       1.864   5.402  18.422  0.00  0.00    +0.000 A 
ATOM      6  C   UNL     1       2.708   6.510  18.331  0.00  0.00    +0.000 A 
ATOM      7  C   UNL     1       3.985   6.343  17.756  0.00  0.00    +0.000 A 
ATOM      8  F   UNL     1       4.783   7.420  17.665  0.00  0.00    +0.000 F 
ATOM      9  C   UNL     1       4.430   5.104  17.272  0.00  0.00    +0.000 A 
BRANCH   9  10
ATOM     10  C   UNL     1       5.737   4.937  16.668  0.00  0.00    +0.000 A 
ATOM     11  C   UNL     1       6.088   5.185  15.360  0.00  0.00    +0.000 A 
ATOM     12  N   UNL     1       7.415   4.878  15.308  0.00  0.00    +0.000 N 
ATOM     13  N   UNL     1       7.870   4.472  16.502  0.00  0.00    +0.000 NA
ATOM     14  N   UNL     1       6.849   4.509  17.348  0.00  0.00    +0.000 NA
ATOM     15  H   UNL     1       8.059   4.920  14.528  0.00  0.00    +0.000 HD
ENDBRANCH   9  10
ENDBRANCH   1   6
BRANCH   1  16
ATOM     16  C   UNL     1       1.823   8.682  17.811  0.00  0.00    +0.000 C 
BRANCH  16  17
ATOM     17  C   UNL     1       1.213   9.827  18.561  0.00  0.00    +0.000 A 
ATOM     18  N   UNL     1       0.116   9.876  19.296  0.00  0.00    +0.000 NA
ATOM     19  C   UNL     1      -0.018  11.218  19.632  0.00  0.00    +0.000 A 
ATOM     20  C   UNL     1       1.046  11.922  19.094  0.00  0.00    +0.000 A 
ATOM     21 BR   UNL     1       1.483  13.730  19.250  0.00  0.00    +0.000 Br
ATOM     22  O   UNL     1       1.821  11.041  18.392  0.00  0.00    +0.000 OA
BRANCH  19  23
ATOM     23  C   UNL     1      -1.135  11.716  20.433  0.00  0.00    +0.000 A 
ATOM     24  C   UNL     1      -2.277  12.223  19.790  0.00  0.00    +0.000 A 
ATOM     25  C   UNL     1      -3.357  12.733  20.530  0.00  0.00    +0.000 A 
ATOM     26  C   UNL     1      -3.300  12.745  21.921  0.00  0.00    +0.000 A 
ATOM     27 CL   UNL     1      -4.610  13.387  22.833  0.00  0.00    +0.000 Cl
ATOM     28  C   UNL     1      -2.177  12.252  22.577  0.00  0.00    +0.000 A 
ATOM     29  C   UNL     1      -1.097  11.754  21.835  0.00  0.00    +0.000 A 
ENDBRANCH  19  23
ENDBRANCH  16  17
ENDBRANCH   1  16
TORSDOF 5
ENDMDL
MODEL 6
REMARK VINA RESULT:      -8.4      2.497      2.902
REMARK  Name = 
REMARK  5 active torsions:
REMARK  status: ('A' for Active; 'I' for Inactive)
REMARK    1  A    between atoms: C_5  and  O_6
REMARK    2  A    between atoms: O_6  and  C_7
REMARK    3  A    between atoms: C_7  and  C_8
REMARK    4  A    between atoms: C_10  and  C_11
REMARK    5  A    between atoms: C_23  and  C_24
REMARK                            x       y       z     vdW  Elec       q    Type
REMARK                         _______ _______ _______ _____ _____    ______ ____
ROOT
ATOM      1  O   UNL     1       2.254   7.853  18.508  0.00  0.00    +0.000 OA
ENDROOT
BRANCH   1   6
ATOM      2  F   UNL     1       5.983   4.312  16.525  0.00  0.00    +0.000 F 
ATOM      3  C   UNL     1       5.080   5.168  17.027  0.00  0.00    +0.000 A 
ATOM      4  C   UNL     1       5.048   6.457  16.497  0.00  0.00    +0.000 A 
ATOM      5  C   UNL     1       4.118   7.391  16.964  0.00  0.00    +0.000 A 
ATOM      6  C   UNL     1       3.213   7.033  17.964  0.00  0.00    +0.000 A 
ATOM      7  C   UNL     1       3.261   5.722  18.483  0.00  0.00    +0.000 A 
ATOM      8  F   UNL     1       2.392   5.393  19.453  0.00  0.00    +0.000 F 
ATOM      9  C   UNL     1       4.189   4.773  18.029  0.00  0.00    +0.000 A 
BRANCH   9  10
ATOM     10  C   UNL     1       4.248   3.431  18.572  0.00  0.00    +0.000 A 
ATOM     11  C   UNL     1       3.672   2.294  18.050  0.00  0.00    +0.000 A 
ATOM     12  N   UNL     1       4.025   1.310  18.924  0.00  0.00    +0.000 N 
ATOM     13  N   UNL     1       4.777   1.791  19.924  0.00  0.00    +0.000 NA
ATOM     14  N   UNL     1       4.927   3.093  19.717  0.00  0.00    +0.000 NA
ATOM     15  H   UNL     1       3.805   0.322  18.910  0.00  0.00    +0.000 HD
ENDBRANCH   9  10
ENDBRANCH   1   6
BRANCH   1  16
ATOM     16  C   UNL     1       1.815   8.972  17.730  0.00  0.00    +0.000 C 
BRANCH  16  17
ATOM     17  C   UNL     1       1.265  10.010  18.661  0.00  0.00    +0.000 A 
ATOM     18  N   UNL     1       0.303   9.922  19.562  0.00  0.00    +0.000 NA
ATOM     19  C   UNL     1       0.142  11.222  20.027  0.00  0.00    +0.000 A 
ATOM     20  C   UNL     1       1.057  12.041  19.389  0.00  0.00    +0.000 A 
ATOM     21 BR   UNL     1       1.400  13.862  19.625  0.00  0.00    +0.000 Br
ATOM     22  O   UNL     1       1.760  11.275  18.500  0.00  0.00    +0.000 OA
BRANCH  19  23
ATOM     23  C   UNL     1      -0.857  11.575  21.034  0.00  0.00    +0.000 A 
ATOM     24  C   UNL     1      -0.724  11.084  22.344  0.00  0.00    +0.000 A 
ATOM     25  C   UNL     1      -1.681  11.382  23.329  0.00  0.00    +0.000 A 
ATOM     26  C   UNL     1      -2.782  12.172  23.009  0.00  0.00    +0.000 A 
ATOM     27 CL   UNL     1      -3.968  12.524  24.204  0.00  0.00    +0.000 Cl
ATOM     28  C   UNL     1      -2.935  12.664  21.717  0.00  0.00    +0.000 A 
ATOM     29  C   UNL     1      -1.984  12.355  20.734  0.00  0.00    +0.000 A 
ENDBRANCH  19  23
ENDBRANCH  16  17
ENDBRANCH   1  16
TORSDOF 5
ENDMDL
MODEL 7
REMARK VINA RESULT:      -8.3      2.487      2.907
REMARK  Name = 
REMARK  5 active torsions:
REMARK  status: ('A' for Active; 'I' for Inactive)
REMARK    1  A    between atoms: C_5  and  O_6
REMARK    2  A    between atoms: O_6  and  C_7
REMARK    3  A    between atoms: C_7  and  C_8
REMARK    4  A    between atoms: C_10  and  C_11
REMARK    5  A    between atoms: C_23  and  C_24
REMARK                            x       y       z     vdW  Elec       q    Type
REMARK                         _______ _______ _______ _____ _____    ______ ____
ROOT
ATOM      1  O   UNL     1       1.953   6.747  18.775  0.00  0.00    +0.000 OA
ENDROOT
BRANCH   1   6
ATOM      2  F   UNL     1       4.309   2.051  17.109  0.00  0.00    +0.000 F 
ATOM      3  C   UNL     1       3.745   3.205  17.499  0.00  0.00    +0.000 A 
ATOM      4  C   UNL     1       2.380   3.193  17.785  0.00  0.00    +0.000 A 
ATOM      5  C   UNL     1       1.737   4.357  18.215  0.00  0.00    +0.000 A 
ATOM      6  C   UNL     1       2.463   5.540  18.363  0.00  0.00    +0.000 A 
ATOM      7  C   UNL     1       3.843   5.528  18.071  0.00  0.00    +0.000 A 
ATOM      8  F   UNL     1       4.529   6.676  18.207  0.00  0.00    +0.000 F 
ATOM      9  C   UNL     1       4.504   4.370  17.636  0.00  0.00    +0.000 A 
BRANCH   9  10
ATOM     10  C   UNL     1       5.919   4.362  17.323  0.00  0.00    +0.000 A 
ATOM     11  C   UNL     1       6.497   4.401  16.074  0.00  0.00    +0.000 A 
ATOM     12  N   UNL     1       7.836   4.379  16.325  0.00  0.00    +0.000 N 
ATOM     13  N   UNL     1       8.086   4.336  17.642  0.00  0.00    +0.000 NA
ATOM     14  N   UNL     1       6.916   4.331  18.267  0.00  0.00    +0.000 NA
ATOM     15  H   UNL     1       8.616   4.394  15.680  0.00  0.00    +0.000 HD
ENDBRANCH   9  10
ENDBRANCH   1   6
BRANCH   1  16
ATOM     16  C   UNL     1       2.067   7.080  20.163  0.00  0.00    +0.000 C 
BRANCH  16  17
ATOM     17  C   UNL     1       1.372   8.388  20.396  0.00  0.00    +0.000 A 
ATOM     18  N   UNL     1       1.376   9.494  19.674  0.00  0.00    +0.000 NA
ATOM     19  C   UNL     1       0.665  10.411  20.440  0.00  0.00    +0.000 A 
ATOM     20  C   UNL     1       0.234   9.787  21.597  0.00  0.00    +0.000 A 
ATOM     21 BR   UNL     1      -0.826  10.447  22.986  0.00  0.00    +0.000 Br
ATOM     22  O   UNL     1       0.702   8.503  21.583  0.00  0.00    +0.000 OA
BRANCH  19  23
ATOM     23  C   UNL     1       0.453  11.792  20.009  0.00  0.00    +0.000 A 
ATOM     24  C   UNL     1      -0.646  12.102  19.190  0.00  0.00    +0.000 A 
ATOM     25  C   UNL     1      -0.863  13.415  18.737  0.00  0.00    +0.000 A 
ATOM     26  C   UNL     1       0.021  14.428  19.098  0.00  0.00    +0.000 A 
ATOM     27 CL   UNL     1      -0.227  16.033  18.531  0.00  0.00    +0.000 Cl
ATOM     28  C   UNL     1       1.118  14.141  19.905  0.00  0.00    +0.000 A 
ATOM     29  C   UNL     1       1.338  12.829  20.345  0.00  0.00    +0.000 A 
ENDBRANCH  19  23
ENDBRANCH  16  17
ENDBRANCH   1  16
TORSDOF 5
ENDMDL
MODEL 8
REMARK VINA RESULT:      -8.3      2.692      3.376
REMARK  Name = 
REMARK  5 active torsions:
REMARK  status: ('A' for Active; 'I' for Inactive)
REMARK    1  A    between atoms: C_5  and  O_6
REMARK    2  A    between atoms: O_6  and  C_7
REMARK    3  A    between atoms: C_7  and  C_8
REMARK    4  A    between atoms: C_10  and  C_11
REMARK    5  A    between atoms: C_23  and  C_24
REMARK                            x       y       z     vdW  Elec       q    Type
REMARK                         _______ _______ _______ _____ _____    ______ ____
ROOT
ATOM      1  O   UNL     1       0.958   7.827  20.997  0.00  0.00    +0.000 OA
ENDROOT
BRANCH   1   6
ATOM      2  F   UNL     1       4.236   6.100  16.917  0.00  0.00    +0.000 F 
ATOM      3  C   UNL     1       3.451   6.513  17.924  0.00  0.00    +0.000 A 
ATOM      4  C   UNL     1       2.925   7.801  17.847  0.00  0.00    +0.000 A 
ATOM      5  C   UNL     1       2.085   8.285  18.854  0.00  0.00    +0.000 A 
ATOM      6  C   UNL     1       1.767   7.473  19.945  0.00  0.00    +0.000 A 
ATOM      7  C   UNL     1       2.309   6.172  20.001  0.00  0.00    +0.000 A 
ATOM      8  F   UNL     1       2.004   5.405  21.061  0.00  0.00    +0.000 F 
ATOM      9  C   UNL     1       3.156   5.672  19.000  0.00  0.00    +0.000 A 
BRANCH   9  10
ATOM     10  C   UNL     1       3.723   4.340  19.066  0.00  0.00    +0.000 A 
ATOM     11  C   UNL     1       5.035   4.004  19.315  0.00  0.00    +0.000 A 
ATOM     12  N   UNL     1       5.044   2.642  19.275  0.00  0.00    +0.000 N 
ATOM     13  N   UNL     1       3.821   2.152  19.025  0.00  0.00    +0.000 NA
ATOM     14  N   UNL     1       2.998   3.186  18.901  0.00  0.00    +0.000 NA
ATOM     15  H   UNL     1       5.811   1.995  19.405  0.00  0.00    +0.000 HD
ENDBRANCH   9  10
ENDBRANCH   1   6
BRANCH   1  16
ATOM     16  C   UNL     1       1.431   8.840  21.891  0.00  0.00    +0.000 C 
BRANCH  16  17
ATOM     17  C   UNL     1       0.497  10.010  21.821  0.00  0.00    +0.000 A 
ATOM     18  N   UNL     1       0.076  10.821  22.775  0.00  0.00    +0.000 NA
ATOM     19  C   UNL     1      -0.869  11.629  22.151  0.00  0.00    +0.000 A 
ATOM     20  C   UNL     1      -0.949  11.274  20.816  0.00  0.00    +0.000 A 
ATOM     21 BR   UNL     1      -1.962  12.025  19.439  0.00  0.00    +0.000 Br
ATOM     22  O   UNL     1      -0.095  10.227  20.607  0.00  0.00    +0.000 OA
BRANCH  19  23
ATOM     23  C   UNL     1      -1.608  12.666  22.870  0.00  0.00    +0.000 A 
ATOM     24  C   UNL     1      -1.004  13.913  23.102  0.00  0.00    +0.000 A 
ATOM     25  C   UNL     1      -1.677  14.921  23.813  0.00  0.00    +0.000 A 
ATOM     26  C   UNL     1      -2.960  14.687  24.300  0.00  0.00    +0.000 A 
ATOM     27 CL   UNL     1      -3.783  15.910  25.189  0.00  0.00    +0.000 Cl
ATOM     28  C   UNL     1      -3.574  13.458  24.085  0.00  0.00    +0.000 A 
ATOM     29  C   UNL     1      -2.895  12.450  23.386  0.00  0.00    +0.000 A 
ENDBRANCH  19  23
ENDBRANCH  16  17
ENDBRANCH   1  16
TORSDOF 5
ENDMDL
MODEL 9
REMARK VINA RESULT:      -8.3      2.676      3.315
REMARK  Name = 
REMARK  5 active torsions:
REMARK  status: ('A' for Active; 'I' for Inactive)
REMARK    1  A    between atoms: C_5  and  O_6
REMARK    2  A    between atoms: O_6  and  C_7
REMARK    3  A    between atoms: C_7  and  C_8
REMARK    4  A    between atoms: C_10  and  C_11
REMARK    5  A    between atoms: C_23  and  C_24
REMARK                            x       y       z     vdW  Elec       q    Type
REMARK                         _______ _______ _______ _____ _____    ______ ____
ROOT
ATOM      1  O   UNL     1       1.118   7.551  20.845  0.00  0.00    +0.000 OA
ENDROOT
BRANCH   1   6
ATOM      2  F   UNL     1       4.454   5.510  16.960  0.00  0.00    +0.000 F 
ATOM      3  C   UNL     1       3.653   5.999  17.921  0.00  0.00    +0.000 A 
ATOM      4  C   UNL     1       3.226   7.320  17.795  0.00  0.00    +0.000 A 
ATOM      5  C   UNL     1       2.376   7.883  18.752  0.00  0.00    +0.000 A 
ATOM      6  C   UNL     1       1.949   7.119  19.839  0.00  0.00    +0.000 A 
ATOM      7  C   UNL     1       2.391   5.784  19.944  0.00  0.00    +0.000 A 
ATOM      8  F   UNL     1       1.981   5.062  21.001  0.00  0.00    +0.000 F 
ATOM      9  C   UNL     1       3.246   5.204  18.995  0.00  0.00    +0.000 A 
BRANCH   9  10
ATOM     10  C   UNL     1       3.712   3.836  19.111  0.00  0.00    +0.000 A 
ATOM     11  C   UNL     1       3.242   2.735  18.430  0.00  0.00    +0.000 A 
ATOM     12  N   UNL     1       4.008   1.707  18.889  0.00  0.00    +0.000 N 
ATOM     13  N   UNL     1       4.904   2.130  19.793  0.00  0.00    +0.000 NA
ATOM     14  N   UNL     1       4.736   3.439  19.934  0.00  0.00    +0.000 NA
ATOM     15  H   UNL     1       3.987   0.724  18.646  0.00  0.00    +0.000 HD
ENDBRANCH   9  10
ENDBRANCH   1   6
BRANCH   1  16
ATOM     16  C   UNL     1       1.614   8.559  21.733  0.00  0.00    +0.000 C 
BRANCH  16  17
ATOM     17  C   UNL     1       0.683   9.732  21.686  0.00  0.00    +0.000 A 
ATOM     18  N   UNL     1       0.273  10.533  22.653  0.00  0.00    +0.000 NA
ATOM     19  C   UNL     1      -0.673  11.353  22.048  0.00  0.00    +0.000 A 
ATOM     20  C   UNL     1      -0.765  11.016  20.709  0.00  0.00    +0.000 A 
ATOM     21 BR   UNL     1      -1.787  11.789  19.350  0.00  0.00    +0.000 Br
ATOM     22  O   UNL     1       0.083   9.968  20.479  0.00  0.00    +0.000 OA
BRANCH  19  23
ATOM     23  C   UNL     1      -1.403  12.382  22.787  0.00  0.00    +0.000 A 
ATOM     24  C   UNL     1      -2.699  12.111  23.255  0.00  0.00    +0.000 A 
ATOM     25  C   UNL     1      -3.438  13.087  23.945  0.00  0.00    +0.000 A 
ATOM     26  C   UNL     1      -2.885  14.345  24.169  0.00  0.00    +0.000 A 
ATOM     27 CL   UNL     1      -3.791  15.552  24.995  0.00  0.00    +0.000 Cl
ATOM     28  C   UNL     1      -1.604  14.636  23.709  0.00  0.00    +0.000 A 
ATOM     29  C   UNL     1      -0.875  13.663  23.012  0.00  0.00    +0.000 A 
ENDBRANCH  19  23
ENDBRANCH  16  17
ENDBRANCH   1  16
TORSDOF 5
ENDMDL
