MODEL 1
REMARK VINA RESULT:      -8.1      0.000      0.000
REMARK  Name = 
REMARK  16 active torsions:
REMARK  status: ('A' for Active; 'I' for Inactive)
REMARK    1  A    between atoms: C_1  and  C_2
REMARK    2  A    between atoms: C_2  and  C_3
REMARK    3  A    between atoms: C_2  and  C_4
REMARK    4  A    between atoms: C_2  and  C_5
REMARK    5  A    between atoms: C_8  and  C_9
REMARK    6  A    between atoms: C_9  and  N_10
REMARK    7  A    between atoms: N_10  and  C_11
REMARK    8  A    between atoms: N_10  and  C_16
REMARK    9  A    between atoms: C_11  and  C_12
REMARK   10  A    between atoms: C_12  and  C_13
REMARK   11  A    between atoms: C_13  and  O_15
REMARK   12  A    between atoms: C_16  and  C_17
REMARK   13  A    between atoms: C_20  and  C_21
REMARK   14  A    between atoms: C_21  and  O_23
REMARK   15  A    between atoms: C_24  and  C_25
REMARK   16  A    between atoms: C_25  and  O_27
REMARK                            x       y       z     vdW  Elec       q    Type
REMARK                         _______ _______ _______ _____ _____    ______ ____
ROOT
ATOM      1  N   UNL     1       2.358   5.250  20.245  0.00  0.00    +0.000 NA
ENDROOT
BRANCH   1   2
ATOM      2  C   UNL     1       2.387   6.229  19.127  0.00  0.00    +0.000 C 
BRANCH   2   6
ATOM      3  C   UNL     1       0.716  10.135  20.007  0.00  0.00    +0.000 A 
ATOM      4  C   UNL     1       1.273   9.859  18.745  0.00  0.00    +0.000 A 
ATOM      5  C   UNL     1       1.885   8.630  18.467  0.00  0.00    +0.000 A 
ATOM      6  C   UNL     1       1.986   7.650  19.456  0.00  0.00    +0.000 A 
ATOM      7  C   UNL     1       1.545   7.960  20.747  0.00  0.00    +0.000 A 
ATOM      8  C   UNL     1       0.930   9.186  21.019  0.00  0.00    +0.000 A 
BRANCH   3  10
ATOM      9  C   UNL     1      -1.443  11.406  19.490  0.00  0.00    +0.000 C 
ATOM     10  C   UNL     1      -0.105  11.412  20.266  0.00  0.00    +0.000 C 
ATOM     11  C   UNL     1       0.717  12.638  19.835  0.00  0.00    +0.000 C 
ATOM     12  C   UNL     1      -0.484  11.575  21.760  0.00  0.00    +0.000 C 
ENDBRANCH   3  10
ENDBRANCH   2   6
ENDBRANCH   1   2
BRANCH   1  13
ATOM     13  C   UNL     1       1.119   4.426  20.145  0.00  0.00    +0.000 C 
BRANCH  13  14
ATOM     14  C   UNL     1       1.369   2.927  20.361  0.00  0.00    +0.000 C 
BRANCH  14  15
ATOM     15  C   UNL     1       1.117   2.125  19.107  0.00  0.00    +0.000 C 
ATOM     16  O   UNL     1       0.141   2.225  18.386  0.00  0.00    +0.000 OA
BRANCH  15  17
ATOM     17  O   UNL     1       2.139   1.277  18.835  0.00  0.00    +0.000 OA
ATOM     18  H   UNL     1       1.959   0.345  19.062  0.00  0.00    +0.000 HD
ENDBRANCH  15  17
ENDBRANCH  14  15
ENDBRANCH  13  14
ENDBRANCH   1  13
BRANCH   1  19
ATOM     19  C   UNL     1       3.554   4.389  20.129  0.00  0.00    +0.000 C 
BRANCH  19  20
ATOM     20  C   UNL     1       4.348   4.587  18.854  0.00  0.00    +0.000 A 
ATOM     21  C   UNL     1       4.159   3.731  17.771  0.00  0.00    +0.000 A 
ATOM     22  C   UNL     1       4.982   3.831  16.649  0.00  0.00    +0.000 A 
ATOM     23  C   UNL     1       6.034   4.773  16.568  0.00  0.00    +0.000 A 
ATOM     24  C   UNL     1       6.206   5.654  17.654  0.00  0.00    +0.000 A 
ATOM     25  C   UNL     1       5.357   5.557  18.779  0.00  0.00    +0.000 A 
BRANCH  23  26
ATOM     26  C   UNL     1       6.803   4.708  15.277  0.00  0.00    +0.000 C 
ATOM     27  O   UNL     1       7.679   5.531  15.041  0.00  0.00    +0.000 OA
BRANCH  26  28
ATOM     28  O   UNL     1       6.567   3.718  14.405  0.00  0.00    +0.000 OA
ATOM     29  H   UNL     1       6.141   3.958  13.551  0.00  0.00    +0.000 HD
ENDBRANCH  26  28
ENDBRANCH  23  26
BRANCH  24  30
ATOM     30  C   UNL     1       7.339   6.597  17.753  0.00  0.00    +0.000 C 
ATOM     31  O   UNL     1       8.190   6.481  18.625  0.00  0.00    +0.000 OA
BRANCH  30  32
ATOM     32  O   UNL     1       7.371   7.579  16.839  0.00  0.00    +0.000 OA
ATOM     33  H   UNL     1       7.397   8.493  17.180  0.00  0.00    +0.000 HD
ENDBRANCH  30  32
ENDBRANCH  24  30
ENDBRANCH  19  20
ENDBRANCH   1  19
TORSDOF 13
ENDMDL
MODEL 2
REMARK VINA RESULT:      -7.8      3.298      7.701
REMARK  Name = 
REMARK  16 active torsions:
REMARK  status: ('A' for Active; 'I' for Inactive)
REMARK    1  A    between atoms: C_1  and  C_2
REMARK    2  A    between atoms: C_2  and  C_3
REMARK    3  A    between atoms: C_2  and  C_4
REMARK    4  A    between atoms: C_2  and  C_5
REMARK    5  A    between atoms: C_8  and  C_9
REMARK    6  A    between atoms: C_9  and  N_10
REMARK    7  A    between atoms: N_10  and  C_11
REMARK    8  A    between atoms: N_10  and  C_16
REMARK    9  A    between atoms: C_11  and  C_12
REMARK   10  A    between atoms: C_12  and  C_13
REMARK   11  A    between atoms: C_13  and  O_15
REMARK   12  A    between atoms: C_16  and  C_17
REMARK   13  A    between atoms: C_20  and  C_21
REMARK   14  A    between atoms: C_21  and  O_23
REMARK   15  A    between atoms: C_24  and  C_25
REMARK   16  A    between atoms: C_25  and  O_27
REMARK                            x       y       z     vdW  Elec       q    Type
REMARK                         _______ _______ _______ _____ _____    ______ ____
ROOT
ATOM      1  N   UNL     1       4.073   4.245  18.639  0.00  0.00    +0.000 NA
ENDROOT
BRANCH   1   2
ATOM      2  C   UNL     1       5.473   4.347  18.152  0.00  0.00    +0.000 C 
BRANCH   2   6
ATOM      3  C   UNL     1       5.981   4.068  13.852  0.00  0.00    +0.000 A 
ATOM      4  C   UNL     1       7.092   4.255  14.696  0.00  0.00    +0.000 A 
ATOM      5  C   UNL     1       6.940   4.423  16.079  0.00  0.00    +0.000 A 
ATOM      6  C   UNL     1       5.668   4.441  16.655  0.00  0.00    +0.000 A 
ATOM      7  C   UNL     1       4.555   4.379  15.810  0.00  0.00    +0.000 A 
ATOM      8  C   UNL     1       4.710   4.206  14.432  0.00  0.00    +0.000 A 
BRANCH   3  10
ATOM      9  C   UNL     1       7.205   4.610  11.672  0.00  0.00    +0.000 C 
ATOM     10  C   UNL     1       6.150   3.714  12.363  0.00  0.00    +0.000 C 
ATOM     11  C   UNL     1       4.800   3.888  11.646  0.00  0.00    +0.000 C 
ATOM     12  C   UNL     1       6.633   2.257  12.155  0.00  0.00    +0.000 C 
ENDBRANCH   3  10
ENDBRANCH   2   6
ENDBRANCH   1   2
BRANCH   1  13
ATOM     13  C   UNL     1       3.813   2.850  19.100  0.00  0.00    +0.000 C 
BRANCH  13  14
ATOM     14  C   UNL     1       2.643   2.179  18.368  0.00  0.00    +0.000 C 
BRANCH  14  15
ATOM     15  C   UNL     1       1.369   2.979  18.484  0.00  0.00    +0.000 C 
ATOM     16  O   UNL     1       0.571   2.914  19.402  0.00  0.00    +0.000 OA
BRANCH  15  17
ATOM     17  O   UNL     1       1.211   3.834  17.443  0.00  0.00    +0.000 OA
ATOM     18  H   UNL     1       2.035   4.030  16.958  0.00  0.00    +0.000 HD
ENDBRANCH  15  17
ENDBRANCH  14  15
ENDBRANCH  13  14
ENDBRANCH   1  13
BRANCH   1  19
ATOM     19  C   UNL     1       3.911   5.192  19.762  0.00  0.00    +0.000 C 
BRANCH  19  20
ATOM     20  C   UNL     1       3.023   6.381  19.457  0.00  0.00    +0.000 A 
ATOM     21  C   UNL     1       3.061   6.981  18.199  0.00  0.00    +0.000 A 
ATOM     22  C   UNL     1       2.344   8.153  17.962  0.00  0.00    +0.000 A 
ATOM     23  C   UNL     1       1.575   8.783  18.968  0.00  0.00    +0.000 A 
ATOM     24  C   UNL     1       1.517   8.160  20.231  0.00  0.00    +0.000 A 
ATOM     25  C   UNL     1       2.233   6.963  20.458  0.00  0.00    +0.000 A 
BRANCH  23  26
ATOM     26  C   UNL     1       0.887  10.038  18.505  0.00  0.00    +0.000 C 
ATOM     27  O   UNL     1       1.313  11.134  18.847  0.00  0.00    +0.000 OA
BRANCH  26  28
ATOM     28  O   UNL     1      -0.162   9.960  17.675  0.00  0.00    +0.000 OA
ATOM     29  H   UNL     1      -0.855   9.291  17.881  0.00  0.00    +0.000 HD
ENDBRANCH  26  28
ENDBRANCH  23  26
BRANCH  24  30
ATOM     30  C   UNL     1       0.857   8.775  21.402  0.00  0.00    +0.000 C 
ATOM     31  O   UNL     1       1.475   9.494  22.176  0.00  0.00    +0.000 OA
BRANCH  30  32
ATOM     32  O   UNL     1      -0.445   8.493  21.561  0.00  0.00    +0.000 OA
ATOM     33  H   UNL     1      -0.758   7.649  21.184  0.00  0.00    +0.000 HD
ENDBRANCH  30  32
ENDBRANCH  24  30
ENDBRANCH  19  20
ENDBRANCH   1  19
TORSDOF 13
ENDMDL
MODEL 3
REMARK VINA RESULT:      -7.7      4.208      8.455
REMARK  Name = 
REMARK  16 active torsions:
REMARK  status: ('A' for Active; 'I' for Inactive)
REMARK    1  A    between atoms: C_1  and  C_2
REMARK    2  A    between atoms: C_2  and  C_3
REMARK    3  A    between atoms: C_2  and  C_4
REMARK    4  A    between atoms: C_2  and  C_5
REMARK    5  A    between atoms: C_8  and  C_9
REMARK    6  A    between atoms: C_9  and  N_10
REMARK    7  A    between atoms: N_10  and  C_11
REMARK    8  A    between atoms: N_10  and  C_16
REMARK    9  A    between atoms: C_11  and  C_12
REMARK   10  A    between atoms: C_12  and  C_13
REMARK   11  A    between atoms: C_13  and  O_15
REMARK   12  A    between atoms: C_16  and  C_17
REMARK   13  A    between atoms: C_20  and  C_21
REMARK   14  A    between atoms: C_21  and  O_23
REMARK   15  A    between atoms: C_24  and  C_25
REMARK   16  A    between atoms: C_25  and  O_27
REMARK                            x       y       z     vdW  Elec       q    Type
REMARK                         _______ _______ _______ _____ _____    ______ ____
ROOT
ATOM      1  N   UNL     1       7.001   5.653  18.522  0.00  0.00    +0.000 NA
ENDROOT
BRANCH   1   2
ATOM      2  C   UNL     1       7.508   4.547  17.669  0.00  0.00    +0.000 C 
BRANCH   2   6
ATOM      3  C   UNL     1       6.272   3.888  13.563  0.00  0.00    +0.000 A 
ATOM      4  C   UNL     1       7.158   4.931  13.887  0.00  0.00    +0.000 A 
ATOM      5  C   UNL     1       7.509   5.207  15.215  0.00  0.00    +0.000 A 
ATOM      6  C   UNL     1       6.958   4.465  16.262  0.00  0.00    +0.000 A 
ATOM      7  C   UNL     1       5.984   3.508  15.958  0.00  0.00    +0.000 A 
ATOM      8  C   UNL     1       5.641   3.232  14.631  0.00  0.00    +0.000 A 
BRANCH   3  10
ATOM      9  C   UNL     1       6.355   1.981  11.859  0.00  0.00    +0.000 C 
ATOM     10  C   UNL     1       6.016   3.471  12.102  0.00  0.00    +0.000 C 
ATOM     11  C   UNL     1       6.879   4.338  11.170  0.00  0.00    +0.000 C 
ATOM     12  C   UNL     1       4.531   3.638  11.694  0.00  0.00    +0.000 C 
ENDBRANCH   3  10
ENDBRANCH   2   6
ENDBRANCH   1   2
BRANCH   1  13
ATOM     13  C   UNL     1       7.989   6.771  18.517  0.00  0.00    +0.000 C 
BRANCH  13  14
ATOM     14  C   UNL     1       7.513   7.997  17.726  0.00  0.00    +0.000 C 
BRANCH  14  15
ATOM     15  C   UNL     1       8.277   9.244  18.099  0.00  0.00    +0.000 C 
ATOM     16  O   UNL     1       8.197  10.320  17.535  0.00  0.00    +0.000 OA
BRANCH  15  17
ATOM     17  O   UNL     1       9.065   9.049  19.185  0.00  0.00    +0.000 OA
ATOM     18  H   UNL     1       9.726   8.337  19.079  0.00  0.00    +0.000 HD
ENDBRANCH  15  17
ENDBRANCH  14  15
ENDBRANCH  13  14
ENDBRANCH   1  13
BRANCH   1  19
ATOM     19  C   UNL     1       5.712   6.109  17.959  0.00  0.00    +0.000 C 
BRANCH  19  20
ATOM     20  C   UNL     1       4.537   5.206  18.271  0.00  0.00    +0.000 A 
ATOM     21  C   UNL     1       3.325   5.375  17.603  0.00  0.00    +0.000 A 
ATOM     22  C   UNL     1       2.208   4.633  17.984  0.00  0.00    +0.000 A 
ATOM     23  C   UNL     1       2.246   3.707  19.053  0.00  0.00    +0.000 A 
ATOM     24  C   UNL     1       3.479   3.519  19.709  0.00  0.00    +0.000 A 
ATOM     25  C   UNL     1       4.611   4.263  19.306  0.00  0.00    +0.000 A 
BRANCH  23  26
ATOM     26  C   UNL     1       0.932   3.019  19.303  0.00  0.00    +0.000 C 
ATOM     27  O   UNL     1       0.419   2.335  18.426  0.00  0.00    +0.000 OA
BRANCH  26  28
ATOM     28  O   UNL     1       0.346   3.112  20.506  0.00  0.00    +0.000 OA
ATOM     29  H   UNL     1      -0.603   2.859  20.568  0.00  0.00    +0.000 HD
ENDBRANCH  26  28
ENDBRANCH  23  26
BRANCH  24  30
ATOM     30  C   UNL     1       3.628   2.681  20.917  0.00  0.00    +0.000 C 
ATOM     31  O   UNL     1       4.511   1.839  21.003  0.00  0.00    +0.000 OA
BRANCH  30  32
ATOM     32  O   UNL     1       2.738   2.898  21.898  0.00  0.00    +0.000 OA
ATOM     33  H   UNL     1       2.380   2.109  22.346  0.00  0.00    +0.000 HD
ENDBRANCH  30  32
ENDBRANCH  24  30
ENDBRANCH  19  20
ENDBRANCH   1  19
TORSDOF 13
ENDMDL
MODEL 4
REMARK VINA RESULT:      -7.7      3.368      5.207
REMARK  Name = 
REMARK  16 active torsions:
REMARK  status: ('A' for Active; 'I' for Inactive)
REMARK    1  A    between atoms: C_1  and  C_2
REMARK    2  A    between atoms: C_2  and  C_3
REMARK    3  A    between atoms: C_2  and  C_4
REMARK    4  A    between atoms: C_2  and  C_5
REMARK    5  A    between atoms: C_8  and  C_9
REMARK    6  A    between atoms: C_9  and  N_10
REMARK    7  A    between atoms: N_10  and  C_11
REMARK    8  A    between atoms: N_10  and  C_16
REMARK    9  A    between atoms: C_11  and  C_12
REMARK   10  A    between atoms: C_12  and  C_13
REMARK   11  A    between atoms: C_13  and  O_15
REMARK   12  A    between atoms: C_16  and  C_17
REMARK   13  A    between atoms: C_20  and  C_21
REMARK   14  A    between atoms: C_21  and  O_23
REMARK   15  A    between atoms: C_24  and  C_25
REMARK   16  A    between atoms: C_25  and  O_27
REMARK                            x       y       z     vdW  Elec       q    Type
REMARK                         _______ _______ _______ _____ _____    ______ ____
ROOT
ATOM      1  N   UNL     1       1.268   9.560  19.209  0.00  0.00    +0.000 NA
ENDROOT
BRANCH   1   2
ATOM      2  C   UNL     1       0.633  10.791  18.672  0.00  0.00    +0.000 C 
BRANCH   2   6
ATOM      3  C   UNL     1      -3.661  11.391  18.521  0.00  0.00    +0.000 A 
ATOM      4  C   UNL     1      -2.882  12.019  19.511  0.00  0.00    +0.000 A 
ATOM      5  C   UNL     1      -1.507  11.778  19.622  0.00  0.00    +0.000 A 
ATOM      6  C   UNL     1      -0.875  10.875  18.764  0.00  0.00    +0.000 A 
ATOM      7  C   UNL     1      -1.662  10.156  17.858  0.00  0.00    +0.000 A 
ATOM      8  C   UNL     1      -3.033  10.404  17.747  0.00  0.00    +0.000 A 
BRANCH   3  10
ATOM      9  C   UNL     1      -6.097  10.614  18.610  0.00  0.00    +0.000 C 
ATOM     10  C   UNL     1      -5.133  11.780  18.286  0.00  0.00    +0.000 C 
ATOM     11  C   UNL     1      -5.320  12.187  16.814  0.00  0.00    +0.000 C 
ATOM     12  C   UNL     1      -5.581  12.960  19.184  0.00  0.00    +0.000 C 
ENDBRANCH   3  10
ENDBRANCH   2   6
ENDBRANCH   1   2
BRANCH   1  13
ATOM     13  C   UNL     1       0.447   9.036  20.339  0.00  0.00    +0.000 C 
BRANCH  13  14
ATOM     14  C   UNL     1       1.033   9.370  21.718  0.00  0.00    +0.000 C 
BRANCH  14  15
ATOM     15  C   UNL     1      -0.000   9.968  22.642  0.00  0.00    +0.000 C 
ATOM     16  O   UNL     1      -0.171  11.158  22.838  0.00  0.00    +0.000 OA
BRANCH  15  17
ATOM     17  O   UNL     1      -0.769   9.017  23.226  0.00  0.00    +0.000 OA
ATOM     18  H   UNL     1      -1.729   9.186  23.169  0.00  0.00    +0.000 HD
ENDBRANCH  15  17
ENDBRANCH  14  15
ENDBRANCH  13  14
ENDBRANCH   1  13
BRANCH   1  19
ATOM     19  C   UNL     1       1.327   8.564  18.117  0.00  0.00    +0.000 C 
BRANCH  19  20
ATOM     20  C   UNL     1       2.420   7.527  18.273  0.00  0.00    +0.000 A 
ATOM     21  C   UNL     1       2.433   6.682  19.382  0.00  0.00    +0.000 A 
ATOM     22  C   UNL     1       3.510   5.821  19.591  0.00  0.00    +0.000 A 
ATOM     23  C   UNL     1       4.621   5.776  18.717  0.00  0.00    +0.000 A 
ATOM     24  C   UNL     1       4.593   6.612  17.583  0.00  0.00    +0.000 A 
ATOM     25  C   UNL     1       3.490   7.470  17.369  0.00  0.00    +0.000 A 
BRANCH  23  26
ATOM     26  C   UNL     1       5.673   4.784  19.129  0.00  0.00    +0.000 C 
ATOM     27  O   UNL     1       6.707   5.169  19.661  0.00  0.00    +0.000 OA
BRANCH  26  28
ATOM     28  O   UNL     1       5.458   3.471  18.962  0.00  0.00    +0.000 OA
ATOM     29  H   UNL     1       4.717   3.065  19.468  0.00  0.00    +0.000 HD
ENDBRANCH  26  28
ENDBRANCH  23  26
BRANCH  24  30
ATOM     30  C   UNL     1       5.739   6.756  16.662  0.00  0.00    +0.000 C 
ATOM     31  O   UNL     1       5.678   6.366  15.504  0.00  0.00    +0.000 OA
BRANCH  30  32
ATOM     32  O   UNL     1       6.838   7.332  17.174  0.00  0.00    +0.000 OA
ATOM     33  H   UNL     1       7.507   7.641  16.535  0.00  0.00    +0.000 HD
ENDBRANCH  30  32
ENDBRANCH  24  30
ENDBRANCH  19  20
ENDBRANCH   1  19
TORSDOF 13
ENDMDL
MODEL 5
REMARK VINA RESULT:      -7.5      5.091      9.319
REMARK  Name = 
REMARK  16 active torsions:
REMARK  status: ('A' for Active; 'I' for Inactive)
REMARK    1  A    between atoms: C_1  and  C_2
REMARK    2  A    between atoms: C_2  and  C_3
REMARK    3  A    between atoms: C_2  and  C_4
REMARK    4  A    between atoms: C_2  and  C_5
REMARK    5  A    between atoms: C_8  and  C_9
REMARK    6  A    between atoms: C_9  and  N_10
REMARK    7  A    between atoms: N_10  and  C_11
REMARK    8  A    between atoms: N_10  and  C_16
REMARK    9  A    between atoms: C_11  and  C_12
REMARK   10  A    between atoms: C_12  and  C_13
REMARK   11  A    between atoms: C_13  and  O_15
REMARK   12  A    between atoms: C_16  and  C_17
REMARK   13  A    between atoms: C_20  and  C_21
REMARK   14  A    between atoms: C_21  and  O_23
REMARK   15  A    between atoms: C_24  and  C_25
REMARK   16  A    between atoms: C_25  and  O_27
REMARK                            x       y       z     vdW  Elec       q    Type
REMARK                         _______ _______ _______ _____ _____    ______ ____
ROOT
ATOM      1  N   UNL     1       1.171   8.844  19.022  0.00  0.00    +0.000 NA
ENDROOT
BRANCH   1   2
ATOM      2  C   UNL     1       2.382   8.406  18.281  0.00  0.00    +0.000 C 
BRANCH   2   6
ATOM      3  C   UNL     1       2.989   4.145  18.826  0.00  0.00    +0.000 A 
ATOM      4  C   UNL     1       3.989   5.065  19.191  0.00  0.00    +0.000 A 
ATOM      5  C   UNL     1       3.841   6.438  18.953  0.00  0.00    +0.000 A 
ATOM      6  C   UNL     1       2.702   6.927  18.312  0.00  0.00    +0.000 A 
ATOM      7  C   UNL     1       1.759   6.009  17.837  0.00  0.00    +0.000 A 
ATOM      8  C   UNL     1       1.907   4.640  18.082  0.00  0.00    +0.000 A 
BRANCH   3  10
ATOM      9  C   UNL     1       4.245   2.392  20.202  0.00  0.00    +0.000 C 
ATOM     10  C   UNL     1       3.068   2.662  19.236  0.00  0.00    +0.000 C 
ATOM     11  C   UNL     1       3.247   1.797  17.977  0.00  0.00    +0.000 C 
ATOM     12  C   UNL     1       1.794   2.189  19.981  0.00  0.00    +0.000 C 
ENDBRANCH   3  10
ENDBRANCH   2   6
ENDBRANCH   1   2
BRANCH   1  13
ATOM     13  C   UNL     1       1.466   8.856  20.484  0.00  0.00    +0.000 C 
BRANCH  13  14
ATOM     14  C   UNL     1       0.231   8.585  21.354  0.00  0.00    +0.000 C 
BRANCH  14  15
ATOM     15  C   UNL     1       0.039   9.646  22.410  0.00  0.00    +0.000 C 
ATOM     16  O   UNL     1       0.461  10.787  22.354  0.00  0.00    +0.000 OA
BRANCH  15  17
ATOM     17  O   UNL     1      -0.707   9.196  23.450  0.00  0.00    +0.000 OA
ATOM     18  H   UNL     1      -0.514   8.277  23.714  0.00  0.00    +0.000 HD
ENDBRANCH  15  17
ENDBRANCH  14  15
ENDBRANCH  13  14
ENDBRANCH   1  13
BRANCH   1  19
ATOM     19  C   UNL     1       0.821  10.204  18.560  0.00  0.00    +0.000 C 
BRANCH  19  20
ATOM     20  C   UNL     1      -0.667  10.478  18.484  0.00  0.00    +0.000 A 
ATOM     21  C   UNL     1      -1.431   9.919  17.461  0.00  0.00    +0.000 A 
ATOM     22  C   UNL     1      -2.771  10.278  17.314  0.00  0.00    +0.000 A 
ATOM     23  C   UNL     1      -3.398  11.215  18.168  0.00  0.00    +0.000 A 
ATOM     24  C   UNL     1      -2.631  11.757  19.218  0.00  0.00    +0.000 A 
ATOM     25  C   UNL     1      -1.278  11.376  19.370  0.00  0.00    +0.000 A 
BRANCH  23  26
ATOM     26  C   UNL     1      -4.844  11.464  17.834  0.00  0.00    +0.000 C 
ATOM     27  O   UNL     1      -5.714  10.730  18.283  0.00  0.00    +0.000 OA
BRANCH  26  28
ATOM     28  O   UNL     1      -5.185  12.522  17.083  0.00  0.00    +0.000 OA
ATOM     29  H   UNL     1      -4.886  12.528  16.146  0.00  0.00    +0.000 HD
ENDBRANCH  26  28
ENDBRANCH  23  26
BRANCH  24  30
ATOM     30  C   UNL     1      -3.122  12.835  20.101  0.00  0.00    +0.000 C 
ATOM     31  O   UNL     1      -4.020  12.638  20.908  0.00  0.00    +0.000 OA
BRANCH  30  32
ATOM     32  O   UNL     1      -2.531  14.031  19.956  0.00  0.00    +0.000 OA
ATOM     33  H   UNL     1      -2.004  14.163  19.146  0.00  0.00    +0.000 HD
ENDBRANCH  30  32
ENDBRANCH  24  30
ENDBRANCH  19  20
ENDBRANCH   1  19
TORSDOF 13
ENDMDL
MODEL 6
REMARK VINA RESULT:      -7.5      0.975      1.606
REMARK  Name = 
REMARK  16 active torsions:
REMARK  status: ('A' for Active; 'I' for Inactive)
REMARK    1  A    between atoms: C_1  and  C_2
REMARK    2  A    between atoms: C_2  and  C_3
REMARK    3  A    between atoms: C_2  and  C_4
REMARK    4  A    between atoms: C_2  and  C_5
REMARK    5  A    between atoms: C_8  and  C_9
REMARK    6  A    between atoms: C_9  and  N_10
REMARK    7  A    between atoms: N_10  and  C_11
REMARK    8  A    between atoms: N_10  and  C_16
REMARK    9  A    between atoms: C_11  and  C_12
REMARK   10  A    between atoms: C_12  and  C_13
REMARK   11  A    between atoms: C_13  and  O_15
REMARK   12  A    between atoms: C_16  and  C_17
REMARK   13  A    between atoms: C_20  and  C_21
REMARK   14  A    between atoms: C_21  and  O_23
REMARK   15  A    between atoms: C_24  and  C_25
REMARK   16  A    between atoms: C_25  and  O_27
REMARK                            x       y       z     vdW  Elec       q    Type
REMARK                         _______ _______ _______ _____ _____    ______ ____
ROOT
ATOM      1  N   UNL     1       2.394   5.988  20.199  0.00  0.00    +0.000 NA
ENDROOT
BRANCH   1   2
ATOM      2  C   UNL     1       1.333   6.816  20.829  0.00  0.00    +0.000 C 
BRANCH   2   6
ATOM      3  C   UNL     1       0.786  10.983  19.751  0.00  0.00    +0.000 A 
ATOM      4  C   UNL     1       1.369  10.078  18.845  0.00  0.00    +0.000 A 
ATOM      5  C   UNL     1       1.622   8.747  19.203  0.00  0.00    +0.000 A 
ATOM      6  C   UNL     1       1.330   8.291  20.489  0.00  0.00    +0.000 A 
ATOM      7  C   UNL     1       0.865   9.214  21.432  0.00  0.00    +0.000 A 
ATOM      8  C   UNL     1       0.608  10.539  21.070  0.00  0.00    +0.000 A 
BRANCH   3  10
ATOM      9  C   UNL     1       0.089  13.320  20.525  0.00  0.00    +0.000 C 
ATOM     10  C   UNL     1       0.349  12.394  19.314  0.00  0.00    +0.000 C 
ATOM     11  C   UNL     1      -0.939  12.289  18.480  0.00  0.00    +0.000 C 
ATOM     12  C   UNL     1       1.429  13.107  18.462  0.00  0.00    +0.000 C 
ENDBRANCH   3  10
ENDBRANCH   2   6
ENDBRANCH   1   2
BRANCH   1  13
ATOM     13  C   UNL     1       2.394   4.632  20.821  0.00  0.00    +0.000 C 
BRANCH  13  14
ATOM     14  C   UNL     1       1.067   3.883  20.640  0.00  0.00    +0.000 C 
BRANCH  14  15
ATOM     15  C   UNL     1       1.193   2.736  19.667  0.00  0.00    +0.000 C 
ATOM     16  O   UNL     1       0.335   2.375  18.882  0.00  0.00    +0.000 OA
BRANCH  15  17
ATOM     17  O   UNL     1       2.413   2.148  19.732  0.00  0.00    +0.000 OA
ATOM     18  H   UNL     1       2.558   1.451  19.065  0.00  0.00    +0.000 HD
ENDBRANCH  15  17
ENDBRANCH  14  15
ENDBRANCH  13  14
ENDBRANCH   1  13
BRANCH   1  19
ATOM     19  C   UNL     1       2.096   5.887  18.754  0.00  0.00    +0.000 C 
BRANCH  19  20
ATOM     20  C   UNL     1       3.295   5.562  17.888  0.00  0.00    +0.000 A 
ATOM     21  C   UNL     1       3.323   4.386  17.141  0.00  0.00    +0.000 A 
ATOM     22  C   UNL     1       4.480   4.024  16.450  0.00  0.00    +0.000 A 
ATOM     23  C   UNL     1       5.656   4.808  16.486  0.00  0.00    +0.000 A 
ATOM     24  C   UNL     1       5.616   6.011  17.220  0.00  0.00    +0.000 A 
ATOM     25  C   UNL     1       4.435   6.378  17.904  0.00  0.00    +0.000 A 
BRANCH  23  26
ATOM     26  C   UNL     1       6.789   4.236  15.679  0.00  0.00    +0.000 C 
ATOM     27  O   UNL     1       7.945   4.369  16.060  0.00  0.00    +0.000 OA
BRANCH  26  28
ATOM     28  O   UNL     1       6.530   3.534  14.565  0.00  0.00    +0.000 OA
ATOM     29  H   UNL     1       6.410   2.562  14.660  0.00  0.00    +0.000 HD
ENDBRANCH  26  28
ENDBRANCH  23  26
BRANCH  24  30
ATOM     30  C   UNL     1       6.807   6.856  17.445  0.00  0.00    +0.000 C 
ATOM     31  O   UNL     1       6.964   7.909  16.842  0.00  0.00    +0.000 OA
BRANCH  30  32
ATOM     32  O   UNL     1       7.697   6.396  18.339  0.00  0.00    +0.000 OA
ATOM     33  H   UNL     1       8.563   6.116  17.989  0.00  0.00    +0.000 HD
ENDBRANCH  30  32
ENDBRANCH  24  30
ENDBRANCH  19  20
ENDBRANCH   1  19
TORSDOF 13
ENDMDL
MODEL 7
REMARK VINA RESULT:      -7.5      2.061      3.461
REMARK  Name = 
REMARK  16 active torsions:
REMARK  status: ('A' for Active; 'I' for Inactive)
REMARK    1  A    between atoms: C_1  and  C_2
REMARK    2  A    between atoms: C_2  and  C_3
REMARK    3  A    between atoms: C_2  and  C_4
REMARK    4  A    between atoms: C_2  and  C_5
REMARK    5  A    between atoms: C_8  and  C_9
REMARK    6  A    between atoms: C_9  and  N_10
REMARK    7  A    between atoms: N_10  and  C_11
REMARK    8  A    between atoms: N_10  and  C_16
REMARK    9  A    between atoms: C_11  and  C_12
REMARK   10  A    between atoms: C_12  and  C_13
REMARK   11  A    between atoms: C_13  and  O_15
REMARK   12  A    between atoms: C_16  and  C_17
REMARK   13  A    between atoms: C_20  and  C_21
REMARK   14  A    between atoms: C_21  and  O_23
REMARK   15  A    between atoms: C_24  and  C_25
REMARK   16  A    between atoms: C_25  and  O_27
REMARK                            x       y       z     vdW  Elec       q    Type
REMARK                         _______ _______ _______ _____ _____    ______ ____
ROOT
ATOM      1  N   UNL     1       4.065   5.023  18.073  0.00  0.00    +0.000 NA
ENDROOT
BRANCH   1   2
ATOM      2  C   UNL     1       2.639   5.370  18.308  0.00  0.00    +0.000 C 
BRANCH   2   6
ATOM      3  C   UNL     1       1.241   9.365  19.258  0.00  0.00    +0.000 A 
ATOM      4  C   UNL     1       1.718   9.058  17.970  0.00  0.00    +0.000 A 
ATOM      5  C   UNL     1       2.244   7.795  17.667  0.00  0.00    +0.000 A 
ATOM      6  C   UNL     1       2.337   6.812  18.652  0.00  0.00    +0.000 A 
ATOM      7  C   UNL     1       1.979   7.147  19.963  0.00  0.00    +0.000 A 
ATOM      8  C   UNL     1       1.450   8.406  20.260  0.00  0.00    +0.000 A 
BRANCH   3  10
ATOM      9  C   UNL     1       0.176  10.841  21.056  0.00  0.00    +0.000 C 
ATOM     10  C   UNL     1       0.509  10.688  19.553  0.00  0.00    +0.000 C 
ATOM     11  C   UNL     1      -0.800  10.733  18.745  0.00  0.00    +0.000 C 
ATOM     12  C   UNL     1       1.360  11.928  19.181  0.00  0.00    +0.000 C 
ENDBRANCH   3  10
ENDBRANCH   2   6
ENDBRANCH   1   2
BRANCH   1  13
ATOM     13  C   UNL     1       4.640   4.435  19.317  0.00  0.00    +0.000 C 
BRANCH  13  14
ATOM     14  C   UNL     1       3.727   3.389  19.971  0.00  0.00    +0.000 C 
BRANCH  14  15
ATOM     15  C   UNL     1       4.110   1.981  19.584  0.00  0.00    +0.000 C 
ATOM     16  O   UNL     1       3.508   1.273  18.797  0.00  0.00    +0.000 OA
BRANCH  15  17
ATOM     17  O   UNL     1       5.252   1.581  20.195  0.00  0.00    +0.000 OA
ATOM     18  H   UNL     1       6.068   1.815  19.713  0.00  0.00    +0.000 HD
ENDBRANCH  15  17
ENDBRANCH  14  15
ENDBRANCH  13  14
ENDBRANCH   1  13
BRANCH   1  19
ATOM     19  C   UNL     1       4.119   4.039  16.971  0.00  0.00    +0.000 C 
BRANCH  19  20
ATOM     20  C   UNL     1       5.193   4.313  15.938  0.00  0.00    +0.000 A 
ATOM     21  C   UNL     1       6.128   5.325  16.149  0.00  0.00    +0.000 A 
ATOM     22  C   UNL     1       7.031   5.664  15.141  0.00  0.00    +0.000 A 
ATOM     23  C   UNL     1       7.030   5.021  13.881  0.00  0.00    +0.000 A 
ATOM     24  C   UNL     1       6.101   3.980  13.680  0.00  0.00    +0.000 A 
ATOM     25  C   UNL     1       5.201   3.632  14.712  0.00  0.00    +0.000 A 
BRANCH  23  26
ATOM     26  C   UNL     1       8.079   5.541  12.937  0.00  0.00    +0.000 C 
ATOM     27  O   UNL     1       9.153   5.940  13.371  0.00  0.00    +0.000 OA
BRANCH  26  28
ATOM     28  O   UNL     1       7.860   5.521  11.614  0.00  0.00    +0.000 OA
ATOM     29  H   UNL     1       8.023   6.353  11.115  0.00  0.00    +0.000 HD
ENDBRANCH  26  28
ENDBRANCH  23  26
BRANCH  24  30
ATOM     30  C   UNL     1       5.909   3.315  12.375  0.00  0.00    +0.000 C 
ATOM     31  O   UNL     1       6.833   2.752  11.805  0.00  0.00    +0.000 OA
BRANCH  30  32
ATOM     32  O   UNL     1       4.670   3.372  11.861  0.00  0.00    +0.000 OA
ATOM     33  H   UNL     1       3.944   3.538  12.490  0.00  0.00    +0.000 HD
ENDBRANCH  30  32
ENDBRANCH  24  30
ENDBRANCH  19  20
ENDBRANCH   1  19
TORSDOF 13
ENDMDL
MODEL 8
REMARK VINA RESULT:      -7.5      3.264      7.652
REMARK  Name = 
REMARK  16 active torsions:
REMARK  status: ('A' for Active; 'I' for Inactive)
REMARK    1  A    between atoms: C_1  and  C_2
REMARK    2  A    between atoms: C_2  and  C_3
REMARK    3  A    between atoms: C_2  and  C_4
REMARK    4  A    between atoms: C_2  and  C_5
REMARK    5  A    between atoms: C_8  and  C_9
REMARK    6  A    between atoms: C_9  and  N_10
REMARK    7  A    between atoms: N_10  and  C_11
REMARK    8  A    between atoms: N_10  and  C_16
REMARK    9  A    between atoms: C_11  and  C_12
REMARK   10  A    between atoms: C_12  and  C_13
REMARK   11  A    between atoms: C_13  and  O_15
REMARK   12  A    between atoms: C_16  and  C_17
REMARK   13  A    between atoms: C_20  and  C_21
REMARK   14  A    between atoms: C_21  and  O_23
REMARK   15  A    between atoms: C_24  and  C_25
REMARK   16  A    between atoms: C_25  and  O_27
REMARK                            x       y       z     vdW  Elec       q    Type
REMARK                         _______ _______ _______ _____ _____    ______ ____
ROOT
ATOM      1  N   UNL     1       4.158   4.077  18.566  0.00  0.00    +0.000 NA
ENDROOT
BRANCH   1   2
ATOM      2  C   UNL     1       5.548   4.210  18.056  0.00  0.00    +0.000 C 
BRANCH   2   6
ATOM      3  C   UNL     1       5.993   3.998  13.745  0.00  0.00    +0.000 A 
ATOM      4  C   UNL     1       7.110   4.211  14.573  0.00  0.00    +0.000 A 
ATOM      5  C   UNL     1       6.976   4.358  15.960  0.00  0.00    +0.000 A 
ATOM      6  C   UNL     1       5.714   4.328  16.557  0.00  0.00    +0.000 A 
ATOM      7  C   UNL     1       4.589   4.238  15.729  0.00  0.00    +0.000 A 
ATOM      8  C   UNL     1       4.728   4.086  14.347  0.00  0.00    +0.000 A 
BRANCH   3  10
ATOM      9  C   UNL     1       4.832   3.891  11.468  0.00  0.00    +0.000 C 
ATOM     10  C   UNL     1       6.148   3.667  12.249  0.00  0.00    +0.000 C 
ATOM     11  C   UNL     1       6.574   2.196  12.098  0.00  0.00    +0.000 C 
ATOM     12  C   UNL     1       7.208   4.559  11.555  0.00  0.00    +0.000 C 
ENDBRANCH   3  10
ENDBRANCH   2   6
ENDBRANCH   1   2
BRANCH   1  13
ATOM     13  C   UNL     1       3.948   2.687  19.064  0.00  0.00    +0.000 C 
BRANCH  13  14
ATOM     14  C   UNL     1       2.725   1.999  18.442  0.00  0.00    +0.000 C 
BRANCH  14  15
ATOM     15  C   UNL     1       1.471   2.234  19.250  0.00  0.00    +0.000 C 
ATOM     16  O   UNL     1       1.434   2.531  20.430  0.00  0.00    +0.000 OA
BRANCH  15  17
ATOM     17  O   UNL     1       0.352   2.112  18.494  0.00  0.00    +0.000 OA
ATOM     18  H   UNL     1      -0.480   2.145  19.003  0.00  0.00    +0.000 HD
ENDBRANCH  15  17
ENDBRANCH  14  15
ENDBRANCH  13  14
ENDBRANCH   1  13
BRANCH   1  19
ATOM     19  C   UNL     1       3.982   5.047  19.668  0.00  0.00    +0.000 C 
BRANCH  19  20
ATOM     20  C   UNL     1       3.174   6.274  19.301  0.00  0.00    +0.000 A 
ATOM     21  C   UNL     1       3.347   6.883  18.059  0.00  0.00    +0.000 A 
ATOM     22  C   UNL     1       2.702   8.087  17.775  0.00  0.00    +0.000 A 
ATOM     23  C   UNL     1       1.873   8.738  18.717  0.00  0.00    +0.000 A 
ATOM     24  C   UNL     1       1.678   8.107  19.961  0.00  0.00    +0.000 A 
ATOM     25  C   UNL     1       2.323   6.880  20.236  0.00  0.00    +0.000 A 
BRANCH  23  26
ATOM     26  C   UNL     1       1.280  10.025  18.211  0.00  0.00    +0.000 C 
ATOM     27  O   UNL     1       1.976  11.029  18.121  0.00  0.00    +0.000 OA
BRANCH  26  28
ATOM     28  O   UNL     1       0.001  10.061  17.809  0.00  0.00    +0.000 OA
ATOM     29  H   UNL     1      -0.251   9.489  17.049  0.00  0.00    +0.000 HD
ENDBRANCH  26  28
ENDBRANCH  23  26
BRANCH  24  30
ATOM     30  C   UNL     1       0.943   8.738  21.077  0.00  0.00    +0.000 C 
ATOM     31  O   UNL     1      -0.211   9.121  20.943  0.00  0.00    +0.000 OA
BRANCH  30  32
ATOM     32  O   UNL     1       1.617   8.866  22.230  0.00  0.00    +0.000 OA
ATOM     33  H   UNL     1       2.591   8.887  22.167  0.00  0.00    +0.000 HD
ENDBRANCH  30  32
ENDBRANCH  24  30
ENDBRANCH  19  20
ENDBRANCH   1  19
TORSDOF 13
ENDMDL
MODEL 9
REMARK VINA RESULT:      -7.4      5.290      9.444
REMARK  Name = 
REMARK  16 active torsions:
REMARK  status: ('A' for Active; 'I' for Inactive)
REMARK    1  A    between atoms: C_1  and  C_2
REMARK    2  A    between atoms: C_2  and  C_3
REMARK    3  A    between atoms: C_2  and  C_4
REMARK    4  A    between atoms: C_2  and  C_5
REMARK    5  A    between atoms: C_8  and  C_9
REMARK    6  A    between atoms: C_9  and  N_10
REMARK    7  A    between atoms: N_10  and  C_11
REMARK    8  A    between atoms: N_10  and  C_16
REMARK    9  A    between atoms: C_11  and  C_12
REMARK   10  A    between atoms: C_12  and  C_13
REMARK   11  A    between atoms: C_13  and  O_15
REMARK   12  A    between atoms: C_16  and  C_17
REMARK   13  A    between atoms: C_20  and  C_21
REMARK   14  A    between atoms: C_21  and  O_23
REMARK   15  A    between atoms: C_24  and  C_25
REMARK   16  A    between atoms: C_25  and  O_27
REMARK                            x       y       z     vdW  Elec       q    Type
REMARK                         _______ _______ _______ _____ _____    ______ ____
ROOT
ATOM      1  N   UNL     1       0.884   9.026  19.677  0.00  0.00    +0.000 NA
ENDROOT
BRANCH   1   2
ATOM      2  C   UNL     1       2.138   8.430  19.147  0.00  0.00    +0.000 C 
BRANCH   2   6
ATOM      3  C   UNL     1       2.660   4.125  19.003  0.00  0.00    +0.000 A 
ATOM      4  C   UNL     1       3.040   4.932  17.915  0.00  0.00    +0.000 A 
ATOM      5  C   UNL     1       2.810   6.313  17.912  0.00  0.00    +0.000 A 
ATOM      6  C   UNL     1       2.163   6.925  18.987  0.00  0.00    +0.000 A 
ATOM      7  C   UNL     1       1.672   6.115  20.017  0.00  0.00    +0.000 A 
ATOM      8  C   UNL     1       1.909   4.738  20.018  0.00  0.00    +0.000 A 
BRANCH   3  10
ATOM      9  C   UNL     1       3.543   2.094  17.722  0.00  0.00    +0.000 C 
ATOM     10  C   UNL     1       3.061   2.640  19.087  0.00  0.00    +0.000 C 
ATOM     11  C   UNL     1       1.851   1.815  19.556  0.00  0.00    +0.000 C 
ATOM     12  C   UNL     1       4.231   2.401  20.073  0.00  0.00    +0.000 C 
ENDBRANCH   3  10
ENDBRANCH   2   6
ENDBRANCH   1   2
BRANCH   1  13
ATOM     13  C   UNL     1       1.058   9.324  21.129  0.00  0.00    +0.000 C 
BRANCH  13  14
ATOM     14  C   UNL     1      -0.141   8.891  21.983  0.00  0.00    +0.000 C 
BRANCH  14  15
ATOM     15  C   UNL     1      -0.398   9.846  23.124  0.00  0.00    +0.000 C 
ATOM     16  O   UNL     1      -1.271  10.696  23.155  0.00  0.00    +0.000 OA
BRANCH  15  17
ATOM     17  O   UNL     1       0.448   9.634  24.162  0.00  0.00    +0.000 OA
ATOM     18  H   UNL     1       0.815   8.731  24.202  0.00  0.00    +0.000 HD
ENDBRANCH  15  17
ENDBRANCH  14  15
ENDBRANCH  13  14
ENDBRANCH   1  13
BRANCH   1  19
ATOM     19  C   UNL     1       0.619  10.272  18.927  0.00  0.00    +0.000 C 
BRANCH  19  20
ATOM     20  C   UNL     1      -0.848  10.558  18.685  0.00  0.00    +0.000 A 
ATOM     21  C   UNL     1      -1.483  10.054  17.550  0.00  0.00    +0.000 A 
ATOM     22  C   UNL     1      -2.795  10.428  17.260  0.00  0.00    +0.000 A 
ATOM     23  C   UNL     1      -3.521  11.326  18.076  0.00  0.00    +0.000 A 
ATOM     24  C   UNL     1      -2.887  11.812  19.236  0.00  0.00    +0.000 A 
ATOM     25  C   UNL     1      -1.563  11.416  19.532  0.00  0.00    +0.000 A 
BRANCH  23  26
ATOM     26  C   UNL     1      -4.915  11.599  17.580  0.00  0.00    +0.000 C 
ATOM     27  O   UNL     1      -5.844  10.884  17.932  0.00  0.00    +0.000 OA
BRANCH  26  28
ATOM     28  O   UNL     1      -5.150  12.659  16.793  0.00  0.00    +0.000 OA
ATOM     29  H   UNL     1      -4.857  13.540  17.119  0.00  0.00    +0.000 HD
ENDBRANCH  26  28
ENDBRANCH  23  26
BRANCH  24  30
ATOM     30  C   UNL     1      -3.482  12.850  20.103  0.00  0.00    +0.000 C 
ATOM     31  O   UNL     1      -4.390  12.586  20.880  0.00  0.00    +0.000 OA
BRANCH  30  32
ATOM     32  O   UNL     1      -2.971  14.085  19.982  0.00  0.00    +0.000 OA
ATOM     33  H   UNL     1      -2.182  14.286  20.520  0.00  0.00    +0.000 HD
ENDBRANCH  30  32
ENDBRANCH  24  30
ENDBRANCH  19  20
ENDBRANCH   1  19
TORSDOF 13
ENDMDL
