MODEL 1
REMARK VINA RESULT:      -7.4      0.000      0.000
REMARK  Name = 
REMARK  5 active torsions:
REMARK  status: ('A' for Active; 'I' for Inactive)
REMARK    1  A    between atoms: C_1  and  C_2
REMARK    2  A    between atoms: C_3  and  N_4
REMARK    3  A    between atoms: C_10  and  C_11
REMARK    4  A    between atoms: C_10  and  O_12
REMARK    5  A    between atoms: C_16  and  C_17
REMARK                            x       y       z     vdW  Elec       q    Type
REMARK                         _______ _______ _______ _____ _____    ______ ____
ROOT
ATOM      1  N   UNL     1       3.646   3.911  18.233  0.00  0.00    +0.000 N 
ATOM      2  C   UNL     1       2.352   3.455  17.671  0.00  0.00    +0.000 C 
ATOM      3  C   UNL     1       2.426   1.918  17.664  0.00  0.00    +0.000 C 
ATOM      4  C   UNL     1       3.514   1.574  18.669  0.00  0.00    +0.000 C 
ATOM      5  C   UNL     1       3.910   2.918  19.294  0.00  0.00    +0.000 C 
ATOM      6  C   UNL     1       2.983   3.232  20.487  0.00  0.00    +0.000 C 
ATOM      7  C   UNL     1       1.577   3.776  20.119  0.00  0.00    +0.000 C 
ATOM      8  C   UNL     1       1.349   5.123  20.829  0.00  0.00    +0.000 C 
ATOM      9  C   UNL     1       1.256   3.945  18.616  0.00  0.00    +0.000 C 
ENDROOT
BRANCH   1  12
ATOM     10  C   UNL     1       5.713   5.880  18.984  0.00  0.00    +0.000 C 
ATOM     11  C   UNL     1       5.683   5.172  17.648  0.00  0.00    +0.000 A 
ATOM     12  C   UNL     1       4.691   4.204  17.344  0.00  0.00    +0.000 A 
ATOM     13  C   UNL     1       4.750   3.610  16.065  0.00  0.00    +0.000 A 
ATOM     14  C   UNL     1       5.687   3.984  15.101  0.00  0.00    +0.000 A 
ATOM     15  C   UNL     1       6.610   4.983  15.376  0.00  0.00    +0.000 A 
ATOM     16  C   UNL     1       6.619   5.569  16.649  0.00  0.00    +0.000 A 
ATOM     17 CL   UNL     1       7.774   6.832  16.980  0.00  0.00    +0.000 Cl
BRANCH  15  18
ATOM     18  C   UNL     1       7.489   5.391  14.318  0.00  0.00    +0.000 C 
ATOM     19  N   UNL     1       8.187   5.668  13.431  0.00  0.00    +0.000 NA
ENDBRANCH  15  18
ENDBRANCH   1  12
BRANCH   7  20
ATOM     20  O   UNL     1       0.598   2.860  20.645  0.00  0.00    +0.000 OA
ATOM     21  H   UNL     1      -0.183   3.375  20.917  0.00  0.00    +0.000 HD
ENDBRANCH   7  20
TORSDOF 3
ENDMDL
MODEL 2
REMARK VINA RESULT:      -7.1      0.836      1.495
REMARK  Name = 
REMARK  5 active torsions:
REMARK  status: ('A' for Active; 'I' for Inactive)
REMARK    1  A    between atoms: C_1  and  C_2
REMARK    2  A    between atoms: C_3  and  N_4
REMARK    3  A    between atoms: C_10  and  C_11
REMARK    4  A    between atoms: C_10  and  O_12
REMARK    5  A    between atoms: C_16  and  C_17
REMARK                            x       y       z     vdW  Elec       q    Type
REMARK                         _______ _______ _______ _____ _____    ______ ____
ROOT
ATOM      1  N   UNL     1       3.618   3.783  18.446  0.00  0.00    +0.000 N 
ATOM      2  C   UNL     1       2.740   4.890  18.893  0.00  0.00    +0.000 C 
ATOM      3  C   UNL     1       1.555   4.897  17.912  0.00  0.00    +0.000 C 
ATOM      4  C   UNL     1       1.555   3.511  17.288  0.00  0.00    +0.000 C 
ATOM      5  C   UNL     1       2.651   2.743  18.038  0.00  0.00    +0.000 C 
ATOM      6  C   UNL     1       2.062   2.108  19.314  0.00  0.00    +0.000 C 
ATOM      7  C   UNL     1       1.865   3.072  20.514  0.00  0.00    +0.000 C 
ATOM      8  C   UNL     1       2.610   2.518  21.743  0.00  0.00    +0.000 C 
ATOM      9  C   UNL     1       2.275   4.549  20.309  0.00  0.00    +0.000 C 
ENDROOT
BRANCH   1  12
ATOM     10  C   UNL     1       5.733   5.682  19.244  0.00  0.00    +0.000 C 
ATOM     11  C   UNL     1       5.679   5.016  17.886  0.00  0.00    +0.000 A 
ATOM     12  C   UNL     1       4.664   4.080  17.559  0.00  0.00    +0.000 A 
ATOM     13  C   UNL     1       4.701   3.525  16.262  0.00  0.00    +0.000 A 
ATOM     14  C   UNL     1       5.640   3.908  15.304  0.00  0.00    +0.000 A 
ATOM     15  C   UNL     1       6.587   4.878  15.603  0.00  0.00    +0.000 A 
ATOM     16  C   UNL     1       6.617   5.423  16.894  0.00  0.00    +0.000 A 
ATOM     17 CL   UNL     1       7.802   6.649  17.256  0.00  0.00    +0.000 Cl
BRANCH  15  18
ATOM     18  C   UNL     1       7.468   5.298  14.552  0.00  0.00    +0.000 C 
ATOM     19  N   UNL     1       8.144   5.611  13.660  0.00  0.00    +0.000 NA
ENDBRANCH  15  18
ENDBRANCH   1  12
BRANCH   7  20
ATOM     20  O   UNL     1       0.465   3.080  20.849  0.00  0.00    +0.000 OA
ATOM     21  H   UNL     1       0.353   2.616  21.698  0.00  0.00    +0.000 HD
ENDBRANCH   7  20
TORSDOF 3
ENDMDL
MODEL 3
REMARK VINA RESULT:      -7.0      3.714      6.156
REMARK  Name = 
REMARK  5 active torsions:
REMARK  status: ('A' for Active; 'I' for Inactive)
REMARK    1  A    between atoms: C_1  and  C_2
REMARK    2  A    between atoms: C_3  and  N_4
REMARK    3  A    between atoms: C_10  and  C_11
REMARK    4  A    between atoms: C_10  and  O_12
REMARK    5  A    between atoms: C_16  and  C_17
REMARK                            x       y       z     vdW  Elec       q    Type
REMARK                         _______ _______ _______ _____ _____    ______ ____
ROOT
ATOM      1  N   UNL     1       2.651   5.561  19.004  0.00  0.00    +0.000 N 
ATOM      2  C   UNL     1       3.434   4.745  19.961  0.00  0.00    +0.000 C 
ATOM      3  C   UNL     1       2.441   3.721  20.537  0.00  0.00    +0.000 C 
ATOM      4  C   UNL     1       1.304   3.669  19.530  0.00  0.00    +0.000 C 
ATOM      5  C   UNL     1       1.765   4.562  18.370  0.00  0.00    +0.000 C 
ATOM      6  C   UNL     1       2.608   3.734  17.379  0.00  0.00    +0.000 C 
ATOM      7  C   UNL     1       4.076   3.466  17.805  0.00  0.00    +0.000 C 
ATOM      8  C   UNL     1       5.028   3.966  16.703  0.00  0.00    +0.000 C 
ATOM      9  C   UNL     1       4.535   4.050  19.161  0.00  0.00    +0.000 C 
ENDROOT
BRANCH   1  12
ATOM     10  C   UNL     1       2.688   7.981  17.313  0.00  0.00    +0.000 C 
ATOM     11  C   UNL     1       2.093   7.944  18.703  0.00  0.00    +0.000 A 
ATOM     12  C   UNL     1       2.063   6.748  19.466  0.00  0.00    +0.000 A 
ATOM     13  C   UNL     1       1.493   6.827  20.755  0.00  0.00    +0.000 A 
ATOM     14  C   UNL     1       1.032   8.023  21.305  0.00  0.00    +0.000 A 
ATOM     15  C   UNL     1       1.130   9.206  20.585  0.00  0.00    +0.000 A 
ATOM     16  C   UNL     1       1.647   9.168  19.282  0.00  0.00    +0.000 A 
ATOM     17 CL   UNL     1       1.777  10.660  18.391  0.00  0.00    +0.000 Cl
BRANCH  15  18
ATOM     18  C   UNL     1       0.725  10.419  21.233  0.00  0.00    +0.000 C 
ATOM     19  N   UNL     1       0.428  11.384  21.810  0.00  0.00    +0.000 NA
ENDBRANCH  15  18
ENDBRANCH   1  12
BRANCH   7  20
ATOM     20  O   UNL     1       4.257   2.040  17.891  0.00  0.00    +0.000 OA
ATOM     21  H   UNL     1       5.192   1.842  17.704  0.00  0.00    +0.000 HD
ENDBRANCH   7  20
TORSDOF 3
ENDMDL
MODEL 4
REMARK VINA RESULT:      -6.9      3.877      5.477
REMARK  Name = 
REMARK  5 active torsions:
REMARK  status: ('A' for Active; 'I' for Inactive)
REMARK    1  A    between atoms: C_1  and  C_2
REMARK    2  A    between atoms: C_3  and  N_4
REMARK    3  A    between atoms: C_10  and  C_11
REMARK    4  A    between atoms: C_10  and  O_12
REMARK    5  A    between atoms: C_16  and  C_17
REMARK                            x       y       z     vdW  Elec       q    Type
REMARK                         _______ _______ _______ _____ _____    ______ ____
ROOT
ATOM      1  N   UNL     1       2.956   5.317  18.667  0.00  0.00    +0.000 N 
ATOM      2  C   UNL     1       3.352   4.813  17.330  0.00  0.00    +0.000 C 
ATOM      3  C   UNL     1       4.885   4.939  17.282  0.00  0.00    +0.000 C 
ATOM      4  C   UNL     1       5.317   5.021  18.737  0.00  0.00    +0.000 C 
ATOM      5  C   UNL     1       4.030   4.803  19.542  0.00  0.00    +0.000 C 
ATOM      6  C   UNL     1       3.796   3.293  19.753  0.00  0.00    +0.000 C 
ATOM      7  C   UNL     1       3.208   2.528  18.537  0.00  0.00    +0.000 C 
ATOM      8  C   UNL     1       1.916   1.807  18.963  0.00  0.00    +0.000 C 
ATOM      9  C   UNL     1       2.921   3.349  17.258  0.00  0.00    +0.000 C 
ENDROOT
BRANCH   1  12
ATOM     10  C   UNL     1       1.553   6.263  21.086  0.00  0.00    +0.000 C 
ATOM     11  C   UNL     1       1.900   7.160  19.919  0.00  0.00    +0.000 A 
ATOM     12  C   UNL     1       2.609   6.671  18.792  0.00  0.00    +0.000 A 
ATOM     13  C   UNL     1       2.874   7.591  17.755  0.00  0.00    +0.000 A 
ATOM     14  C   UNL     1       2.416   8.908  17.780  0.00  0.00    +0.000 A 
ATOM     15  C   UNL     1       1.659   9.364  18.850  0.00  0.00    +0.000 A 
ATOM     16  C   UNL     1       1.411   8.499  19.925  0.00  0.00    +0.000 A 
ATOM     17 CL   UNL     1       0.449   9.077  21.259  0.00  0.00    +0.000 Cl
BRANCH  15  18
ATOM     18  C   UNL     1       1.137  10.699  18.781  0.00  0.00    +0.000 C 
ATOM     19  N   UNL     1       0.669  11.762  18.762  0.00  0.00    +0.000 NA
ENDBRANCH  15  18
ENDBRANCH   1  12
BRANCH   7  20
ATOM     20  O   UNL     1       4.149   1.504  18.163  0.00  0.00    +0.000 OA
ATOM     21  H   UNL     1       4.945   1.608  18.715  0.00  0.00    +0.000 HD
ENDBRANCH   7  20
TORSDOF 3
ENDMDL
MODEL 5
REMARK VINA RESULT:      -6.6      4.155      6.751
REMARK  Name = 
REMARK  5 active torsions:
REMARK  status: ('A' for Active; 'I' for Inactive)
REMARK    1  A    between atoms: C_1  and  C_2
REMARK    2  A    between atoms: C_3  and  N_4
REMARK    3  A    between atoms: C_10  and  C_11
REMARK    4  A    between atoms: C_10  and  O_12
REMARK    5  A    between atoms: C_16  and  C_17
REMARK                            x       y       z     vdW  Elec       q    Type
REMARK                         _______ _______ _______ _____ _____    ______ ____
ROOT
ATOM      1  N   UNL     1       3.128   6.448  19.039  0.00  0.00    +0.000 N 
ATOM      2  C   UNL     1       3.638   5.353  19.897  0.00  0.00    +0.000 C 
ATOM      3  C   UNL     1       2.730   4.146  19.606  0.00  0.00    +0.000 C 
ATOM      4  C   UNL     1       2.093   4.450  18.260  0.00  0.00    +0.000 C 
ATOM      5  C   UNL     1       2.768   5.746  17.790  0.00  0.00    +0.000 C 
ATOM      6  C   UNL     1       4.072   5.410  17.036  0.00  0.00    +0.000 C 
ATOM      7  C   UNL     1       5.290   5.055  17.928  0.00  0.00    +0.000 C 
ATOM      8  C   UNL     1       6.466   5.987  17.582  0.00  0.00    +0.000 C 
ATOM      9  C   UNL     1       5.075   5.075  19.459  0.00  0.00    +0.000 C 
ENDROOT
BRANCH   1  12
ATOM     10  C   UNL     1       2.382   8.895  17.565  0.00  0.00    +0.000 C 
ATOM     11  C   UNL     1       1.824   8.539  18.925  0.00  0.00    +0.000 A 
ATOM     12  C   UNL     1       2.182   7.333  19.581  0.00  0.00    +0.000 A 
ATOM     13  C   UNL     1       1.611   7.102  20.851  0.00  0.00    +0.000 A 
ATOM     14  C   UNL     1       0.782   8.028  21.485  0.00  0.00    +0.000 A 
ATOM     15  C   UNL     1       0.492   9.240  20.873  0.00  0.00    +0.000 A 
ATOM     16  C   UNL     1       1.000   9.492  19.591  0.00  0.00    +0.000 A 
ATOM     17 CL   UNL     1       0.640  11.022  18.836  0.00  0.00    +0.000 Cl
BRANCH  15  18
ATOM     18  C   UNL     1      -0.289  10.191  21.609  0.00  0.00    +0.000 C 
ATOM     19  N   UNL     1      -0.870  10.989  22.223  0.00  0.00    +0.000 NA
ENDBRANCH  15  18
ENDBRANCH   1  12
BRANCH   7  20
ATOM     20  O   UNL     1       5.709   3.719  17.591  0.00  0.00    +0.000 OA
ATOM     21  H   UNL     1       6.441   3.471  18.185  0.00  0.00    +0.000 HD
ENDBRANCH   7  20
TORSDOF 3
ENDMDL
MODEL 6
REMARK VINA RESULT:      -6.6      3.413      6.518
REMARK  Name = 
REMARK  5 active torsions:
REMARK  status: ('A' for Active; 'I' for Inactive)
REMARK    1  A    between atoms: C_1  and  C_2
REMARK    2  A    between atoms: C_3  and  N_4
REMARK    3  A    between atoms: C_10  and  C_11
REMARK    4  A    between atoms: C_10  and  O_12
REMARK    5  A    between atoms: C_16  and  C_17
REMARK                            x       y       z     vdW  Elec       q    Type
REMARK                         _______ _______ _______ _____ _____    ______ ____
ROOT
ATOM      1  N   UNL     1       5.182   4.208  17.165  0.00  0.00    +0.000 N 
ATOM      2  C   UNL     1       4.891   5.570  16.656  0.00  0.00    +0.000 C 
ATOM      3  C   UNL     1       5.791   6.514  17.471  0.00  0.00    +0.000 C 
ATOM      4  C   UNL     1       6.891   5.624  18.028  0.00  0.00    +0.000 C 
ATOM      5  C   UNL     1       6.641   4.249  17.395  0.00  0.00    +0.000 C 
ATOM      6  C   UNL     1       7.345   4.170  16.025  0.00  0.00    +0.000 C 
ATOM      7  C   UNL     1       6.617   4.881  14.854  0.00  0.00    +0.000 C 
ATOM      8  C   UNL     1       6.383   3.876  13.711  0.00  0.00    +0.000 C 
ATOM      9  C   UNL     1       5.279   5.586  15.178  0.00  0.00    +0.000 C 
ENDROOT
BRANCH   1  12
ATOM     10  C   UNL     1       2.399   3.400  16.600  0.00  0.00    +0.000 C 
ATOM     11  C   UNL     1       3.023   3.335  17.977  0.00  0.00    +0.000 A 
ATOM     12  C   UNL     1       4.377   3.698  18.195  0.00  0.00    +0.000 A 
ATOM     13  C   UNL     1       4.856   3.608  19.520  0.00  0.00    +0.000 A 
ATOM     14  C   UNL     1       4.043   3.245  20.594  0.00  0.00    +0.000 A 
ATOM     15  C   UNL     1       2.700   2.961  20.388  0.00  0.00    +0.000 A 
ATOM     16  C   UNL     1       2.191   2.992  19.083  0.00  0.00    +0.000 A 
ATOM     17 CL   UNL     1       0.501   2.646  18.836  0.00  0.00    +0.000 Cl
BRANCH  15  18
ATOM     18  C   UNL     1       1.891   2.684  21.539  0.00  0.00    +0.000 C 
ATOM     19  N   UNL     1       1.202   2.419  22.437  0.00  0.00    +0.000 NA
ENDBRANCH  15  18
ENDBRANCH   1  12
BRANCH   7  20
ATOM     20  O   UNL     1       7.498   5.895  14.338  0.00  0.00    +0.000 OA
ATOM     21  H   UNL     1       7.482   5.845  13.365  0.00  0.00    +0.000 HD
ENDBRANCH   7  20
TORSDOF 3
ENDMDL
MODEL 7
REMARK VINA RESULT:      -6.6      4.315      5.801
REMARK  Name = 
REMARK  5 active torsions:
REMARK  status: ('A' for Active; 'I' for Inactive)
REMARK    1  A    between atoms: C_1  and  C_2
REMARK    2  A    between atoms: C_3  and  N_4
REMARK    3  A    between atoms: C_10  and  C_11
REMARK    4  A    between atoms: C_10  and  O_12
REMARK    5  A    between atoms: C_16  and  C_17
REMARK                            x       y       z     vdW  Elec       q    Type
REMARK                         _______ _______ _______ _____ _____    ______ ____
ROOT
ATOM      1  N   UNL     1       2.275   6.052  19.114  0.00  0.00    +0.000 N 
ATOM      2  C   UNL     1       2.303   5.322  17.825  0.00  0.00    +0.000 C 
ATOM      3  C   UNL     1       3.784   5.271  17.413  0.00  0.00    +0.000 C 
ATOM      4  C   UNL     1       4.557   5.513  18.700  0.00  0.00    +0.000 C 
ATOM      5  C   UNL     1       3.487   5.555  19.799  0.00  0.00    +0.000 C 
ATOM      6  C   UNL     1       3.200   4.125  20.302  0.00  0.00    +0.000 C 
ATOM      7  C   UNL     1       2.285   3.263  19.393  0.00  0.00    +0.000 C 
ATOM      8  C   UNL     1       1.083   2.756  20.211  0.00  0.00    +0.000 C 
ATOM      9  C   UNL     1       1.762   3.918  18.094  0.00  0.00    +0.000 C 
ENDROOT
BRANCH   1  12
ATOM     10  C   UNL     1       1.081   7.408  21.449  0.00  0.00    +0.000 C 
ATOM     11  C   UNL     1       1.461   8.125  20.173  0.00  0.00    +0.000 A 
ATOM     12  C   UNL     1       2.068   7.440  19.089  0.00  0.00    +0.000 A 
ATOM     13  C   UNL     1       2.374   8.203  17.942  0.00  0.00    +0.000 A 
ATOM     14  C   UNL     1       2.048   9.554  17.825  0.00  0.00    +0.000 A 
ATOM     15  C   UNL     1       1.388  10.205  18.858  0.00  0.00    +0.000 A 
ATOM     16  C   UNL     1       1.105   9.499  20.036  0.00  0.00    +0.000 A 
ATOM     17 CL   UNL     1       0.266  10.321  21.323  0.00  0.00    +0.000 Cl
BRANCH  15  18
ATOM     18  C   UNL     1       0.996  11.568  18.648  0.00  0.00    +0.000 C 
ATOM     19  N   UNL     1       0.683  12.682  18.539  0.00  0.00    +0.000 NA
ENDBRANCH  15  18
ENDBRANCH   1  12
BRANCH   7  20
ATOM     20  O   UNL     1       3.032   2.100  18.992  0.00  0.00    +0.000 OA
ATOM     21  H   UNL     1       3.513   2.315  18.173  0.00  0.00    +0.000 HD
ENDBRANCH   7  20
TORSDOF 3
ENDMDL
MODEL 8
REMARK VINA RESULT:      -6.5      3.272      6.331
REMARK  Name = 
REMARK  5 active torsions:
REMARK  status: ('A' for Active; 'I' for Inactive)
REMARK    1  A    between atoms: C_1  and  C_2
REMARK    2  A    between atoms: C_3  and  N_4
REMARK    3  A    between atoms: C_10  and  C_11
REMARK    4  A    between atoms: C_10  and  O_12
REMARK    5  A    between atoms: C_16  and  C_17
REMARK                            x       y       z     vdW  Elec       q    Type
REMARK                         _______ _______ _______ _____ _____    ______ ____
ROOT
ATOM      1  N   UNL     1       5.036   4.458  17.043  0.00  0.00    +0.000 N 
ATOM      2  C   UNL     1       5.064   5.869  16.593  0.00  0.00    +0.000 C 
ATOM      3  C   UNL     1       6.150   6.550  17.444  0.00  0.00    +0.000 C 
ATOM      4  C   UNL     1       7.016   5.412  17.958  0.00  0.00    +0.000 C 
ATOM      5  C   UNL     1       6.465   4.157  17.269  0.00  0.00    +0.000 C 
ATOM      6  C   UNL     1       7.140   3.978  15.894  0.00  0.00    +0.000 C 
ATOM      7  C   UNL     1       6.599   4.885  14.757  0.00  0.00    +0.000 C 
ATOM      8  C   UNL     1       6.150   4.008  13.573  0.00  0.00    +0.000 C 
ATOM      9  C   UNL     1       5.454   5.860  15.115  0.00  0.00    +0.000 C 
ENDROOT
BRANCH   1  12
ATOM     10  C   UNL     1       3.145   6.460  18.107  0.00  0.00    +0.000 C 
ATOM     11  C   UNL     1       3.232   5.040  18.621  0.00  0.00    +0.000 A 
ATOM     12  C   UNL     1       4.130   4.100  18.054  0.00  0.00    +0.000 A 
ATOM     13  C   UNL     1       4.137   2.804  18.615  0.00  0.00    +0.000 A 
ATOM     14  C   UNL     1       3.356   2.455  19.716  0.00  0.00    +0.000 A 
ATOM     15  C   UNL     1       2.532   3.398  20.315  0.00  0.00    +0.000 A 
ATOM     16  C   UNL     1       2.458   4.684  19.764  0.00  0.00    +0.000 A 
ATOM     17 CL   UNL     1       1.430   5.864  20.530  0.00  0.00    +0.000 Cl
BRANCH  15  18
ATOM     18  C   UNL     1       1.822   3.009  21.499  0.00  0.00    +0.000 C 
ATOM     19  N   UNL     1       1.252   2.635  22.441  0.00  0.00    +0.000 NA
ENDBRANCH  15  18
ENDBRANCH   1  12
BRANCH   7  20
ATOM     20  O   UNL     1       7.691   5.694  14.280  0.00  0.00    +0.000 OA
ATOM     21  H   UNL     1       7.320   6.512  13.903  0.00  0.00    +0.000 HD
ENDBRANCH   7  20
TORSDOF 3
ENDMDL
MODEL 9
REMARK VINA RESULT:      -6.5      3.733      6.511
REMARK  Name = 
REMARK  5 active torsions:
REMARK  status: ('A' for Active; 'I' for Inactive)
REMARK    1  A    between atoms: C_1  and  C_2
REMARK    2  A    between atoms: C_3  and  N_4
REMARK    3  A    between atoms: C_10  and  C_11
REMARK    4  A    between atoms: C_10  and  O_12
REMARK    5  A    between atoms: C_16  and  C_17
REMARK                            x       y       z     vdW  Elec       q    Type
REMARK                         _______ _______ _______ _____ _____    ______ ____
ROOT
ATOM      1  N   UNL     1       3.871   5.999  18.644  0.00  0.00    +0.000 N 
ATOM      2  C   UNL     1       4.650   4.982  19.389  0.00  0.00    +0.000 C 
ATOM      3  C   UNL     1       3.975   3.635  19.074  0.00  0.00    +0.000 C 
ATOM      4  C   UNL     1       3.189   3.881  17.797  0.00  0.00    +0.000 C 
ATOM      5  C   UNL     1       3.560   5.309  17.375  0.00  0.00    +0.000 C 
ATOM      6  C   UNL     1       4.841   5.282  16.517  0.00  0.00    +0.000 C 
ATOM      7  C   UNL     1       6.171   5.129  17.301  0.00  0.00    +0.000 C 
ATOM      8  C   UNL     1       7.113   6.294  16.944  0.00  0.00    +0.000 C 
ATOM      9  C   UNL     1       6.076   5.020  18.840  0.00  0.00    +0.000 C 
ENDROOT
BRANCH   1  12
ATOM     10  C   UNL     1       2.883   8.600  17.657  0.00  0.00    +0.000 C 
ATOM     11  C   UNL     1       2.337   7.914  18.890  0.00  0.00    +0.000 A 
ATOM     12  C   UNL     1       2.816   6.645  19.306  0.00  0.00    +0.000 A 
ATOM     13  C   UNL     1       2.244   6.099  20.475  0.00  0.00    +0.000 A 
ATOM     14  C   UNL     1       1.298   6.780  21.242  0.00  0.00    +0.000 A 
ATOM     15  C   UNL     1       0.885   8.052  20.872  0.00  0.00    +0.000 A 
ATOM     16  C   UNL     1       1.391   8.615  19.693  0.00  0.00    +0.000 A 
ATOM     17 CL   UNL     1       0.875  10.219  19.244  0.00  0.00    +0.000 Cl
BRANCH  15  18
ATOM     18  C   UNL     1      -0.020   8.741  21.746  0.00  0.00    +0.000 C 
ATOM     19  N   UNL     1      -0.704   9.326  22.482  0.00  0.00    +0.000 NA
ENDBRANCH  15  18
ENDBRANCH   1  12
BRANCH   7  20
ATOM     20  O   UNL     1       6.815   3.924  16.845  0.00  0.00    +0.000 OA
ATOM     21  H   UNL     1       6.687   3.237  17.523  0.00  0.00    +0.000 HD
ENDBRANCH   7  20
TORSDOF 3
ENDMDL
