MODEL 1
REMARK VINA RESULT:      -9.3      0.000      0.000
REMARK  Name = 
REMARK  6 active torsions:
REMARK  status: ('A' for Active; 'I' for Inactive)
REMARK    1  A    between atoms: C_1  and  C_2
REMARK    2  A    between atoms: N_4  and  C_5
REMARK    3  A    between atoms: C_9  and  S_10
REMARK    4  A    between atoms: S_10  and  O_13
REMARK    5  A    between atoms: C_17  and  N_18
REMARK    6  A    between atoms: N_19  and  C_20
REMARK                            x       y       z     vdW  Elec       q    Type
REMARK                         _______ _______ _______ _____ _____    ______ ____
ROOT
ATOM      1  N   UNL     1       2.368   6.041  19.242  0.00  0.00    +0.000 NA
ATOM      2  N   UNL     1       2.637   6.872  18.375  0.00  0.00    +0.000 NA
ENDROOT
BRANCH   2   3
ATOM      3  C   UNL     1       2.042   8.185  18.559  0.00  0.00    +0.000 A 
ATOM      4  N   UNL     1       2.287   9.013  17.493  0.00  0.00    +0.000 NA
ATOM      5  N   UNL     1       1.614  10.103  17.844  0.00  0.00    +0.000 N 
ATOM      6  C   UNL     1       0.698   9.774  18.766  0.00  0.00    +0.000 A 
ATOM      7  N   UNL     1      -0.390  10.453  19.061  0.00  0.00    +0.000 NA
ATOM      8  C   UNL     1      -0.018  11.342  19.901  0.00  0.00    +0.000 A 
ATOM      9  C   UNL     1       0.303  12.471  19.143  0.00  0.00    +0.000 A 
ATOM     10  C   UNL     1       0.581  13.722  19.533  0.00  0.00    +0.000 A 
ATOM     11  C   UNL     1       1.398  14.422  18.633  0.00  0.00    +0.000 A 
ATOM     12  C   UNL     1       1.616  15.755  18.750  0.00  0.00    +0.000 A 
ATOM     13  C   UNL     1       0.448  16.393  18.858  0.00  0.00    +0.000 A 
ATOM     14  C   UNL     1      -0.370  15.753  19.920  0.00  0.00    +0.000 A 
ATOM     15  C   UNL     1      -0.241  14.175  20.484  0.00  0.00    +0.000 A 
ATOM     16  C   UNL     1      -0.489  12.716  21.414  0.00  0.00    +0.000 A 
ATOM     17  C   UNL     1       0.070  11.072  21.160  0.00  0.00    +0.000 A 
ATOM     18  C   UNL     1       0.620   9.371  20.940  0.00  0.00    +0.000 A 
ATOM     19  C   UNL     1       1.316   8.936  19.640  0.00  0.00    +0.000 A 
ATOM     20  H   UNL     1       1.633  10.985  17.345  0.00  0.00    +0.000 HD
ENDBRANCH   2   3
BRANCH   1  27
ATOM     21  C   UNL     1       1.221   3.017  18.313  0.00  0.00    +0.000 C 
ATOM     22  C   UNL     1       2.497   3.793  18.131  0.00  0.00    +0.000 C 
ATOM     23  N   UNL     1       3.227   3.669  17.061  0.00  0.00    +0.000 NA
ATOM     24  N   UNL     1       4.386   4.364  17.305  0.00  0.00    +0.000 N 
ATOM     25  C   UNL     1       4.460   4.922  18.597  0.00  0.00    +0.000 C 
ATOM     26  O   UNL     1       5.408   5.481  19.131  0.00  0.00    +0.000 OA
ATOM     27  C   UNL     1       3.069   4.709  19.198  0.00  0.00    +0.000 C 
BRANCH  24  28
ATOM     28  C   UNL     1       5.394   4.432  16.318  0.00  0.00    +0.000 A 
ATOM     29  C   UNL     1       6.633   5.017  16.611  0.00  0.00    +0.000 A 
ATOM     30  C   UNL     1       7.606   5.177  15.626  0.00  0.00    +0.000 A 
ATOM     31  C   UNL     1       7.396   4.663  14.350  0.00  0.00    +0.000 A 
ATOM     32  C   UNL     1       6.177   4.050  14.050  0.00  0.00    +0.000 A 
ATOM     33  C   UNL     1       5.179   3.929  15.026  0.00  0.00    +0.000 A 
BRANCH  32  34
ATOM     34  S   UNL     1       5.878   3.542  12.371  0.00  0.00    +0.000 S 
ATOM     35  O   UNL     1       4.458   3.703  12.129  0.00  0.00    +0.000 OA
ATOM     36  O   UNL     1       6.874   4.175  11.539  0.00  0.00    +0.000 OA
BRANCH  34  37
ATOM     37  O   UNL     1       6.154   1.949  12.361  0.00  0.00    +0.000 OA
ATOM     38  H   UNL     1       7.110   1.769  12.266  0.00  0.00    +0.000 HD
ENDBRANCH  34  37
ENDBRANCH  32  34
ENDBRANCH  24  28
ENDBRANCH   1  27
TORSDOF 5
ENDMDL
MODEL 2
REMARK VINA RESULT:      -9.3      6.097      7.677
REMARK  Name = 
REMARK  6 active torsions:
REMARK  status: ('A' for Active; 'I' for Inactive)
REMARK    1  A    between atoms: C_1  and  C_2
REMARK    2  A    between atoms: N_4  and  C_5
REMARK    3  A    between atoms: C_9  and  S_10
REMARK    4  A    between atoms: S_10  and  O_13
REMARK    5  A    between atoms: C_17  and  N_18
REMARK    6  A    between atoms: N_19  and  C_20
REMARK                            x       y       z     vdW  Elec       q    Type
REMARK                         _______ _______ _______ _____ _____    ______ ____
ROOT
ATOM      1  N   UNL     1       8.215   7.872  18.637  0.00  0.00    +0.000 NA
ATOM      2  N   UNL     1       8.269   8.719  17.745  0.00  0.00    +0.000 NA
ENDROOT
BRANCH   2   3
ATOM      3  C   UNL     1       8.644  10.056  18.172  0.00  0.00    +0.000 A 
ATOM      4  N   UNL     1       9.470  10.031  19.268  0.00  0.00    +0.000 NA
ATOM      5  N   UNL     1       9.726  11.324  19.435  0.00  0.00    +0.000 N 
ATOM      6  C   UNL     1       9.473  11.973  18.291  0.00  0.00    +0.000 A 
ATOM      7  N   UNL     1       9.960  13.142  17.933  0.00  0.00    +0.000 NA
ATOM      8  C   UNL     1       9.190  14.009  18.470  0.00  0.00    +0.000 A 
ATOM      9  C   UNL     1       9.765  14.313  19.707  0.00  0.00    +0.000 A 
ATOM     10  C   UNL     1       9.459  15.276  20.587  0.00  0.00    +0.000 A 
ATOM     11  C   UNL     1       9.803  14.957  21.910  0.00  0.00    +0.000 A 
ATOM     12  C   UNL     1       9.763  15.878  22.904  0.00  0.00    +0.000 A 
ATOM     13  C   UNL     1      10.440  16.967  22.534  0.00  0.00    +0.000 A 
ATOM     14  C   UNL     1       9.976  17.408  21.193  0.00  0.00    +0.000 A 
ATOM     15  C   UNL     1       9.234  16.463  20.017  0.00  0.00    +0.000 A 
ATOM     16  C   UNL     1       8.435  15.965  18.545  0.00  0.00    +0.000 A 
ATOM     17  C   UNL     1       8.092  14.370  17.898  0.00  0.00    +0.000 A 
ATOM     18  C   UNL     1       7.718  12.754  17.193  0.00  0.00    +0.000 A 
ATOM     19  C   UNL     1       8.299  11.476  17.817  0.00  0.00    +0.000 A 
ATOM     20  H   UNL     1      10.235  11.720  20.218  0.00  0.00    +0.000 HD
ENDBRANCH   2   3
BRANCH   1  27
ATOM     21  C   UNL     1       8.809   5.038  20.351  0.00  0.00    +0.000 C 
ATOM     22  C   UNL     1       7.717   5.551  19.452  0.00  0.00    +0.000 C 
ATOM     23  N   UNL     1       6.474   5.203  19.618  0.00  0.00    +0.000 NA
ATOM     24  N   UNL     1       5.791   5.695  18.533  0.00  0.00    +0.000 N 
ATOM     25  C   UNL     1       6.608   6.340  17.584  0.00  0.00    +0.000 C 
ATOM     26  O   UNL     1       6.301   6.762  16.477  0.00  0.00    +0.000 OA
ATOM     27  C   UNL     1       7.983   6.436  18.248  0.00  0.00    +0.000 C 
BRANCH  24  28
ATOM     28  C   UNL     1       4.397   5.491  18.420  0.00  0.00    +0.000 A 
ATOM     29  C   UNL     1       3.551   6.556  18.085  0.00  0.00    +0.000 A 
ATOM     30  C   UNL     1       2.167   6.398  18.061  0.00  0.00    +0.000 A 
ATOM     31  C   UNL     1       1.606   5.142  18.274  0.00  0.00    +0.000 A 
ATOM     32  C   UNL     1       2.439   4.063  18.581  0.00  0.00    +0.000 A 
ATOM     33  C   UNL     1       3.828   4.230  18.652  0.00  0.00    +0.000 A 
BRANCH  32  34
ATOM     34  S   UNL     1       1.683   2.507  19.000  0.00  0.00    +0.000 S 
ATOM     35  O   UNL     1       1.828   2.343  20.433  0.00  0.00    +0.000 OA
ATOM     36  O   UNL     1       0.396   2.456  18.349  0.00  0.00    +0.000 OA
BRANCH  34  37
ATOM     37  O   UNL     1       2.633   1.386  18.325  0.00  0.00    +0.000 OA
ATOM     38  H   UNL     1       2.399   0.497  18.656  0.00  0.00    +0.000 HD
ENDBRANCH  34  37
ENDBRANCH  32  34
ENDBRANCH  24  28
ENDBRANCH   1  27
TORSDOF 5
ENDMDL
MODEL 3
REMARK VINA RESULT:      -8.7      6.546      8.169
REMARK  Name = 
REMARK  6 active torsions:
REMARK  status: ('A' for Active; 'I' for Inactive)
REMARK    1  A    between atoms: C_1  and  C_2
REMARK    2  A    between atoms: N_4  and  C_5
REMARK    3  A    between atoms: C_9  and  S_10
REMARK    4  A    between atoms: S_10  and  O_13
REMARK    5  A    between atoms: C_17  and  N_18
REMARK    6  A    between atoms: N_19  and  C_20
REMARK                            x       y       z     vdW  Elec       q    Type
REMARK                         _______ _______ _______ _____ _____    ______ ____
ROOT
ATOM      1  N   UNL     1       8.256   8.030  18.556  0.00  0.00    +0.000 NA
ATOM      2  N   UNL     1       8.276   8.847  17.635  0.00  0.00    +0.000 NA
ENDROOT
BRANCH   2   3
ATOM      3  C   UNL     1       8.679  10.194  18.001  0.00  0.00    +0.000 A 
ATOM      4  N   UNL     1       7.871  11.144  17.428  0.00  0.00    +0.000 NA
ATOM      5  N   UNL     1       8.375  12.262  17.940  0.00  0.00    +0.000 N 
ATOM      6  C   UNL     1       9.072  11.964  19.044  0.00  0.00    +0.000 A 
ATOM      7  N   UNL     1       9.374  12.791  20.023  0.00  0.00    +0.000 NA
ATOM      8  C   UNL     1      10.436  13.392  19.644  0.00  0.00    +0.000 A 
ATOM      9  C   UNL     1      10.005  14.552  18.995  0.00  0.00    +0.000 A 
ATOM     10  C   UNL     1      10.704  15.610  18.562  0.00  0.00    +0.000 A 
ATOM     11  C   UNL     1      10.100  16.281  17.488  0.00  0.00    +0.000 A 
ATOM     12  C   UNL     1      10.546  17.484  17.051  0.00  0.00    +0.000 A 
ATOM     13  C   UNL     1      10.648  18.326  18.082  0.00  0.00    +0.000 A 
ATOM     14  C   UNL     1      11.422  17.681  19.175  0.00  0.00    +0.000 A 
ATOM     15  C   UNL     1      11.621  16.033  19.437  0.00  0.00    +0.000 A 
ATOM     16  C   UNL     1      12.151  14.508  20.106  0.00  0.00    +0.000 A 
ATOM     17  C   UNL     1      11.600  12.866  19.824  0.00  0.00    +0.000 A 
ATOM     18  C   UNL     1      11.067  11.164  19.567  0.00  0.00    +0.000 A 
ATOM     19  C   UNL     1       9.802  10.855  18.751  0.00  0.00    +0.000 A 
ATOM     20  H   UNL     1       8.098  13.201  17.672  0.00  0.00    +0.000 HD
ENDBRANCH   2   3
BRANCH   1  27
ATOM     21  C   UNL     1       8.764   5.259  20.397  0.00  0.00    +0.000 C 
ATOM     22  C   UNL     1       7.695   5.757  19.463  0.00  0.00    +0.000 C 
ATOM     23  N   UNL     1       6.442   5.445  19.626  0.00  0.00    +0.000 NA
ATOM     24  N   UNL     1       5.784   5.905  18.512  0.00  0.00    +0.000 N 
ATOM     25  C   UNL     1       6.627   6.491  17.548  0.00  0.00    +0.000 C 
ATOM     26  O   UNL     1       6.344   6.872  16.420  0.00  0.00    +0.000 OA
ATOM     27  C   UNL     1       7.996   6.585  18.225  0.00  0.00    +0.000 C 
BRANCH  24  28
ATOM     28  C   UNL     1       4.388   5.728  18.390  0.00  0.00    +0.000 A 
ATOM     29  C   UNL     1       3.583   6.766  17.902  0.00  0.00    +0.000 A 
ATOM     30  C   UNL     1       2.195   6.644  17.861  0.00  0.00    +0.000 A 
ATOM     31  C   UNL     1       1.591   5.441  18.215  0.00  0.00    +0.000 A 
ATOM     32  C   UNL     1       2.383   4.386  18.676  0.00  0.00    +0.000 A 
ATOM     33  C   UNL     1       3.774   4.522  18.762  0.00  0.00    +0.000 A 
BRANCH  32  34
ATOM     34  S   UNL     1       1.570   2.917  19.266  0.00  0.00    +0.000 S 
ATOM     35  O   UNL     1       0.642   2.506  18.232  0.00  0.00    +0.000 OA
ATOM     36  O   UNL     1       2.587   2.031  19.780  0.00  0.00    +0.000 OA
BRANCH  34  37
ATOM     37  O   UNL     1       0.661   3.414  20.508  0.00  0.00    +0.000 OA
ATOM     38  H   UNL     1       1.191   3.439  21.329  0.00  0.00    +0.000 HD
ENDBRANCH  34  37
ENDBRANCH  32  34
ENDBRANCH  24  28
ENDBRANCH   1  27
TORSDOF 5
ENDMDL
MODEL 4
REMARK VINA RESULT:      -8.7      6.381     10.638
REMARK  Name = 
REMARK  6 active torsions:
REMARK  status: ('A' for Active; 'I' for Inactive)
REMARK    1  A    between atoms: C_1  and  C_2
REMARK    2  A    between atoms: N_4  and  C_5
REMARK    3  A    between atoms: C_9  and  S_10
REMARK    4  A    between atoms: S_10  and  O_13
REMARK    5  A    between atoms: C_17  and  N_18
REMARK    6  A    between atoms: N_19  and  C_20
REMARK                            x       y       z     vdW  Elec       q    Type
REMARK                         _______ _______ _______ _____ _____    ______ ____
ROOT
ATOM      1  N   UNL     1       9.311  10.494  19.383  0.00  0.00    +0.000 NA
ATOM      2  N   UNL     1       9.207  10.063  18.235  0.00  0.00    +0.000 NA
ENDROOT
BRANCH   2   3
ATOM      3  C   UNL     1       8.266   8.970  18.059  0.00  0.00    +0.000 A 
ATOM      4  N   UNL     1       7.179   9.345  17.309  0.00  0.00    +0.000 NA
ATOM      5  N   UNL     1       6.506   8.203  17.228  0.00  0.00    +0.000 N 
ATOM      6  C   UNL     1       7.338   7.185  17.485  0.00  0.00    +0.000 A 
ATOM      7  N   UNL     1       7.170   5.930  17.127  0.00  0.00    +0.000 NA
ATOM      8  C   UNL     1       6.431   5.414  18.033  0.00  0.00    +0.000 A 
ATOM      9  C   UNL     1       5.117   5.565  17.582  0.00  0.00    +0.000 A 
ATOM     10  C   UNL     1       3.975   5.053  18.062  0.00  0.00    +0.000 A 
ATOM     11  C   UNL     1       2.845   5.830  17.769  0.00  0.00    +0.000 A 
ATOM     12  C   UNL     1       1.586   5.377  17.988  0.00  0.00    +0.000 A 
ATOM     13  C   UNL     1       1.439   4.173  17.430  0.00  0.00    +0.000 A 
ATOM     14  C   UNL     1       2.553   3.289  17.857  0.00  0.00    +0.000 A 
ATOM     15  C   UNL     1       4.072   3.764  18.397  0.00  0.00    +0.000 A 
ATOM     16  C   UNL     1       5.701   3.719  19.030  0.00  0.00    +0.000 A 
ATOM     17  C   UNL     1       6.939   4.959  19.128  0.00  0.00    +0.000 A 
ATOM     18  C   UNL     1       8.240   6.199  19.249  0.00  0.00    +0.000 A 
ATOM     19  C   UNL     1       8.089   7.562  18.555  0.00  0.00    +0.000 A 
ATOM     20  H   UNL     1       5.581   8.099  16.825  0.00  0.00    +0.000 HD
ENDBRANCH   2   3
BRANCH   1  27
ATOM     21  C   UNL     1      11.786  11.808  17.520  0.00  0.00    +0.000 C 
ATOM     22  C   UNL     1      10.626  12.345  18.312  0.00  0.00    +0.000 C 
ATOM     23  N   UNL     1       9.998  13.430  17.959  0.00  0.00    +0.000 NA
ATOM     24  N   UNL     1       9.136  13.726  18.986  0.00  0.00    +0.000 N 
ATOM     25  C   UNL     1       9.228  12.849  20.084  0.00  0.00    +0.000 C 
ATOM     26  O   UNL     1       8.680  12.935  21.175  0.00  0.00    +0.000 OA
ATOM     27  C   UNL     1      10.151  11.723  19.613  0.00  0.00    +0.000 C 
BRANCH  24  28
ATOM     28  C   UNL     1       8.293  14.856  18.900  0.00  0.00    +0.000 A 
ATOM     29  C   UNL     1       8.826  16.147  19.020  0.00  0.00    +0.000 A 
ATOM     30  C   UNL     1       8.000  17.269  19.033  0.00  0.00    +0.000 A 
ATOM     31  C   UNL     1       6.631  17.129  18.825  0.00  0.00    +0.000 A 
ATOM     32  C   UNL     1       6.088  15.850  18.674  0.00  0.00    +0.000 A 
ATOM     33  C   UNL     1       6.910  14.717  18.707  0.00  0.00    +0.000 A 
BRANCH  32  34
ATOM     34  S   UNL     1       4.319  15.693  18.564  0.00  0.00    +0.000 S 
ATOM     35  O   UNL     1       3.928  14.676  19.521  0.00  0.00    +0.000 OA
ATOM     36  O   UNL     1       3.759  17.023  18.587  0.00  0.00    +0.000 OA
BRANCH  34  37
ATOM     37  O   UNL     1       4.046  15.057  17.103  0.00  0.00    +0.000 OA
ATOM     38  H   UNL     1       4.886  14.953  16.614  0.00  0.00    +0.000 HD
ENDBRANCH  34  37
ENDBRANCH  32  34
ENDBRANCH  24  28
ENDBRANCH   1  27
TORSDOF 5
ENDMDL
MODEL 5
REMARK VINA RESULT:      -8.7      1.074      1.295
REMARK  Name = 
REMARK  6 active torsions:
REMARK  status: ('A' for Active; 'I' for Inactive)
REMARK    1  A    between atoms: C_1  and  C_2
REMARK    2  A    between atoms: N_4  and  C_5
REMARK    3  A    between atoms: C_9  and  S_10
REMARK    4  A    between atoms: S_10  and  O_13
REMARK    5  A    between atoms: C_17  and  N_18
REMARK    6  A    between atoms: N_19  and  C_20
REMARK                            x       y       z     vdW  Elec       q    Type
REMARK                         _______ _______ _______ _____ _____    ______ ____
ROOT
ATOM      1  N   UNL     1       2.800   6.195  19.535  0.00  0.00    +0.000 NA
ATOM      2  N   UNL     1       1.988   6.392  20.439  0.00  0.00    +0.000 NA
ENDROOT
BRANCH   2   3
ATOM      3  C   UNL     1       1.448   7.739  20.512  0.00  0.00    +0.000 A 
ATOM      4  N   UNL     1       1.860   8.514  19.456  0.00  0.00    +0.000 NA
ATOM      5  N   UNL     1       1.211   9.649  19.692  0.00  0.00    +0.000 N 
ATOM      6  C   UNL     1       0.178   9.402  20.509  0.00  0.00    +0.000 A 
ATOM      7  N   UNL     1      -0.898  10.145  20.653  0.00  0.00    +0.000 NA
ATOM      8  C   UNL     1      -0.579  11.044  21.504  0.00  0.00    +0.000 A 
ATOM      9  C   UNL     1      -0.111  12.127  20.755  0.00  0.00    +0.000 A 
ATOM     10  C   UNL     1       0.188  13.376  21.136  0.00  0.00    +0.000 A 
ATOM     11  C   UNL     1       1.141  14.000  20.317  0.00  0.00    +0.000 A 
ATOM     12  C   UNL     1       1.416  15.324  20.418  0.00  0.00    +0.000 A 
ATOM     13  C   UNL     1       0.281  16.024  20.369  0.00  0.00    +0.000 A 
ATOM     14  C   UNL     1      -0.689  15.466  21.346  0.00  0.00    +0.000 A 
ATOM     15  C   UNL     1      -0.713  13.905  21.969  0.00  0.00    +0.000 A 
ATOM     16  C   UNL     1      -1.147  12.495  22.908  0.00  0.00    +0.000 A 
ATOM     17  C   UNL     1      -0.652  10.817  22.771  0.00  0.00    +0.000 A 
ATOM     18  C   UNL     1      -0.174   9.083  22.670  0.00  0.00    +0.000 A 
ATOM     19  C   UNL     1       0.643   8.566  21.476  0.00  0.00    +0.000 A 
ATOM     20  H   UNL     1       1.336  10.511  19.172  0.00  0.00    +0.000 HD
ENDBRANCH   2   3
BRANCH   1  27
ATOM     21  C   UNL     1       1.179   3.517  18.299  0.00  0.00    +0.000 C 
ATOM     22  C   UNL     1       2.555   4.109  18.159  0.00  0.00    +0.000 C 
ATOM     23  N   UNL     1       3.234   4.010  17.053  0.00  0.00    +0.000 NA
ATOM     24  N   UNL     1       4.491   4.487  17.331  0.00  0.00    +0.000 N 
ATOM     25  C   UNL     1       4.679   4.863  18.676  0.00  0.00    +0.000 C 
ATOM     26  O   UNL     1       5.714   5.202  19.234  0.00  0.00    +0.000 OA
ATOM     27  C   UNL     1       3.286   4.788  19.304  0.00  0.00    +0.000 C 
BRANCH  24  28
ATOM     28  C   UNL     1       5.476   4.524  16.319  0.00  0.00    +0.000 A 
ATOM     29  C   UNL     1       6.725   5.107  16.568  0.00  0.00    +0.000 A 
ATOM     30  C   UNL     1       7.675   5.236  15.556  0.00  0.00    +0.000 A 
ATOM     31  C   UNL     1       7.431   4.693  14.297  0.00  0.00    +0.000 A 
ATOM     32  C   UNL     1       6.201   4.082  14.043  0.00  0.00    +0.000 A 
ATOM     33  C   UNL     1       5.226   3.992  15.045  0.00  0.00    +0.000 A 
BRANCH  32  34
ATOM     34  S   UNL     1       5.858   3.536  12.383  0.00  0.00    +0.000 S 
ATOM     35  O   UNL     1       4.436   3.712  12.168  0.00  0.00    +0.000 OA
ATOM     36  O   UNL     1       6.844   4.132  11.515  0.00  0.00    +0.000 OA
BRANCH  34  37
ATOM     37  O   UNL     1       6.111   1.939  12.409  0.00  0.00    +0.000 OA
ATOM     38  H   UNL     1       5.999   1.562  11.514  0.00  0.00    +0.000 HD
ENDBRANCH  34  37
ENDBRANCH  32  34
ENDBRANCH  24  28
ENDBRANCH   1  27
TORSDOF 5
ENDMDL
MODEL 6
REMARK VINA RESULT:      -8.6      6.162      7.963
REMARK  Name = 
REMARK  6 active torsions:
REMARK  status: ('A' for Active; 'I' for Inactive)
REMARK    1  A    between atoms: C_1  and  C_2
REMARK    2  A    between atoms: N_4  and  C_5
REMARK    3  A    between atoms: C_9  and  S_10
REMARK    4  A    between atoms: S_10  and  O_13
REMARK    5  A    between atoms: C_17  and  N_18
REMARK    6  A    between atoms: N_19  and  C_20
REMARK                            x       y       z     vdW  Elec       q    Type
REMARK                         _______ _______ _______ _____ _____    ______ ____
ROOT
ATOM      1  N   UNL     1       7.125   8.188  17.890  0.00  0.00    +0.000 NA
ATOM      2  N   UNL     1       8.245   8.583  17.564  0.00  0.00    +0.000 NA
ENDROOT
BRANCH   2   3
ATOM      3  C   UNL     1       8.637   9.872  18.109  0.00  0.00    +0.000 A 
ATOM      4  N   UNL     1       9.320   9.741  19.293  0.00  0.00    +0.000 NA
ATOM      5  N   UNL     1       9.624  11.005  19.564  0.00  0.00    +0.000 N 
ATOM      6  C   UNL     1       9.549  11.725  18.436  0.00  0.00    +0.000 A 
ATOM      7  N   UNL     1      10.140  12.879  18.207  0.00  0.00    +0.000 NA
ATOM      8  C   UNL     1       9.358  13.764  18.697  0.00  0.00    +0.000 A 
ATOM      9  C   UNL     1       9.792  13.969  20.009  0.00  0.00    +0.000 A 
ATOM     10  C   UNL     1       9.435  14.903  20.900  0.00  0.00    +0.000 A 
ATOM     11  C   UNL     1       9.595  14.497  22.234  0.00  0.00    +0.000 A 
ATOM     12  C   UNL     1       9.484  15.368  23.267  0.00  0.00    +0.000 A 
ATOM     13  C   UNL     1      10.260  16.431  23.044  0.00  0.00    +0.000 A 
ATOM     14  C   UNL     1       9.989  16.967  21.685  0.00  0.00    +0.000 A 
ATOM     15  C   UNL     1       9.346  16.129  20.377  0.00  0.00    +0.000 A 
ATOM     16  C   UNL     1       8.707  15.755  18.793  0.00  0.00    +0.000 A 
ATOM     17  C   UNL     1       8.360  14.219  18.019  0.00  0.00    +0.000 A 
ATOM     18  C   UNL     1       7.988  12.667  17.183  0.00  0.00    +0.000 A 
ATOM     19  C   UNL     1       8.417  11.326  17.798  0.00  0.00    +0.000 A 
ATOM     20  H   UNL     1      10.054  11.329  20.423  0.00  0.00    +0.000 HD
ENDBRANCH   2   3
BRANCH   1  27
ATOM     21  C   UNL     1       8.432   5.206  18.746  0.00  0.00    +0.000 C 
ATOM     22  C   UNL     1       7.049   5.767  18.553  0.00  0.00    +0.000 C 
ATOM     23  N   UNL     1       6.035   5.346  19.252  0.00  0.00    +0.000 NA
ATOM     24  N   UNL     1       4.920   5.926  18.699  0.00  0.00    +0.000 N 
ATOM     25  C   UNL     1       5.187   6.713  17.561  0.00  0.00    +0.000 C 
ATOM     26  O   UNL     1       4.390   7.244  16.799  0.00  0.00    +0.000 OA
ATOM     27  C   UNL     1       6.713   6.796  17.488  0.00  0.00    +0.000 C 
BRANCH  24  28
ATOM     28  C   UNL     1       3.643   5.672  19.246  0.00  0.00    +0.000 A 
ATOM     29  C   UNL     1       2.834   6.732  19.677  0.00  0.00    +0.000 A 
ATOM     30  C   UNL     1       1.612   6.498  20.304  0.00  0.00    +0.000 A 
ATOM     31  C   UNL     1       1.128   5.198  20.423  0.00  0.00    +0.000 A 
ATOM     32  C   UNL     1       1.910   4.132  19.971  0.00  0.00    +0.000 A 
ATOM     33  C   UNL     1       3.160   4.362  19.382  0.00  0.00    +0.000 A 
BRANCH  32  34
ATOM     34  S   UNL     1       1.334   2.475  20.277  0.00  0.00    +0.000 S 
ATOM     35  O   UNL     1       2.109   1.598  19.422  0.00  0.00    +0.000 OA
ATOM     36  O   UNL     1       1.270   2.292  21.706  0.00  0.00    +0.000 OA
BRANCH  34  37
ATOM     37  O   UNL     1      -0.175   2.444  19.697  0.00  0.00    +0.000 OA
ATOM     38  H   UNL     1      -0.702   3.173  20.080  0.00  0.00    +0.000 HD
ENDBRANCH  34  37
ENDBRANCH  32  34
ENDBRANCH  24  28
ENDBRANCH   1  27
TORSDOF 5
ENDMDL
MODEL 7
REMARK VINA RESULT:      -8.6      1.664      2.471
REMARK  Name = 
REMARK  6 active torsions:
REMARK  status: ('A' for Active; 'I' for Inactive)
REMARK    1  A    between atoms: C_1  and  C_2
REMARK    2  A    between atoms: N_4  and  C_5
REMARK    3  A    between atoms: C_9  and  S_10
REMARK    4  A    between atoms: S_10  and  O_13
REMARK    5  A    between atoms: C_17  and  N_18
REMARK    6  A    between atoms: N_19  and  C_20
REMARK                            x       y       z     vdW  Elec       q    Type
REMARK                         _______ _______ _______ _____ _____    ______ ____
ROOT
ATOM      1  N   UNL     1       2.337   5.367  19.822  0.00  0.00    +0.000 NA
ATOM      2  N   UNL     1       2.501   6.331  19.074  0.00  0.00    +0.000 NA
ENDROOT
BRANCH   2   3
ATOM      3  C   UNL     1       1.869   7.569  19.500  0.00  0.00    +0.000 A 
ATOM      4  N   UNL     1       1.854   7.692  20.867  0.00  0.00    +0.000 NA
ATOM      5  N   UNL     1       1.303   8.892  21.018  0.00  0.00    +0.000 N 
ATOM      6  C   UNL     1       1.430   9.579  19.876  0.00  0.00    +0.000 A 
ATOM      7  N   UNL     1       1.382  10.888  19.743  0.00  0.00    +0.000 NA
ATOM      8  C   UNL     1       0.139  11.174  19.652  0.00  0.00    +0.000 A 
ATOM      9  C   UNL     1      -0.286  11.438  20.957  0.00  0.00    +0.000 A 
ATOM     10  C   UNL     1      -1.443  11.946  21.401  0.00  0.00    +0.000 A 
ATOM     11  C   UNL     1      -1.767  11.547  22.707  0.00  0.00    +0.000 A 
ATOM     12  C   UNL     1      -2.784  12.116  23.400  0.00  0.00    +0.000 A 
ATOM     13  C   UNL     1      -2.656  13.445  23.374  0.00  0.00    +0.000 A 
ATOM     14  C   UNL     1      -2.465  13.898  21.973  0.00  0.00    +0.000 A 
ATOM     15  C   UNL     1      -1.872  12.991  20.687  0.00  0.00    +0.000 A 
ATOM     16  C   UNL     1      -1.377  12.506  19.083  0.00  0.00    +0.000 A 
ATOM     17  C   UNL     1      -0.478  11.107  18.522  0.00  0.00    +0.000 A 
ATOM     18  C   UNL     1       0.441   9.688  17.900  0.00  0.00    +0.000 A 
ATOM     19  C   UNL     1       1.128   8.715  18.870  0.00  0.00    +0.000 A 
ATOM     20  H   UNL     1       1.033   9.301  21.906  0.00  0.00    +0.000 HD
ENDBRANCH   2   3
BRANCH   1  27
ATOM     21  C   UNL     1       1.272   2.503  18.412  0.00  0.00    +0.000 C 
ATOM     22  C   UNL     1       2.510   3.355  18.331  0.00  0.00    +0.000 C 
ATOM     23  N   UNL     1       3.204   3.452  17.234  0.00  0.00    +0.000 NA
ATOM     24  N   UNL     1       4.343   4.144  17.562  0.00  0.00    +0.000 N 
ATOM     25  C   UNL     1       4.444   4.471  18.928  0.00  0.00    +0.000 C 
ATOM     26  O   UNL     1       5.389   4.971  19.524  0.00  0.00    +0.000 OA
ATOM     27  C   UNL     1       3.086   4.095  19.525  0.00  0.00    +0.000 C 
BRANCH  24  28
ATOM     28  C   UNL     1       5.311   4.426  16.572  0.00  0.00    +0.000 A 
ATOM     29  C   UNL     1       6.401   5.257  16.865  0.00  0.00    +0.000 A 
ATOM     30  C   UNL     1       7.314   5.623  15.877  0.00  0.00    +0.000 A 
ATOM     31  C   UNL     1       7.212   5.082  14.599  0.00  0.00    +0.000 A 
ATOM     32  C   UNL     1       6.147   4.228  14.300  0.00  0.00    +0.000 A 
ATOM     33  C   UNL     1       5.201   3.896  15.278  0.00  0.00    +0.000 A 
BRANCH  32  34
ATOM     34  S   UNL     1       5.955   3.677  12.618  0.00  0.00    +0.000 S 
ATOM     35  O   UNL     1       4.550   3.817  12.288  0.00  0.00    +0.000 OA
ATOM     36  O   UNL     1       6.992   4.301  11.833  0.00  0.00    +0.000 OA
BRANCH  34  37
ATOM     37  O   UNL     1       6.245   2.087  12.664  0.00  0.00    +0.000 OA
ATOM     38  H   UNL     1       6.409   1.798  13.583  0.00  0.00    +0.000 HD
ENDBRANCH  34  37
ENDBRANCH  32  34
ENDBRANCH  24  28
ENDBRANCH   1  27
TORSDOF 5
ENDMDL
MODEL 8
REMARK VINA RESULT:      -8.6      6.603      8.289
REMARK  Name = 
REMARK  6 active torsions:
REMARK  status: ('A' for Active; 'I' for Inactive)
REMARK    1  A    between atoms: C_1  and  C_2
REMARK    2  A    between atoms: N_4  and  C_5
REMARK    3  A    between atoms: C_9  and  S_10
REMARK    4  A    between atoms: S_10  and  O_13
REMARK    5  A    between atoms: C_17  and  N_18
REMARK    6  A    between atoms: N_19  and  C_20
REMARK                            x       y       z     vdW  Elec       q    Type
REMARK                         _______ _______ _______ _____ _____    ______ ____
ROOT
ATOM      1  N   UNL     1       7.937   7.747  18.298  0.00  0.00    +0.000 NA
ATOM      2  N   UNL     1       8.156   8.747  17.615  0.00  0.00    +0.000 NA
ENDROOT
BRANCH   2   3
ATOM      3  C   UNL     1       8.784   9.856  18.314  0.00  0.00    +0.000 A 
ATOM      4  N   UNL     1       8.611   9.770  19.673  0.00  0.00    +0.000 NA
ATOM      5  N   UNL     1       9.303  10.822  20.095  0.00  0.00    +0.000 N 
ATOM      6  C   UNL     1      10.167  11.191  19.139  0.00  0.00    +0.000 A 
ATOM      7  N   UNL     1      11.263  11.900  19.310  0.00  0.00    +0.000 NA
ATOM      8  C   UNL     1      10.883  13.121  19.288  0.00  0.00    +0.000 A 
ATOM      9  C   UNL     1      10.631  13.463  20.619  0.00  0.00    +0.000 A 
ATOM     10  C   UNL     1      10.376  14.658  21.170  0.00  0.00    +0.000 A 
ATOM     11  C   UNL     1       9.621  14.583  22.350  0.00  0.00    +0.000 A 
ATOM     12  C   UNL     1       9.440  15.658  23.155  0.00  0.00    +0.000 A 
ATOM     13  C   UNL     1      10.622  16.214  23.434  0.00  0.00    +0.000 A 
ATOM     14  C   UNL     1      11.373  16.441  22.173  0.00  0.00    +0.000 A 
ATOM     15  C   UNL     1      11.170  15.631  20.714  0.00  0.00    +0.000 A 
ATOM     16  C   UNL     1      11.332  15.154  19.040  0.00  0.00    +0.000 A 
ATOM     17  C   UNL     1      10.732  13.751  18.173  0.00  0.00    +0.000 A 
ATOM     18  C   UNL     1      10.139  12.328  17.242  0.00  0.00    +0.000 A 
ATOM     19  C   UNL     1       9.486  11.139  17.963  0.00  0.00    +0.000 A 
ATOM     20  H   UNL     1       9.333  11.153  21.053  0.00  0.00    +0.000 HD
ENDBRANCH   2   3
BRANCH   1  27
ATOM     21  C   UNL     1       8.846   4.529  18.676  0.00  0.00    +0.000 C 
ATOM     22  C   UNL     1       7.553   5.273  18.483  0.00  0.00    +0.000 C 
ATOM     23  N   UNL     1       6.438   4.854  19.007  0.00  0.00    +0.000 NA
ATOM     24  N   UNL     1       5.447   5.650  18.486  0.00  0.00    +0.000 N 
ATOM     25  C   UNL     1       5.903   6.591  17.543  0.00  0.00    +0.000 C 
ATOM     26  O   UNL     1       5.243   7.340  16.834  0.00  0.00    +0.000 OA
ATOM     27  C   UNL     1       7.430   6.508  17.609  0.00  0.00    +0.000 C 
BRANCH  24  28
ATOM     28  C   UNL     1       4.102   5.453  18.873  0.00  0.00    +0.000 A 
ATOM     29  C   UNL     1       3.335   6.529  19.338  0.00  0.00    +0.000 A 
ATOM     30  C   UNL     1       2.038   6.338  19.811  0.00  0.00    +0.000 A 
ATOM     31  C   UNL     1       1.446   5.081  19.735  0.00  0.00    +0.000 A 
ATOM     32  C   UNL     1       2.189   4.003  19.245  0.00  0.00    +0.000 A 
ATOM     33  C   UNL     1       3.509   4.183  18.812  0.00  0.00    +0.000 A 
BRANCH  32  34
ATOM     34  S   UNL     1       1.460   2.381  19.304  0.00  0.00    +0.000 S 
ATOM     35  O   UNL     1       1.425   1.986  20.699  0.00  0.00    +0.000 OA
ATOM     36  O   UNL     1       0.272   2.405  18.485  0.00  0.00    +0.000 OA
BRANCH  34  37
ATOM     37  O   UNL     1       2.541   1.411  18.594  0.00  0.00    +0.000 OA
ATOM     38  H   UNL     1       3.446   1.759  18.719  0.00  0.00    +0.000 HD
ENDBRANCH  34  37
ENDBRANCH  32  34
ENDBRANCH  24  28
ENDBRANCH   1  27
TORSDOF 5
ENDMDL
MODEL 9
REMARK VINA RESULT:      -8.6      6.208      8.279
REMARK  Name = 
REMARK  6 active torsions:
REMARK  status: ('A' for Active; 'I' for Inactive)
REMARK    1  A    between atoms: C_1  and  C_2
REMARK    2  A    between atoms: N_4  and  C_5
REMARK    3  A    between atoms: C_9  and  S_10
REMARK    4  A    between atoms: S_10  and  O_13
REMARK    5  A    between atoms: C_17  and  N_18
REMARK    6  A    between atoms: N_19  and  C_20
REMARK                            x       y       z     vdW  Elec       q    Type
REMARK                         _______ _______ _______ _____ _____    ______ ____
ROOT
ATOM      1  N   UNL     1       6.879   7.899  17.134  0.00  0.00    +0.000 NA
ATOM      2  N   UNL     1       7.839   7.919  17.904  0.00  0.00    +0.000 NA
ENDROOT
BRANCH   2   3
ATOM      3  C   UNL     1       8.348   9.239  18.235  0.00  0.00    +0.000 A 
ATOM      4  N   UNL     1       9.177   9.209  19.329  0.00  0.00    +0.000 NA
ATOM      5  N   UNL     1       9.561  10.479  19.404  0.00  0.00    +0.000 N 
ATOM      6  C   UNL     1       9.365  11.067  18.217  0.00  0.00    +0.000 A 
ATOM      7  N   UNL     1       9.962  12.155  17.777  0.00  0.00    +0.000 NA
ATOM      8  C   UNL     1       9.286  13.130  18.253  0.00  0.00    +0.000 A 
ATOM      9  C   UNL     1       9.898  13.461  19.464  0.00  0.00    +0.000 A 
ATOM     10  C   UNL     1       9.696  14.509  20.274  0.00  0.00    +0.000 A 
ATOM     11  C   UNL     1      10.017  14.251  21.616  0.00  0.00    +0.000 A 
ATOM     12  C   UNL     1      10.077  15.238  22.542  0.00  0.00    +0.000 A 
ATOM     13  C   UNL     1      10.855  16.227  22.095  0.00  0.00    +0.000 A 
ATOM     14  C   UNL     1      10.427  16.617  20.728  0.00  0.00    +0.000 A 
ATOM     15  C   UNL     1       9.585  15.670  19.622  0.00  0.00    +0.000 A 
ATOM     16  C   UNL     1       8.728  15.151  18.190  0.00  0.00    +0.000 A 
ATOM     17  C   UNL     1       8.224  13.556  17.657  0.00  0.00    +0.000 A 
ATOM     18  C   UNL     1       7.687  11.941  17.069  0.00  0.00    +0.000 A 
ATOM     19  C   UNL     1       8.143  10.658  17.781  0.00  0.00    +0.000 A 
ATOM     20  H   UNL     1      10.113  10.876  20.157  0.00  0.00    +0.000 HD
ENDBRANCH   2   3
BRANCH   1  27
ATOM     21  C   UNL     1       7.901   4.764  17.811  0.00  0.00    +0.000 C 
ATOM     22  C   UNL     1       6.600   5.517  17.876  0.00  0.00    +0.000 C 
ATOM     23  N   UNL     1       5.697   5.247  18.774  0.00  0.00    +0.000 NA
ATOM     24  N   UNL     1       4.586   5.979  18.433  0.00  0.00    +0.000 N 
ATOM     25  C   UNL     1       4.728   6.715  17.241  0.00  0.00    +0.000 C 
ATOM     26  O   UNL     1       3.877   7.352  16.634  0.00  0.00    +0.000 OA
ATOM     27  C   UNL     1       6.205   6.579  16.866  0.00  0.00    +0.000 C 
BRANCH  24  28
ATOM     28  C   UNL     1       3.421   5.913  19.229  0.00  0.00    +0.000 A 
ATOM     29  C   UNL     1       2.804   4.680  19.478  0.00  0.00    +0.000 A 
ATOM     30  C   UNL     1       1.603   4.603  20.182  0.00  0.00    +0.000 A 
ATOM     31  C   UNL     1       1.047   5.752  20.737  0.00  0.00    +0.000 A 
ATOM     32  C   UNL     1       1.667   6.986  20.522  0.00  0.00    +0.000 A 
ATOM     33  C   UNL     1       2.849   7.071  19.776  0.00  0.00    +0.000 A 
BRANCH  32  34
ATOM     34  S   UNL     1       0.851   8.454  21.112  0.00  0.00    +0.000 S 
ATOM     35  O   UNL     1       1.019   9.467  20.089  0.00  0.00    +0.000 OA
ATOM     36  O   UNL     1      -0.451   8.064  21.598  0.00  0.00    +0.000 OA
BRANCH  34  37
ATOM     37  O   UNL     1       1.733   8.943  22.375  0.00  0.00    +0.000 OA
ATOM     38  H   UNL     1       2.687   8.865  22.175  0.00  0.00    +0.000 HD
ENDBRANCH  34  37
ENDBRANCH  32  34
ENDBRANCH  24  28
ENDBRANCH   1  27
TORSDOF 5
ENDMDL
