MODEL 1
REMARK VINA RESULT:      -6.8      0.000      0.000
REMARK  Name = 
REMARK  8 active torsions:
REMARK  status: ('A' for Active; 'I' for Inactive)
REMARK    1  A    between atoms: C_1  and  C_2
REMARK    2  A    between atoms: C_4  and  C_5
REMARK    3  A    between atoms: C_5  and  N_6
REMARK    4  A    between atoms: C_7  and  C_9
REMARK    5  A    between atoms: C_9  and  C_10
REMARK    6  A    between atoms: C_9  and  C_11
REMARK    7  A    between atoms: C_11  and  N_12
REMARK    8  A    between atoms: C_20  and  C_21
REMARK                            x       y       z     vdW  Elec       q    Type
REMARK                         _______ _______ _______ _____ _____    ______ ____
ROOT
ATOM      1  N   UNL     1       3.971   3.930  17.277  0.00  0.00    +0.000 N 
ATOM      2  C   UNL     1       3.084   2.987  17.749  0.00  0.00    +0.000 C 
ATOM      3  O   UNL     1       3.423   1.831  18.022  0.00  0.00    +0.000 OA
ATOM      4  H   UNL     1       3.653   4.880  17.147  0.00  0.00    +0.000 HD
ENDROOT
BRANCH   2   5
ATOM      5  C   UNL     1       1.648   3.462  17.855  0.00  0.00    +0.000 C 
ATOM      6  C   UNL     1       0.956   2.545  18.883  0.00  0.00    +0.000 C 
BRANCH   5   7
ATOM      7  C   UNL     1       1.552   4.942  18.301  0.00  0.00    +0.000 C 
BRANCH   7   8
ATOM      8  N   UNL     1       2.548   5.472  19.266  0.00  0.00    +0.000 NA
ATOM      9  C   UNL     1       2.069   5.725  20.650  0.00  0.00    +0.000 C 
ATOM     10  C   UNL     1       1.178   6.970  20.852  0.00  0.00    +0.000 C 
ATOM     11  O   UNL     1       1.777   8.152  20.302  0.00  0.00    +0.000 OA
ATOM     12  C   UNL     1       2.112   7.948  18.927  0.00  0.00    +0.000 C 
ATOM     13  C   UNL     1       3.093   6.770  18.777  0.00  0.00    +0.000 C 
ENDBRANCH   7   8
ENDBRANCH   5   7
ENDBRANCH   2   5
BRANCH   1  14
ATOM     14  C   UNL     1       5.392   3.668  17.232  0.00  0.00    +0.000 C 
BRANCH  14  18
ATOM     15  C   UNL     1       5.919   3.353  12.236  0.00  0.00    +0.000 C 
ATOM     16  C   UNL     1       6.313   3.969  13.544  0.00  0.00    +0.000 A 
ATOM     17  C   UNL     1       5.686   3.557  14.729  0.00  0.00    +0.000 A 
ATOM     18  C   UNL     1       6.037   4.125  15.956  0.00  0.00    +0.000 A 
ATOM     19  C   UNL     1       7.009   5.113  15.935  0.00  0.00    +0.000 A 
ATOM     20  N   UNL     1       7.641   5.536  14.816  0.00  0.00    +0.000 NA
ATOM     21  C   UNL     1       7.294   4.962  13.637  0.00  0.00    +0.000 A 
ATOM     22  C   UNL     1       8.022   5.462  12.423  0.00  0.00    +0.000 C 
ENDBRANCH  14  18
ENDBRANCH   1  14
TORSDOF 5
ENDMDL
MODEL 2
REMARK VINA RESULT:      -6.8      2.713      6.825
REMARK  Name = 
REMARK  8 active torsions:
REMARK  status: ('A' for Active; 'I' for Inactive)
REMARK    1  A    between atoms: C_1  and  C_2
REMARK    2  A    between atoms: C_4  and  C_5
REMARK    3  A    between atoms: C_5  and  N_6
REMARK    4  A    between atoms: C_7  and  C_9
REMARK    5  A    between atoms: C_9  and  C_10
REMARK    6  A    between atoms: C_9  and  C_11
REMARK    7  A    between atoms: C_11  and  N_12
REMARK    8  A    between atoms: C_20  and  C_21
REMARK                            x       y       z     vdW  Elec       q    Type
REMARK                         _______ _______ _______ _____ _____    ______ ____
ROOT
ATOM      1  N   UNL     1       3.908   6.404  17.497  0.00  0.00    +0.000 N 
ATOM      2  C   UNL     1       4.866   5.953  16.616  0.00  0.00    +0.000 C 
ATOM      3  O   UNL     1       5.200   6.590  15.612  0.00  0.00    +0.000 OA
ATOM      4  H   UNL     1       3.733   5.879  18.342  0.00  0.00    +0.000 HD
ENDROOT
BRANCH   2   5
ATOM      5  C   UNL     1       5.437   4.588  16.944  0.00  0.00    +0.000 C 
ATOM      6  C   UNL     1       6.970   4.754  16.995  0.00  0.00    +0.000 C 
BRANCH   5   7
ATOM      7  C   UNL     1       4.908   4.039  18.292  0.00  0.00    +0.000 C 
BRANCH   7   8
ATOM      8  N   UNL     1       3.976   2.884  18.286  0.00  0.00    +0.000 NA
ATOM      9  C   UNL     1       2.755   3.016  17.448  0.00  0.00    +0.000 C 
ATOM     10  C   UNL     1       1.643   3.939  17.994  0.00  0.00    +0.000 C 
ATOM     11  O   UNL     1       1.294   3.616  19.347  0.00  0.00    +0.000 OA
ATOM     12  C   UNL     1       2.457   3.625  20.179  0.00  0.00    +0.000 C 
ATOM     13  C   UNL     1       3.496   2.609  19.669  0.00  0.00    +0.000 C 
ENDBRANCH   7   8
ENDBRANCH   5   7
ENDBRANCH   2   5
BRANCH   1  14
ATOM     14  C   UNL     1       3.354   7.735  17.388  0.00  0.00    +0.000 C 
BRANCH  14  18
ATOM     15  C   UNL     1      -0.137  10.747  19.409  0.00  0.00    +0.000 C 
ATOM     16  C   UNL     1       0.748   9.541  19.507  0.00  0.00    +0.000 A 
ATOM     17  C   UNL     1       1.596   9.207  18.441  0.00  0.00    +0.000 A 
ATOM     18  C   UNL     1       2.423   8.083  18.512  0.00  0.00    +0.000 A 
ATOM     19  C   UNL     1       2.348   7.322  19.669  0.00  0.00    +0.000 A 
ATOM     20  N   UNL     1       1.549   7.612  20.721  0.00  0.00    +0.000 NA
ATOM     21  C   UNL     1       0.763   8.714  20.635  0.00  0.00    +0.000 A 
ATOM     22  C   UNL     1      -0.106   8.997  21.826  0.00  0.00    +0.000 C 
ENDBRANCH  14  18
ENDBRANCH   1  14
TORSDOF 5
ENDMDL
MODEL 3
REMARK VINA RESULT:      -6.7      1.799      2.992
REMARK  Name = 
REMARK  8 active torsions:
REMARK  status: ('A' for Active; 'I' for Inactive)
REMARK    1  A    between atoms: C_1  and  C_2
REMARK    2  A    between atoms: C_4  and  C_5
REMARK    3  A    between atoms: C_5  and  N_6
REMARK    4  A    between atoms: C_7  and  C_9
REMARK    5  A    between atoms: C_9  and  C_10
REMARK    6  A    between atoms: C_9  and  C_11
REMARK    7  A    between atoms: C_11  and  N_12
REMARK    8  A    between atoms: C_20  and  C_21
REMARK                            x       y       z     vdW  Elec       q    Type
REMARK                         _______ _______ _______ _____ _____    ______ ____
ROOT
ATOM      1  N   UNL     1       3.909   3.736  16.475  0.00  0.00    +0.000 N 
ATOM      2  C   UNL     1       3.294   3.164  17.568  0.00  0.00    +0.000 C 
ATOM      3  O   UNL     1       3.886   2.405  18.342  0.00  0.00    +0.000 OA
ATOM      4  H   UNL     1       3.397   4.410  15.923  0.00  0.00    +0.000 HD
ENDROOT
BRANCH   2   5
ATOM      5  C   UNL     1       1.823   3.495  17.715  0.00  0.00    +0.000 C 
ATOM      6  C   UNL     1       1.242   2.478  18.719  0.00  0.00    +0.000 C 
BRANCH   5   7
ATOM      7  C   UNL     1       1.595   4.941  18.219  0.00  0.00    +0.000 C 
BRANCH   7   8
ATOM      8  N   UNL     1       2.734   5.689  18.808  0.00  0.00    +0.000 NA
ATOM      9  C   UNL     1       2.549   6.213  20.186  0.00  0.00    +0.000 C 
ATOM     10  C   UNL     1       1.633   7.448  20.336  0.00  0.00    +0.000 C 
ATOM     11  O   UNL     1       2.008   8.504  19.441  0.00  0.00    +0.000 OA
ATOM     12  C   UNL     1       2.052   8.027  18.093  0.00  0.00    +0.000 C 
ATOM     13  C   UNL     1       3.061   6.871  17.961  0.00  0.00    +0.000 C 
ENDBRANCH   7   8
ENDBRANCH   5   7
ENDBRANCH   2   5
BRANCH   1  14
ATOM     14  C   UNL     1       5.333   3.612  16.263  0.00  0.00    +0.000 C 
BRANCH  14  18
ATOM     15  C   UNL     1       8.223   5.712  19.810  0.00  0.00    +0.000 C 
ATOM     16  C   UNL     1       7.495   5.814  18.503  0.00  0.00    +0.000 A 
ATOM     17  C   UNL     1       6.792   4.708  18.006  0.00  0.00    +0.000 A 
ATOM     18  C   UNL     1       6.113   4.782  16.787  0.00  0.00    +0.000 A 
ATOM     19  C   UNL     1       6.185   5.985  16.102  0.00  0.00    +0.000 A 
ATOM     20  N   UNL     1       6.848   7.077  16.548  0.00  0.00    +0.000 NA
ATOM     21  C   UNL     1       7.490   6.986  17.739  0.00  0.00    +0.000 A 
ATOM     22  C   UNL     1       8.211   8.222  18.194  0.00  0.00    +0.000 C 
ENDBRANCH  14  18
ENDBRANCH   1  14
TORSDOF 5
ENDMDL
MODEL 4
REMARK VINA RESULT:      -6.7      3.400      8.566
REMARK  Name = 
REMARK  8 active torsions:
REMARK  status: ('A' for Active; 'I' for Inactive)
REMARK    1  A    between atoms: C_1  and  C_2
REMARK    2  A    between atoms: C_4  and  C_5
REMARK    3  A    between atoms: C_5  and  N_6
REMARK    4  A    between atoms: C_7  and  C_9
REMARK    5  A    between atoms: C_9  and  C_10
REMARK    6  A    between atoms: C_9  and  C_11
REMARK    7  A    between atoms: C_11  and  N_12
REMARK    8  A    between atoms: C_20  and  C_21
REMARK                            x       y       z     vdW  Elec       q    Type
REMARK                         _______ _______ _______ _____ _____    ______ ____
ROOT
ATOM      1  N   UNL     1       2.069   7.427  20.110  0.00  0.00    +0.000 N 
ATOM      2  C   UNL     1       2.502   6.218  19.611  0.00  0.00    +0.000 C 
ATOM      3  O   UNL     1       2.398   5.161  20.243  0.00  0.00    +0.000 OA
ATOM      4  H   UNL     1       2.108   8.244  19.517  0.00  0.00    +0.000 HD
ENDROOT
BRANCH   2   5
ATOM      5  C   UNL     1       3.166   6.293  18.251  0.00  0.00    +0.000 C 
ATOM      6  C   UNL     1       3.099   7.769  17.810  0.00  0.00    +0.000 C 
BRANCH   5   7
ATOM      7  C   UNL     1       4.636   5.807  18.289  0.00  0.00    +0.000 C 
BRANCH   7   8
ATOM      8  N   UNL     1       5.615   6.393  17.339  0.00  0.00    +0.000 NA
ATOM      9  C   UNL     1       5.712   5.754  16.001  0.00  0.00    +0.000 C 
ATOM     10  C   UNL     1       6.436   4.391  15.940  0.00  0.00    +0.000 C 
ATOM     11  O   UNL     1       7.723   4.440  16.570  0.00  0.00    +0.000 OA
ATOM     12  C   UNL     1       7.606   4.927  17.909  0.00  0.00    +0.000 C 
ATOM     13  C   UNL     1       6.986   6.337  17.920  0.00  0.00    +0.000 C 
ENDBRANCH   7   8
ENDBRANCH   5   7
ENDBRANCH   2   5
BRANCH   1  14
ATOM     14  C   UNL     1       1.312   7.504  21.340  0.00  0.00    +0.000 C 
BRANCH  14  18
ATOM     15  C   UNL     1      -0.455  11.862  19.542  0.00  0.00    +0.000 C 
ATOM     16  C   UNL     1      -0.159  10.965  20.706  0.00  0.00    +0.000 A 
ATOM     17  C   UNL     1       0.405   9.699  20.489  0.00  0.00    +0.000 A 
ATOM     18  C   UNL     1       0.682   8.848  21.562  0.00  0.00    +0.000 A 
ATOM     19  C   UNL     1       0.360   9.310  22.829  0.00  0.00    +0.000 A 
ATOM     20  N   UNL     1      -0.180  10.525  23.082  0.00  0.00    +0.000 NA
ATOM     21  C   UNL     1      -0.429  11.340  22.027  0.00  0.00    +0.000 A 
ATOM     22  C   UNL     1      -1.027  12.677  22.356  0.00  0.00    +0.000 C 
ENDBRANCH  14  18
ENDBRANCH   1  14
TORSDOF 5
ENDMDL
MODEL 5
REMARK VINA RESULT:      -6.7      2.363      6.989
REMARK  Name = 
REMARK  8 active torsions:
REMARK  status: ('A' for Active; 'I' for Inactive)
REMARK    1  A    between atoms: C_1  and  C_2
REMARK    2  A    between atoms: C_4  and  C_5
REMARK    3  A    between atoms: C_5  and  N_6
REMARK    4  A    between atoms: C_7  and  C_9
REMARK    5  A    between atoms: C_9  and  C_10
REMARK    6  A    between atoms: C_9  and  C_11
REMARK    7  A    between atoms: C_11  and  N_12
REMARK    8  A    between atoms: C_20  and  C_21
REMARK                            x       y       z     vdW  Elec       q    Type
REMARK                         _______ _______ _______ _____ _____    ______ ____
ROOT
ATOM      1  N   UNL     1       2.868   5.159  19.480  0.00  0.00    +0.000 N 
ATOM      2  C   UNL     1       3.142   3.811  19.567  0.00  0.00    +0.000 C 
ATOM      3  O   UNL     1       2.990   3.167  20.611  0.00  0.00    +0.000 OA
ATOM      4  H   UNL     1       2.935   5.615  18.581  0.00  0.00    +0.000 HD
ENDROOT
BRANCH   2   5
ATOM      5  C   UNL     1       3.698   3.192  18.300  0.00  0.00    +0.000 C 
ATOM      6  C   UNL     1       2.577   3.272  17.244  0.00  0.00    +0.000 C 
BRANCH   5   7
ATOM      7  C   UNL     1       4.966   3.925  17.798  0.00  0.00    +0.000 C 
BRANCH   7   8
ATOM      8  N   UNL     1       4.831   4.964  16.746  0.00  0.00    +0.000 NA
ATOM      9  C   UNL     1       5.441   4.661  15.425  0.00  0.00    +0.000 C 
ATOM     10  C   UNL     1       6.981   4.747  15.343  0.00  0.00    +0.000 C 
ATOM     11  O   UNL     1       7.476   5.993  15.854  0.00  0.00    +0.000 OA
ATOM     12  C   UNL     1       6.995   6.216  17.182  0.00  0.00    +0.000 C 
ATOM     13  C   UNL     1       5.455   6.238  17.203  0.00  0.00    +0.000 C 
ENDBRANCH   7   8
ENDBRANCH   5   7
ENDBRANCH   2   5
BRANCH   1  14
ATOM     14  C   UNL     1       2.224   5.866  20.564  0.00  0.00    +0.000 C 
BRANCH  14  18
ATOM     15  C   UNL     1      -0.034  10.213  21.724  0.00  0.00    +0.000 C 
ATOM     16  C   UNL     1       0.718   9.365  20.744  0.00  0.00    +0.000 A 
ATOM     17  C   UNL     1       1.115   8.068  21.100  0.00  0.00    +0.000 A 
ATOM     18  C   UNL     1       1.822   7.265  20.200  0.00  0.00    +0.000 A 
ATOM     19  C   UNL     1       2.117   7.819  18.965  0.00  0.00    +0.000 A 
ATOM     20  N   UNL     1       1.749   9.063  18.579  0.00  0.00    +0.000 NA
ATOM     21  C   UNL     1       1.053   9.820  19.464  0.00  0.00    +0.000 A 
ATOM     22  C   UNL     1       0.666  11.192  18.993  0.00  0.00    +0.000 C 
ENDBRANCH  14  18
ENDBRANCH   1  14
TORSDOF 5
ENDMDL
MODEL 6
REMARK VINA RESULT:      -6.7      1.655      2.967
REMARK  Name = 
REMARK  8 active torsions:
REMARK  status: ('A' for Active; 'I' for Inactive)
REMARK    1  A    between atoms: C_1  and  C_2
REMARK    2  A    between atoms: C_4  and  C_5
REMARK    3  A    between atoms: C_5  and  N_6
REMARK    4  A    between atoms: C_7  and  C_9
REMARK    5  A    between atoms: C_9  and  C_10
REMARK    6  A    between atoms: C_9  and  C_11
REMARK    7  A    between atoms: C_11  and  N_12
REMARK    8  A    between atoms: C_20  and  C_21
REMARK                            x       y       z     vdW  Elec       q    Type
REMARK                         _______ _______ _______ _____ _____    ______ ____
ROOT
ATOM      1  N   UNL     1       4.412   4.454  17.813  0.00  0.00    +0.000 N 
ATOM      2  C   UNL     1       4.529   5.418  18.791  0.00  0.00    +0.000 C 
ATOM      3  O   UNL     1       5.561   5.573  19.453  0.00  0.00    +0.000 OA
ATOM      4  H   UNL     1       3.573   4.426  17.251  0.00  0.00    +0.000 HD
ENDROOT
BRANCH   2   5
ATOM      5  C   UNL     1       3.276   6.235  19.031  0.00  0.00    +0.000 C 
ATOM      6  C   UNL     1       3.260   7.340  17.955  0.00  0.00    +0.000 C 
BRANCH   5   7
ATOM      7  C   UNL     1       1.991   5.377  18.942  0.00  0.00    +0.000 C 
BRANCH   7   8
ATOM      8  N   UNL     1       1.405   4.821  20.188  0.00  0.00    +0.000 NA
ATOM      9  C   UNL     1       2.361   4.308  21.204  0.00  0.00    +0.000 C 
ATOM     10  C   UNL     1       3.037   2.954  20.892  0.00  0.00    +0.000 C 
ATOM     11  O   UNL     1       2.078   1.945  20.546  0.00  0.00    +0.000 OA
ATOM     12  C   UNL     1       1.247   2.392  19.472  0.00  0.00    +0.000 C 
ATOM     13  C   UNL     1       0.502   3.682  19.864  0.00  0.00    +0.000 C 
ENDBRANCH   7   8
ENDBRANCH   5   7
ENDBRANCH   2   5
BRANCH   1  14
ATOM     14  C   UNL     1       5.552   3.674  17.387  0.00  0.00    +0.000 C 
BRANCH  14  18
ATOM     15  C   UNL     1       5.858   3.366  12.372  0.00  0.00    +0.000 C 
ATOM     16  C   UNL     1       6.303   3.987  13.662  0.00  0.00    +0.000 A 
ATOM     17  C   UNL     1       5.735   3.567  14.873  0.00  0.00    +0.000 A 
ATOM     18  C   UNL     1       6.133   4.139  16.084  0.00  0.00    +0.000 A 
ATOM     19  C   UNL     1       7.092   5.139  16.020  0.00  0.00    +0.000 A 
ATOM     20  N   UNL     1       7.667   5.571  14.874  0.00  0.00    +0.000 NA
ATOM     21  C   UNL     1       7.274   4.992  13.711  0.00  0.00    +0.000 A 
ATOM     22  C   UNL     1       7.941   5.502  12.466  0.00  0.00    +0.000 C 
ENDBRANCH  14  18
ENDBRANCH   1  14
TORSDOF 5
ENDMDL
MODEL 7
REMARK VINA RESULT:      -6.6      5.567      7.241
REMARK  Name = 
REMARK  8 active torsions:
REMARK  status: ('A' for Active; 'I' for Inactive)
REMARK    1  A    between atoms: C_1  and  C_2
REMARK    2  A    between atoms: C_4  and  C_5
REMARK    3  A    between atoms: C_5  and  N_6
REMARK    4  A    between atoms: C_7  and  C_9
REMARK    5  A    between atoms: C_9  and  C_10
REMARK    6  A    between atoms: C_9  and  C_11
REMARK    7  A    between atoms: C_11  and  N_12
REMARK    8  A    between atoms: C_20  and  C_21
REMARK                            x       y       z     vdW  Elec       q    Type
REMARK                         _______ _______ _______ _____ _____    ______ ____
ROOT
ATOM      1  N   UNL     1       8.090   7.903  18.052  0.00  0.00    +0.000 N 
ATOM      2  C   UNL     1       7.336   6.868  17.543  0.00  0.00    +0.000 C 
ATOM      3  O   UNL     1       6.488   7.034  16.660  0.00  0.00    +0.000 OA
ATOM      4  H   UNL     1       8.822   7.695  18.716  0.00  0.00    +0.000 HD
ENDROOT
BRANCH   2   5
ATOM      5  C   UNL     1       7.587   5.521  18.191  0.00  0.00    +0.000 C 
ATOM      6  C   UNL     1       7.913   5.799  19.672  0.00  0.00    +0.000 C 
BRANCH   5   7
ATOM      7  C   UNL     1       6.364   4.578  18.075  0.00  0.00    +0.000 C 
BRANCH   7   8
ATOM      8  N   UNL     1       5.434   4.456  19.226  0.00  0.00    +0.000 NA
ATOM      9  C   UNL     1       4.741   3.151  19.388  0.00  0.00    +0.000 C 
ATOM     10  C   UNL     1       3.591   2.855  18.400  0.00  0.00    +0.000 C 
ATOM     11  O   UNL     1       2.641   3.929  18.347  0.00  0.00    +0.000 OA
ATOM     12  C   UNL     1       3.298   5.164  18.053  0.00  0.00    +0.000 C 
ATOM     13  C   UNL     1       4.359   5.481  19.124  0.00  0.00    +0.000 C 
ENDBRANCH   7   8
ENDBRANCH   5   7
ENDBRANCH   2   5
BRANCH   1  14
ATOM     14  C   UNL     1       8.051   9.222  17.461  0.00  0.00    +0.000 C 
BRANCH  14  18
ATOM     15  C   UNL     1       9.606  13.960  18.151  0.00  0.00    +0.000 C 
ATOM     16  C   UNL     1       9.463  12.556  18.657  0.00  0.00    +0.000 A 
ATOM     17  C   UNL     1       8.839  11.585  17.861  0.00  0.00    +0.000 A 
ATOM     18  C   UNL     1       8.691  10.273  18.319  0.00  0.00    +0.000 A 
ATOM     19  C   UNL     1       9.174   9.995  19.589  0.00  0.00    +0.000 A 
ATOM     20  N   UNL     1       9.787  10.900  20.387  0.00  0.00    +0.000 NA
ATOM     21  C   UNL     1       9.930  12.164  19.916  0.00  0.00    +0.000 A 
ATOM     22  C   UNL     1      10.616  13.133  20.835  0.00  0.00    +0.000 C 
ENDBRANCH  14  18
ENDBRANCH   1  14
TORSDOF 5
ENDMDL
MODEL 8
REMARK VINA RESULT:      -6.6      2.729      7.700
REMARK  Name = 
REMARK  8 active torsions:
REMARK  status: ('A' for Active; 'I' for Inactive)
REMARK    1  A    between atoms: C_1  and  C_2
REMARK    2  A    between atoms: C_4  and  C_5
REMARK    3  A    between atoms: C_5  and  N_6
REMARK    4  A    between atoms: C_7  and  C_9
REMARK    5  A    between atoms: C_9  and  C_10
REMARK    6  A    between atoms: C_9  and  C_11
REMARK    7  A    between atoms: C_11  and  N_12
REMARK    8  A    between atoms: C_20  and  C_21
REMARK                            x       y       z     vdW  Elec       q    Type
REMARK                         _______ _______ _______ _____ _____    ______ ____
ROOT
ATOM      1  N   UNL     1       2.920   6.511  19.047  0.00  0.00    +0.000 N 
ATOM      2  C   UNL     1       2.506   5.307  18.519  0.00  0.00    +0.000 C 
ATOM      3  O   UNL     1       1.558   5.217  17.730  0.00  0.00    +0.000 OA
ATOM      4  H   UNL     1       3.749   6.532  19.624  0.00  0.00    +0.000 HD
ENDROOT
BRANCH   2   5
ATOM      5  C   UNL     1       3.265   4.097  19.023  0.00  0.00    +0.000 C 
ATOM      6  C   UNL     1       2.491   2.856  18.533  0.00  0.00    +0.000 C 
BRANCH   5   7
ATOM      7  C   UNL     1       4.724   4.062  18.504  0.00  0.00    +0.000 C 
BRANCH   7   8
ATOM      8  N   UNL     1       5.234   5.206  17.706  0.00  0.00    +0.000 NA
ATOM      9  C   UNL     1       5.365   4.993  16.241  0.00  0.00    +0.000 C 
ATOM     10  C   UNL     1       6.548   4.114  15.777  0.00  0.00    +0.000 C 
ATOM     11  O   UNL     1       7.793   4.553  16.337  0.00  0.00    +0.000 OA
ATOM     12  C   UNL     1       7.703   4.624  17.762  0.00  0.00    +0.000 C 
ATOM     13  C   UNL     1       6.588   5.599  18.186  0.00  0.00    +0.000 C 
ENDBRANCH   7   8
ENDBRANCH   5   7
ENDBRANCH   2   5
BRANCH   1  14
ATOM     14  C   UNL     1       2.375   7.765  18.578  0.00  0.00    +0.000 C 
BRANCH  14  18
ATOM     15  C   UNL     1      -0.621  11.577  19.929  0.00  0.00    +0.000 C 
ATOM     16  C   UNL     1       0.133  10.332  20.287  0.00  0.00    +0.000 A 
ATOM     17  C   UNL     1       0.863   9.650  19.304  0.00  0.00    +0.000 A 
ATOM     18  C   UNL     1       1.567   8.484  19.618  0.00  0.00    +0.000 A 
ATOM     19  C   UNL     1       1.491   8.040  20.929  0.00  0.00    +0.000 A 
ATOM     20  N   UNL     1       0.803   8.670  21.909  0.00  0.00    +0.000 NA
ATOM     21  C   UNL     1       0.137   9.807  21.583  0.00  0.00    +0.000 A 
ATOM     22  C   UNL     1      -0.612  10.472  22.702  0.00  0.00    +0.000 C 
ENDBRANCH  14  18
ENDBRANCH   1  14
TORSDOF 5
ENDMDL
MODEL 9
REMARK VINA RESULT:      -6.5      3.008      7.254
REMARK  Name = 
REMARK  8 active torsions:
REMARK  status: ('A' for Active; 'I' for Inactive)
REMARK    1  A    between atoms: C_1  and  C_2
REMARK    2  A    between atoms: C_4  and  C_5
REMARK    3  A    between atoms: C_5  and  N_6
REMARK    4  A    between atoms: C_7  and  C_9
REMARK    5  A    between atoms: C_9  and  C_10
REMARK    6  A    between atoms: C_9  and  C_11
REMARK    7  A    between atoms: C_11  and  N_12
REMARK    8  A    between atoms: C_20  and  C_21
REMARK                            x       y       z     vdW  Elec       q    Type
REMARK                         _______ _______ _______ _____ _____    ______ ____
ROOT
ATOM      1  N   UNL     1       2.973   6.615  17.900  0.00  0.00    +0.000 N 
ATOM      2  C   UNL     1       4.221   6.178  17.513  0.00  0.00    +0.000 C 
ATOM      3  O   UNL     1       5.069   6.932  17.024  0.00  0.00    +0.000 OA
ATOM      4  H   UNL     1       2.351   5.970  18.366  0.00  0.00    +0.000 HD
ENDROOT
BRANCH   2   5
ATOM      5  C   UNL     1       4.453   4.690  17.683  0.00  0.00    +0.000 C 
ATOM      6  C   UNL     1       5.919   4.425  17.283  0.00  0.00    +0.000 C 
BRANCH   5   7
ATOM      7  C   UNL     1       4.197   4.218  19.135  0.00  0.00    +0.000 C 
BRANCH   7   8
ATOM      8  N   UNL     1       3.615   2.872  19.366  0.00  0.00    +0.000 NA
ATOM      9  C   UNL     1       2.586   2.414  18.395  0.00  0.00    +0.000 C 
ATOM     10  C   UNL     1       1.189   3.062  18.516  0.00  0.00    +0.000 C 
ATOM     11  O   UNL     1       0.683   2.997  19.857  0.00  0.00    +0.000 OA
ATOM     12  C   UNL     1       1.621   3.567  20.774  0.00  0.00    +0.000 C 
ATOM     13  C   UNL     1       2.966   2.819  20.706  0.00  0.00    +0.000 C 
ENDBRANCH   7   8
ENDBRANCH   5   7
ENDBRANCH   2   5
BRANCH   1  14
ATOM     14  C   UNL     1       2.640   8.022  17.911  0.00  0.00    +0.000 C 
BRANCH  14  18
ATOM     15  C   UNL     1      -0.581  11.181  20.144  0.00  0.00    +0.000 C 
ATOM     16  C   UNL     1       0.284   9.958  20.200  0.00  0.00    +0.000 A 
ATOM     17  C   UNL     1       1.020   9.569  19.072  0.00  0.00    +0.000 A 
ATOM     18  C   UNL     1       1.827   8.428  19.105  0.00  0.00    +0.000 A 
ATOM     19  C   UNL     1       1.846   7.708  20.289  0.00  0.00    +0.000 A 
ATOM     20  N   UNL     1       1.156   8.051  21.401  0.00  0.00    +0.000 NA
ATOM     21  C   UNL     1       0.389   9.168  21.350  0.00  0.00    +0.000 A 
ATOM     22  C   UNL     1      -0.358   9.511  22.607  0.00  0.00    +0.000 C 
ENDBRANCH  14  18
ENDBRANCH   1  14
TORSDOF 5
ENDMDL
