MODEL 1
REMARK VINA RESULT:      -8.1      0.000      0.000
REMARK  Name = 
REMARK  3 active torsions:
REMARK  status: ('A' for Active; 'I' for Inactive)
REMARK    1  A    between atoms: C_12  and  C_13
REMARK    2  A    between atoms: C_17  and  O_18
REMARK    3  A    between atoms: C_20  and  O_21
REMARK                            x       y       z     vdW  Elec       q    Type
REMARK                         _______ _______ _______ _____ _____    ______ ____
ROOT
ATOM      1  O   UNL     1       0.961  11.843  18.717  0.00  0.00    +0.000 OA
ATOM      2  C   UNL     1       1.056  10.736  19.235  0.00  0.00    +0.000 C 
ATOM      3  C   UNL     1       0.487  10.479  20.601  0.00  0.00    +0.000 A 
ATOM      4  C   UNL     1      -0.227  11.485  21.263  0.00  0.00    +0.000 A 
ATOM      5  C   UNL     1      -0.801  11.229  22.512  0.00  0.00    +0.000 A 
ATOM      6  C   UNL     1      -0.675   9.973  23.109  0.00  0.00    +0.000 A 
ATOM      7  C   UNL     1       0.045   8.972  22.469  0.00  0.00    +0.000 A 
ATOM      8  C   UNL     1       0.636   9.226  21.225  0.00  0.00    +0.000 A 
ATOM      9  C   UNL     1       1.420   8.135  20.592  0.00  0.00    +0.000 C 
ATOM     10  O   UNL     1       1.675   7.122  21.229  0.00  0.00    +0.000 OA
ATOM     11  C   UNL     1       1.832   8.358  19.235  0.00  0.00    +0.000 A 
ATOM     12  C   UNL     1       2.438   7.546  18.240  0.00  0.00    +0.000 A 
ATOM     13  N   UNL     1       2.622   8.263  17.115  0.00  0.00    +0.000 NA
ATOM     14  O   UNL     1       2.145   9.547  17.380  0.00  0.00    +0.000 OA
ATOM     15  C   UNL     1       1.663   9.581  18.643  0.00  0.00    +0.000 A 
ENDROOT
BRANCH  12  16
ATOM     16  C   UNL     1       2.809   6.135  18.389  0.00  0.00    +0.000 A 
ATOM     17  C   UNL     1       1.794   5.215  18.712  0.00  0.00    +0.000 A 
ATOM     18  C   UNL     1       2.111   3.954  19.205  0.00  0.00    +0.000 A 
ATOM     19 CL   UNL     1       0.853   2.941  19.811  0.00  0.00    +0.000 Cl
ATOM     20  C   UNL     1       3.442   3.553  19.271  0.00  0.00    +0.000 A 
ATOM     21  C   UNL     1       4.454   4.391  18.815  0.00  0.00    +0.000 A 
ATOM     22  C   UNL     1       4.139   5.688  18.393  0.00  0.00    +0.000 A 
BRANCH  20  23
ATOM     23  O   UNL     1       3.805   2.353  19.815  0.00  0.00    +0.000 OA
ATOM     24  H   UNL     1       4.769   2.391  19.969  0.00  0.00    +0.000 HD
ENDBRANCH  20  23
BRANCH  22  25
ATOM     25  O   UNL     1       5.154   6.535  18.049  0.00  0.00    +0.000 OA
ATOM     26  H   UNL     1       4.784   7.363  17.698  0.00  0.00    +0.000 HD
ENDBRANCH  22  25
ENDBRANCH  12  16
TORSDOF 3
ENDMDL
MODEL 2
REMARK VINA RESULT:      -7.8      5.160      8.470
REMARK  Name = 
REMARK  3 active torsions:
REMARK  status: ('A' for Active; 'I' for Inactive)
REMARK    1  A    between atoms: C_12  and  C_13
REMARK    2  A    between atoms: C_17  and  O_18
REMARK    3  A    between atoms: C_20  and  O_21
REMARK                            x       y       z     vdW  Elec       q    Type
REMARK                         _______ _______ _______ _____ _____    ______ ____
ROOT
ATOM      1  O   UNL     1       0.436   9.633  18.021  0.00  0.00    +0.000 OA
ATOM      2  C   UNL     1      -0.435  10.288  18.581  0.00  0.00    +0.000 C 
ATOM      3  C   UNL     1      -1.738  10.577  17.891  0.00  0.00    +0.000 A 
ATOM      4  C   UNL     1      -1.997  10.034  16.627  0.00  0.00    +0.000 A 
ATOM      5  C   UNL     1      -3.230  10.260  16.008  0.00  0.00    +0.000 A 
ATOM      6  C   UNL     1      -4.214  11.022  16.640  0.00  0.00    +0.000 A 
ATOM      7  C   UNL     1      -3.962  11.581  17.887  0.00  0.00    +0.000 A 
ATOM      8  C   UNL     1      -2.724  11.371  18.507  0.00  0.00    +0.000 A 
ATOM      9  C   UNL     1      -2.490  12.012  19.826  0.00  0.00    +0.000 C 
ATOM     10  O   UNL     1      -3.292  12.829  20.255  0.00  0.00    +0.000 OA
ATOM     11  C   UNL     1      -1.301  11.608  20.522  0.00  0.00    +0.000 A 
ATOM     12  C   UNL     1      -0.792  11.842  21.827  0.00  0.00    +0.000 A 
ATOM     13  N   UNL     1       0.396  11.225  21.971  0.00  0.00    +0.000 NA
ATOM     14  O   UNL     1       0.668  10.597  20.756  0.00  0.00    +0.000 OA
ATOM     15  C   UNL     1      -0.362  10.822  19.909  0.00  0.00    +0.000 A 
ENDROOT
BRANCH  12  16
ATOM     16  C   UNL     1      -1.448  12.626  22.878  0.00  0.00    +0.000 A 
ATOM     17  C   UNL     1      -2.632  12.116  23.443  0.00  0.00    +0.000 A 
ATOM     18  C   UNL     1      -3.482  12.942  24.171  0.00  0.00    +0.000 A 
ATOM     19 CL   UNL     1      -5.032  12.352  24.646  0.00  0.00    +0.000 Cl
ATOM     20  C   UNL     1      -3.105  14.252  24.445  0.00  0.00    +0.000 A 
ATOM     21  C   UNL     1      -1.869  14.733  24.025  0.00  0.00    +0.000 A 
ATOM     22  C   UNL     1      -1.050  13.926  23.226  0.00  0.00    +0.000 A 
BRANCH  20  23
ATOM     23  O   UNL     1      -3.938  15.120  25.095  0.00  0.00    +0.000 OA
ATOM     24  H   UNL     1      -4.636  14.582  25.517  0.00  0.00    +0.000 HD
ENDBRANCH  20  23
BRANCH  22  25
ATOM     25  O   UNL     1       0.113  14.449  22.734  0.00  0.00    +0.000 OA
ATOM     26  H   UNL     1       0.659  14.776  23.467  0.00  0.00    +0.000 HD
ENDBRANCH  22  25
ENDBRANCH  12  16
TORSDOF 3
ENDMDL
MODEL 3
REMARK VINA RESULT:      -7.5      3.228      5.070
REMARK  Name = 
REMARK  3 active torsions:
REMARK  status: ('A' for Active; 'I' for Inactive)
REMARK    1  A    between atoms: C_12  and  C_13
REMARK    2  A    between atoms: C_17  and  O_18
REMARK    3  A    between atoms: C_20  and  O_21
REMARK                            x       y       z     vdW  Elec       q    Type
REMARK                         _______ _______ _______ _____ _____    ______ ____
ROOT
ATOM      1  O   UNL     1       1.817   4.441  21.441  0.00  0.00    +0.000 OA
ATOM      2  C   UNL     1       2.251   5.142  20.534  0.00  0.00    +0.000 C 
ATOM      3  C   UNL     1       1.790   6.563  20.378  0.00  0.00    +0.000 A 
ATOM      4  C   UNL     1       0.915   7.122  21.317  0.00  0.00    +0.000 A 
ATOM      5  C   UNL     1       0.527   8.461  21.200  0.00  0.00    +0.000 A 
ATOM      6  C   UNL     1       1.008   9.253  20.156  0.00  0.00    +0.000 A 
ATOM      7  C   UNL     1       1.864   8.703  19.209  0.00  0.00    +0.000 A 
ATOM      8  C   UNL     1       2.245   7.360  19.310  0.00  0.00    +0.000 A 
ATOM      9  C   UNL     1       3.138   6.809  18.259  0.00  0.00    +0.000 C 
ATOM     10  O   UNL     1       3.378   7.470  17.258  0.00  0.00    +0.000 OA
ATOM     11  C   UNL     1       3.672   5.500  18.507  0.00  0.00    +0.000 A 
ATOM     12  C   UNL     1       4.651   4.694  17.867  0.00  0.00    +0.000 A 
ATOM     13  N   UNL     1       4.770   3.520  18.514  0.00  0.00    +0.000 NA
ATOM     14  O   UNL     1       3.861   3.554  19.570  0.00  0.00    +0.000 OA
ATOM     15  C   UNL     1       3.226   4.748  19.561  0.00  0.00    +0.000 A 
ENDROOT
BRANCH  12  16
ATOM     16  C   UNL     1       5.433   5.068  16.684  0.00  0.00    +0.000 A 
ATOM     17  C   UNL     1       5.121   4.444  15.461  0.00  0.00    +0.000 A 
ATOM     18  C   UNL     1       6.018   4.478  14.399  0.00  0.00    +0.000 A 
ATOM     19 CL   UNL     1       5.713   3.510  13.003  0.00  0.00    +0.000 Cl
ATOM     20  C   UNL     1       7.183   5.231  14.502  0.00  0.00    +0.000 A 
ATOM     21  C   UNL     1       7.439   5.979  15.647  0.00  0.00    +0.000 A 
ATOM     22  C   UNL     1       6.575   5.881  16.744  0.00  0.00    +0.000 A 
BRANCH  20  23
ATOM     23  O   UNL     1       8.126   5.236  13.513  0.00  0.00    +0.000 OA
ATOM     24  H   UNL     1       8.909   5.700  13.870  0.00  0.00    +0.000 HD
ENDBRANCH  20  23
BRANCH  22  25
ATOM     25  O   UNL     1       6.896   6.538  17.898  0.00  0.00    +0.000 OA
ATOM     26  H   UNL     1       7.836   6.783  17.883  0.00  0.00    +0.000 HD
ENDBRANCH  22  25
ENDBRANCH  12  16
TORSDOF 3
ENDMDL
MODEL 4
REMARK VINA RESULT:      -7.5      2.615      3.873
REMARK  Name = 
REMARK  3 active torsions:
REMARK  status: ('A' for Active; 'I' for Inactive)
REMARK    1  A    between atoms: C_12  and  C_13
REMARK    2  A    between atoms: C_17  and  O_18
REMARK    3  A    between atoms: C_20  and  O_21
REMARK                            x       y       z     vdW  Elec       q    Type
REMARK                         _______ _______ _______ _____ _____    ______ ____
ROOT
ATOM      1  O   UNL     1      -0.106   8.251  21.804  0.00  0.00    +0.000 OA
ATOM      2  C   UNL     1       0.686   8.151  20.873  0.00  0.00    +0.000 C 
ATOM      3  C   UNL     1       0.957   9.321  19.971  0.00  0.00    +0.000 A 
ATOM      4  C   UNL     1       0.363  10.561  20.233  0.00  0.00    +0.000 A 
ATOM      5  C   UNL     1       0.658  11.662  19.424  0.00  0.00    +0.000 A 
ATOM      6  C   UNL     1       1.546  11.541  18.353  0.00  0.00    +0.000 A 
ATOM      7  C   UNL     1       2.128  10.311  18.072  0.00  0.00    +0.000 A 
ATOM      8  C   UNL     1       1.827   9.200  18.870  0.00  0.00    +0.000 A 
ATOM      9  C   UNL     1       2.451   7.900  18.515  0.00  0.00    +0.000 C 
ATOM     10  O   UNL     1       3.061   7.787  17.461  0.00  0.00    +0.000 OA
ATOM     11  C   UNL     1       2.286   6.840  19.468  0.00  0.00    +0.000 A 
ATOM     12  C   UNL     1       2.830   5.534  19.598  0.00  0.00    +0.000 A 
ATOM     13  N   UNL     1       2.328   4.937  20.695  0.00  0.00    +0.000 NA
ATOM     14  O   UNL     1       1.447   5.849  21.276  0.00  0.00    +0.000 OA
ATOM     15  C   UNL     1       1.448   6.985  20.541  0.00  0.00    +0.000 A 
ENDROOT
BRANCH  12  16
ATOM     16  C   UNL     1       3.800   4.912  18.690  0.00  0.00    +0.000 A 
ATOM     17  C   UNL     1       5.167   5.166  18.908  0.00  0.00    +0.000 A 
ATOM     18  C   UNL     1       6.103   4.911  17.911  0.00  0.00    +0.000 A 
ATOM     19 CL   UNL     1       7.728   5.450  18.118  0.00  0.00    +0.000 Cl
ATOM     20  C   UNL     1       5.704   4.290  16.732  0.00  0.00    +0.000 A 
ATOM     21  C   UNL     1       4.382   3.893  16.557  0.00  0.00    +0.000 A 
ATOM     22  C   UNL     1       3.428   4.221  17.527  0.00  0.00    +0.000 A 
BRANCH  20  23
ATOM     23  O   UNL     1       6.573   4.085  15.697  0.00  0.00    +0.000 OA
ATOM     24  H   UNL     1       6.549   3.130  15.491  0.00  0.00    +0.000 HD
ENDBRANCH  20  23
BRANCH  22  25
ATOM     25  O   UNL     1       2.116   3.917  17.292  0.00  0.00    +0.000 OA
ATOM     26  H   UNL     1       1.561   4.317  17.982  0.00  0.00    +0.000 HD
ENDBRANCH  22  25
ENDBRANCH  12  16
TORSDOF 3
ENDMDL
MODEL 5
REMARK VINA RESULT:      -7.4      4.718      7.449
REMARK  Name = 
REMARK  3 active torsions:
REMARK  status: ('A' for Active; 'I' for Inactive)
REMARK    1  A    between atoms: C_12  and  C_13
REMARK    2  A    between atoms: C_17  and  O_18
REMARK    3  A    between atoms: C_20  and  O_21
REMARK                            x       y       z     vdW  Elec       q    Type
REMARK                         _______ _______ _______ _____ _____    ______ ____
ROOT
ATOM      1  O   UNL     1       8.138   6.583  16.126  0.00  0.00    +0.000 OA
ATOM      2  C   UNL     1       7.183   5.821  16.214  0.00  0.00    +0.000 C 
ATOM      3  C   UNL     1       6.698   5.059  15.013  0.00  0.00    +0.000 A 
ATOM      4  C   UNL     1       7.385   5.158  13.797  0.00  0.00    +0.000 A 
ATOM      5  C   UNL     1       6.965   4.408  12.694  0.00  0.00    +0.000 A 
ATOM      6  C   UNL     1       5.864   3.554  12.792  0.00  0.00    +0.000 A 
ATOM      7  C   UNL     1       5.165   3.462  13.988  0.00  0.00    +0.000 A 
ATOM      8  C   UNL     1       5.570   4.220  15.093  0.00  0.00    +0.000 A 
ATOM      9  C   UNL     1       4.775   4.110  16.343  0.00  0.00    +0.000 C 
ATOM     10  O   UNL     1       3.709   3.510  16.333  0.00  0.00    +0.000 OA
ATOM     11  C   UNL     1       5.337   4.734  17.506  0.00  0.00    +0.000 A 
ATOM     12  C   UNL     1       5.001   4.737  18.886  0.00  0.00    +0.000 A 
ATOM     13  N   UNL     1       5.869   5.509  19.566  0.00  0.00    +0.000 NA
ATOM     14  O   UNL     1       6.766   6.020  18.628  0.00  0.00    +0.000 OA
ATOM     15  C   UNL     1       6.444   5.534  17.408  0.00  0.00    +0.000 A 
ENDROOT
BRANCH  12  16
ATOM     16  C   UNL     1       3.886   4.009  19.502  0.00  0.00    +0.000 A 
ATOM     17  C   UNL     1       2.637   4.654  19.577  0.00  0.00    +0.000 A 
ATOM     18  C   UNL     1       1.649   4.187  20.436  0.00  0.00    +0.000 A 
ATOM     19 CL   UNL     1       0.225   5.129  20.680  0.00  0.00    +0.000 Cl
ATOM     20  C   UNL     1       1.851   3.006  21.143  0.00  0.00    +0.000 A 
ATOM     21  C   UNL     1       3.019   2.271  20.970  0.00  0.00    +0.000 A 
ATOM     22  C   UNL     1       4.043   2.783  20.165  0.00  0.00    +0.000 A 
BRANCH  20  23
ATOM     23  O   UNL     1       0.939   2.547  22.053  0.00  0.00    +0.000 OA
ATOM     24  H   UNL     1       0.120   3.064  21.920  0.00  0.00    +0.000 HD
ENDBRANCH  20  23
BRANCH  22  25
ATOM     25  O   UNL     1       5.226   2.102  20.089  0.00  0.00    +0.000 OA
ATOM     26  H   UNL     1       5.783   2.493  19.396  0.00  0.00    +0.000 HD
ENDBRANCH  22  25
ENDBRANCH  12  16
TORSDOF 3
ENDMDL
MODEL 6
REMARK VINA RESULT:      -7.4      1.695      1.991
REMARK  Name = 
REMARK  3 active torsions:
REMARK  status: ('A' for Active; 'I' for Inactive)
REMARK    1  A    between atoms: C_12  and  C_13
REMARK    2  A    between atoms: C_17  and  O_18
REMARK    3  A    between atoms: C_20  and  O_21
REMARK                            x       y       z     vdW  Elec       q    Type
REMARK                         _______ _______ _______ _____ _____    ______ ____
ROOT
ATOM      1  O   UNL     1       0.166  11.408  18.354  0.00  0.00    +0.000 OA
ATOM      2  C   UNL     1       0.504  10.493  19.097  0.00  0.00    +0.000 C 
ATOM      3  C   UNL     1       0.047  10.461  20.527  0.00  0.00    +0.000 A 
ATOM      4  C   UNL     1      -0.833  11.440  21.004  0.00  0.00    +0.000 A 
ATOM      5  C   UNL     1      -1.299  11.379  22.321  0.00  0.00    +0.000 A 
ATOM      6  C   UNL     1      -0.899  10.347  23.171  0.00  0.00    +0.000 A 
ATOM      7  C   UNL     1      -0.011   9.380  22.714  0.00  0.00    +0.000 A 
ATOM      8  C   UNL     1       0.471   9.442  21.401  0.00  0.00    +0.000 A 
ATOM      9  C   UNL     1       1.439   8.403  20.966  0.00  0.00    +0.000 C 
ATOM     10  O   UNL     1       1.918   7.636  21.790  0.00  0.00    +0.000 OA
ATOM     11  C   UNL     1       1.749   8.375  19.565  0.00  0.00    +0.000 A 
ATOM     12  C   UNL     1       2.473   7.483  18.730  0.00  0.00    +0.000 A 
ATOM     13  N   UNL     1       2.467   7.936  17.463  0.00  0.00    +0.000 NA
ATOM     14  O   UNL     1       1.748   9.131  17.472  0.00  0.00    +0.000 OA
ATOM     15  C   UNL     1       1.313   9.369  18.731  0.00  0.00    +0.000 A 
ENDROOT
BRANCH  12  16
ATOM     16  C   UNL     1       3.130   6.244  19.160  0.00  0.00    +0.000 A 
ATOM     17  C   UNL     1       4.504   6.096  18.890  0.00  0.00    +0.000 A 
ATOM     18  C   UNL     1       5.106   4.843  18.945  0.00  0.00    +0.000 A 
ATOM     19 CL   UNL     1       6.726   4.658  18.382  0.00  0.00    +0.000 Cl
ATOM     20  C   UNL     1       4.374   3.744  19.384  0.00  0.00    +0.000 A 
ATOM     21  C   UNL     1       3.055   3.896  19.800  0.00  0.00    +0.000 A 
ATOM     22  C   UNL     1       2.429   5.140  19.669  0.00  0.00    +0.000 A 
BRANCH  20  23
ATOM     23  O   UNL     1       4.902   2.484  19.386  0.00  0.00    +0.000 OA
ATOM     24  H   UNL     1       5.874   2.582  19.385  0.00  0.00    +0.000 HD
ENDBRANCH  20  23
BRANCH  22  25
ATOM     25  O   UNL     1       1.103   5.248  19.983  0.00  0.00    +0.000 OA
ATOM     26  H   UNL     1       1.005   5.392  20.939  0.00  0.00    +0.000 HD
ENDBRANCH  22  25
ENDBRANCH  12  16
TORSDOF 3
ENDMDL
MODEL 7
REMARK VINA RESULT:      -7.2      4.280      6.324
REMARK  Name = 
REMARK  3 active torsions:
REMARK  status: ('A' for Active; 'I' for Inactive)
REMARK    1  A    between atoms: C_12  and  C_13
REMARK    2  A    between atoms: C_17  and  O_18
REMARK    3  A    between atoms: C_20  and  O_21
REMARK                            x       y       z     vdW  Elec       q    Type
REMARK                         _______ _______ _______ _____ _____    ______ ____
ROOT
ATOM      1  O   UNL     1       2.754   6.823  19.814  0.00  0.00    +0.000 OA
ATOM      2  C   UNL     1       3.025   5.953  18.995  0.00  0.00    +0.000 C 
ATOM      3  C   UNL     1       2.462   4.567  19.137  0.00  0.00    +0.000 A 
ATOM      4  C   UNL     1       1.559   4.280  20.168  0.00  0.00    +0.000 A 
ATOM      5  C   UNL     1       0.994   3.005  20.268  0.00  0.00    +0.000 A 
ATOM      6  C   UNL     1       1.319   2.009  19.345  0.00  0.00    +0.000 A 
ATOM      7  C   UNL     1       2.227   2.277  18.328  0.00  0.00    +0.000 A 
ATOM      8  C   UNL     1       2.807   3.548  18.230  0.00  0.00    +0.000 A 
ATOM      9  C   UNL     1       3.794   3.780  17.144  0.00  0.00    +0.000 C 
ATOM     10  O   UNL     1       4.200   2.836  16.481  0.00  0.00    +0.000 OA
ATOM     11  C   UNL     1       4.207   5.140  16.946  0.00  0.00    +0.000 A 
ATOM     12  C   UNL     1       4.982   5.804  15.958  0.00  0.00    +0.000 A 
ATOM     13  N   UNL     1       5.076   7.114  16.256  0.00  0.00    +0.000 NA
ATOM     14  O   UNL     1       4.372   7.303  17.445  0.00  0.00    +0.000 OA
ATOM     15  C   UNL     1       3.846   6.118  17.833  0.00  0.00    +0.000 A 
ENDROOT
BRANCH  12  16
ATOM     16  C   UNL     1       5.591   5.180  14.779  0.00  0.00    +0.000 A 
ATOM     17  C   UNL     1       4.743   4.795  13.723  0.00  0.00    +0.000 A 
ATOM     18  C   UNL     1       5.183   3.902  12.751  0.00  0.00    +0.000 A 
ATOM     19 CL   UNL     1       4.053   3.270  11.611  0.00  0.00    +0.000 Cl
ATOM     20  C   UNL     1       6.507   3.475  12.754  0.00  0.00    +0.000 A 
ATOM     21  C   UNL     1       7.402   3.961  13.701  0.00  0.00    +0.000 A 
ATOM     22  C   UNL     1       6.939   4.797  14.724  0.00  0.00    +0.000 A 
BRANCH  20  23
ATOM     23  O   UNL     1       6.964   2.545  11.864  0.00  0.00    +0.000 OA
ATOM     24  H   UNL     1       6.787   2.896  10.969  0.00  0.00    +0.000 HD
ENDBRANCH  20  23
BRANCH  22  25
ATOM     25  O   UNL     1       7.808   5.181  15.707  0.00  0.00    +0.000 OA
ATOM     26  H   UNL     1       8.345   4.419  15.983  0.00  0.00    +0.000 HD
ENDBRANCH  22  25
ENDBRANCH  12  16
TORSDOF 3
ENDMDL
MODEL 8
REMARK VINA RESULT:      -7.1      2.622      7.223
REMARK  Name = 
REMARK  3 active torsions:
REMARK  status: ('A' for Active; 'I' for Inactive)
REMARK    1  A    between atoms: C_12  and  C_13
REMARK    2  A    between atoms: C_17  and  O_18
REMARK    3  A    between atoms: C_20  and  O_21
REMARK                            x       y       z     vdW  Elec       q    Type
REMARK                         _______ _______ _______ _____ _____    ______ ____
ROOT
ATOM      1  O   UNL     1       3.716   2.205  17.844  0.00  0.00    +0.000 OA
ATOM      2  C   UNL     1       3.774   3.427  17.776  0.00  0.00    +0.000 C 
ATOM      3  C   UNL     1       4.671   4.095  16.773  0.00  0.00    +0.000 A 
ATOM      4  C   UNL     1       5.392   3.324  15.854  0.00  0.00    +0.000 A 
ATOM      5  C   UNL     1       6.186   3.949  14.887  0.00  0.00    +0.000 A 
ATOM      6  C   UNL     1       6.266   5.341  14.823  0.00  0.00    +0.000 A 
ATOM      7  C   UNL     1       5.568   6.117  15.741  0.00  0.00    +0.000 A 
ATOM      8  C   UNL     1       4.782   5.498  16.721  0.00  0.00    +0.000 A 
ATOM      9  C   UNL     1       4.077   6.367  17.698  0.00  0.00    +0.000 C 
ATOM     10  O   UNL     1       4.326   7.564  17.737  0.00  0.00    +0.000 OA
ATOM     11  C   UNL     1       3.124   5.714  18.551  0.00  0.00    +0.000 A 
ATOM     12  C   UNL     1       2.153   6.173  19.480  0.00  0.00    +0.000 A 
ATOM     13  N   UNL     1       1.514   5.123  20.028  0.00  0.00    +0.000 NA
ATOM     14  O   UNL     1       2.075   3.977  19.464  0.00  0.00    +0.000 OA
ATOM     15  C   UNL     1       3.022   4.349  18.573  0.00  0.00    +0.000 A 
ENDROOT
BRANCH  12  16
ATOM     16  C   UNL     1       1.867   7.574  19.805  0.00  0.00    +0.000 A 
ATOM     17  C   UNL     1       1.723   7.923  21.161  0.00  0.00    +0.000 A 
ATOM     18  C   UNL     1       1.119   9.122  21.525  0.00  0.00    +0.000 A 
ATOM     19 CL   UNL     1       0.745   9.412  23.183  0.00  0.00    +0.000 Cl
ATOM     20  C   UNL     1       0.759  10.039  20.542  0.00  0.00    +0.000 A 
ATOM     21  C   UNL     1       1.029   9.780  19.203  0.00  0.00    +0.000 A 
ATOM     22  C   UNL     1       1.565   8.541  18.833  0.00  0.00    +0.000 A 
BRANCH  20  23
ATOM     23  O   UNL     1       0.099  11.196  20.847  0.00  0.00    +0.000 OA
ATOM     24  H   UNL     1      -0.507  10.992  21.586  0.00  0.00    +0.000 HD
ENDBRANCH  20  23
BRANCH  22  25
ATOM     25  O   UNL     1       1.727   8.261  17.506  0.00  0.00    +0.000 OA
ATOM     26  H   UNL     1       0.886   7.943  17.135  0.00  0.00    +0.000 HD
ENDBRANCH  22  25
ENDBRANCH  12  16
TORSDOF 3
ENDMDL
MODEL 9
REMARK VINA RESULT:      -7.1      2.518      6.480
REMARK  Name = 
REMARK  3 active torsions:
REMARK  status: ('A' for Active; 'I' for Inactive)
REMARK    1  A    between atoms: C_12  and  C_13
REMARK    2  A    between atoms: C_17  and  O_18
REMARK    3  A    between atoms: C_20  and  O_21
REMARK                            x       y       z     vdW  Elec       q    Type
REMARK                         _______ _______ _______ _____ _____    ______ ____
ROOT
ATOM      1  O   UNL     1       4.657   5.422  17.174  0.00  0.00    +0.000 OA
ATOM      2  C   UNL     1       3.862   5.638  18.081  0.00  0.00    +0.000 C 
ATOM      3  C   UNL     1       3.562   4.579  19.104  0.00  0.00    +0.000 A 
ATOM      4  C   UNL     1       4.249   3.360  19.072  0.00  0.00    +0.000 A 
ATOM      5  C   UNL     1       4.008   2.396  20.055  0.00  0.00    +0.000 A 
ATOM      6  C   UNL     1       3.088   2.636  21.077  0.00  0.00    +0.000 A 
ATOM      7  C   UNL     1       2.387   3.835  21.109  0.00  0.00    +0.000 A 
ATOM      8  C   UNL     1       2.613   4.800  20.120  0.00  0.00    +0.000 A 
ATOM      9  C   UNL     1       1.820   6.055  20.178  0.00  0.00    +0.000 C 
ATOM     10  O   UNL     1       0.888   6.148  20.965  0.00  0.00    +0.000 OA
ATOM     11  C   UNL     1       2.222   7.099  19.279  0.00  0.00    +0.000 A 
ATOM     12  C   UNL     1       1.857   8.462  19.120  0.00  0.00    +0.000 A 
ATOM     13  N   UNL     1       2.544   9.003  18.097  0.00  0.00    +0.000 NA
ATOM     14  O   UNL     1       3.352   7.990  17.581  0.00  0.00    +0.000 OA
ATOM     15  C   UNL     1       3.160   6.866  18.309  0.00  0.00    +0.000 A 
ENDROOT
BRANCH  12  16
ATOM     16  C   UNL     1       0.884   9.193  19.939  0.00  0.00    +0.000 A 
ATOM     17  C   UNL     1      -0.151   9.883  19.279  0.00  0.00    +0.000 A 
ATOM     18  C   UNL     1      -0.884  10.862  19.941  0.00  0.00    +0.000 A 
ATOM     19 CL   UNL     1      -1.979  11.849  19.044  0.00  0.00    +0.000 Cl
ATOM     20  C   UNL     1      -0.674  11.083  21.298  0.00  0.00    +0.000 A 
ATOM     21  C   UNL     1       0.239  10.308  22.006  0.00  0.00    +0.000 A 
ATOM     22  C   UNL     1       1.031   9.378  21.322  0.00  0.00    +0.000 A 
BRANCH  20  23
ATOM     23  O   UNL     1      -1.319  12.082  21.972  0.00  0.00    +0.000 OA
ATOM     24  H   UNL     1      -2.277  11.941  21.841  0.00  0.00    +0.000 HD
ENDBRANCH  20  23
BRANCH  22  25
ATOM     25  O   UNL     1       1.996   8.700  22.012  0.00  0.00    +0.000 OA
ATOM     26  H   UNL     1       2.874   8.964  21.689  0.00  0.00    +0.000 HD
ENDBRANCH  22  25
ENDBRANCH  12  16
TORSDOF 3
ENDMDL
