MODEL 1
REMARK VINA RESULT:      -8.4      0.000      0.000
REMARK  Name = 
REMARK  4 active torsions:
REMARK  status: ('A' for Active; 'I' for Inactive)
REMARK    1  A    between atoms: C_1  and  C_2
REMARK    2  A    between atoms: C_5  and  N_6
REMARK    3  A    between atoms: C_11  and  C_12
REMARK    4  A    between atoms: C_15  and  O_16
REMARK                            x       y       z     vdW  Elec       q    Type
REMARK                         _______ _______ _______ _____ _____    ______ ____
ROOT
ATOM      1  N   UNL     1       6.774   6.127  18.138  0.00  0.00    +0.000 N 
ATOM      2  C   UNL     1       7.864   6.176  18.972  0.00  0.00    +0.000 C 
ATOM      3  O   UNL     1       8.270   5.286  19.710  0.00  0.00    +0.000 OA
ATOM      4  O   UNL     1       8.553   7.370  18.880  0.00  0.00    +0.000 OA
ATOM      5  C   UNL     1       7.843   8.053  17.918  0.00  0.00    +0.000 C 
ATOM      6  C   UNL     1       8.037   9.344  17.615  0.00  0.00    +0.000 C 
ATOM      7  C   UNL     1       6.756   7.239  17.351  0.00  0.00    +0.000 C 
ATOM      8  O   UNL     1       6.019   7.576  16.442  0.00  0.00    +0.000 OA
ENDROOT
BRANCH   1  13
ATOM      9  C   UNL     1       2.873   1.975  17.925  0.00  0.00    +0.000 C 
ATOM     10  C   UNL     1       3.873   3.088  18.016  0.00  0.00    +0.000 A 
ATOM     11  C   UNL     1       3.981   3.863  19.161  0.00  0.00    +0.000 A 
ATOM     12  C   UNL     1       4.958   4.860  19.212  0.00  0.00    +0.000 A 
ATOM     13  C   UNL     1       5.805   5.088  18.121  0.00  0.00    +0.000 A 
ATOM     14  C   UNL     1       5.602   4.271  17.013  0.00  0.00    +0.000 A 
ATOM     15  N   UNL     1       4.675   3.277  16.944  0.00  0.00    +0.000 NA
ENDBRANCH   1  13
BRANCH   6  16
ATOM     16  C   UNL     1       9.006  10.180  18.336  0.00  0.00    +0.000 A 
ATOM     17  C   UNL     1       9.072  10.171  19.733  0.00  0.00    +0.000 A 
ATOM     18  C   UNL     1       9.978  11.003  20.403  0.00  0.00    +0.000 A 
ATOM     19  C   UNL     1      10.816  11.847  19.675  0.00  0.00    +0.000 A 
ATOM     20  C   UNL     1      10.759  11.856  18.280  0.00  0.00    +0.000 A 
ATOM     21 BR   UNL     1      11.880  12.988  17.249  0.00  0.00    +0.000 Br
ATOM     22  C   UNL     1       9.858  11.024  17.612  0.00  0.00    +0.000 A 
BRANCH  19  23
ATOM     23  O   UNL     1      11.690  12.670  20.330  0.00  0.00    +0.000 OA
ATOM     24  H   UNL     1      11.506  13.593  20.096  0.00  0.00    +0.000 HD
ENDBRANCH  19  23
ENDBRANCH   6  16
TORSDOF 3
ENDMDL
MODEL 2
REMARK VINA RESULT:      -7.9      6.386      8.820
REMARK  Name = 
REMARK  4 active torsions:
REMARK  status: ('A' for Active; 'I' for Inactive)
REMARK    1  A    between atoms: C_1  and  C_2
REMARK    2  A    between atoms: C_5  and  N_6
REMARK    3  A    between atoms: C_11  and  C_12
REMARK    4  A    between atoms: C_15  and  O_16
REMARK                            x       y       z     vdW  Elec       q    Type
REMARK                         _______ _______ _______ _____ _____    ______ ____
ROOT
ATOM      1  N   UNL     1       1.124   9.391  19.385  0.00  0.00    +0.000 N 
ATOM      2  C   UNL     1       1.937   9.356  18.279  0.00  0.00    +0.000 C 
ATOM      3  O   UNL     1       2.065  10.229  17.428  0.00  0.00    +0.000 OA
ATOM      4  O   UNL     1       2.694   8.202  18.210  0.00  0.00    +0.000 OA
ATOM      5  C   UNL     1       2.325   7.532  19.356  0.00  0.00    +0.000 C 
ATOM      6  C   UNL     1       2.673   6.268  19.632  0.00  0.00    +0.000 C 
ATOM      7  C   UNL     1       1.394   8.319  20.181  0.00  0.00    +0.000 C 
ATOM      8  O   UNL     1       0.963   7.990  21.271  0.00  0.00    +0.000 OA
ENDROOT
BRANCH   1  13
ATOM      9  C   UNL     1      -2.792  13.365  20.559  0.00  0.00    +0.000 C 
ATOM     10  C   UNL     1      -1.797  12.294  20.229  0.00  0.00    +0.000 A 
ATOM     11  C   UNL     1      -2.021  11.403  19.189  0.00  0.00    +0.000 A 
ATOM     12  C   UNL     1      -1.043  10.451  18.894  0.00  0.00    +0.000 A 
ATOM     13  C   UNL     1       0.138  10.382  19.643  0.00  0.00    +0.000 A 
ATOM     14  C   UNL     1       0.257  11.307  20.676  0.00  0.00    +0.000 A 
ATOM     15  N   UNL     1      -0.668  12.259  20.971  0.00  0.00    +0.000 NA
ENDBRANCH   1  13
BRANCH   6  16
ATOM     16  C   UNL     1       3.448   5.447  18.694  0.00  0.00    +0.000 A 
ATOM     17  C   UNL     1       2.819   4.553  17.821  0.00  0.00    +0.000 A 
ATOM     18  C   UNL     1       3.578   3.752  16.960  0.00  0.00    +0.000 A 
ATOM     19  C   UNL     1       4.969   3.841  16.973  0.00  0.00    +0.000 A 
ATOM     20  C   UNL     1       5.605   4.735  17.837  0.00  0.00    +0.000 A 
ATOM     21 BR   UNL     1       7.494   4.891  17.889  0.00  0.00    +0.000 Br
ATOM     22  C   UNL     1       4.846   5.537  18.694  0.00  0.00    +0.000 A 
BRANCH  19  23
ATOM     23  O   UNL     1       5.712   3.049  16.142  0.00  0.00    +0.000 OA
ATOM     24  H   UNL     1       5.245   2.934  15.299  0.00  0.00    +0.000 HD
ENDBRANCH  19  23
ENDBRANCH   6  16
TORSDOF 3
ENDMDL
MODEL 3
REMARK VINA RESULT:      -7.7      1.205      1.536
REMARK  Name = 
REMARK  4 active torsions:
REMARK  status: ('A' for Active; 'I' for Inactive)
REMARK    1  A    between atoms: C_1  and  C_2
REMARK    2  A    between atoms: C_5  and  N_6
REMARK    3  A    between atoms: C_11  and  C_12
REMARK    4  A    between atoms: C_15  and  O_16
REMARK                            x       y       z     vdW  Elec       q    Type
REMARK                         _______ _______ _______ _____ _____    ______ ____
ROOT
ATOM      1  N   UNL     1       6.821   6.175  18.137  0.00  0.00    +0.000 N 
ATOM      2  C   UNL     1       7.893   6.256  18.991  0.00  0.00    +0.000 C 
ATOM      3  O   UNL     1       8.296   5.388  19.757  0.00  0.00    +0.000 OA
ATOM      4  O   UNL     1       8.568   7.457  18.886  0.00  0.00    +0.000 OA
ATOM      5  C   UNL     1       7.868   8.109  17.895  0.00  0.00    +0.000 C 
ATOM      6  C   UNL     1       8.052   9.397  17.568  0.00  0.00    +0.000 C 
ATOM      7  C   UNL     1       6.804   7.268  17.325  0.00  0.00    +0.000 C 
ATOM      8  O   UNL     1       6.081   7.575  16.395  0.00  0.00    +0.000 OA
ENDROOT
BRANCH   1  13
ATOM      9  C   UNL     1       2.974   1.972  17.940  0.00  0.00    +0.000 C 
ATOM     10  C   UNL     1       3.961   3.097  18.028  0.00  0.00    +0.000 A 
ATOM     11  C   UNL     1       4.089   3.849  19.186  0.00  0.00    +0.000 A 
ATOM     12  C   UNL     1       5.053   4.859  19.232  0.00  0.00    +0.000 A 
ATOM     13  C   UNL     1       5.866   5.122  18.123  0.00  0.00    +0.000 A 
ATOM     14  C   UNL     1       5.644   4.326  17.004  0.00  0.00    +0.000 A 
ATOM     15  N   UNL     1       4.729   3.321  16.939  0.00  0.00    +0.000 NA
ENDBRANCH   1  13
BRANCH   6  16
ATOM     16  C   UNL     1       8.994  10.261  18.289  0.00  0.00    +0.000 A 
ATOM     17  C   UNL     1      10.195  10.672  17.702  0.00  0.00    +0.000 A 
ATOM     18  C   UNL     1      11.098  11.466  18.419  0.00  0.00    +0.000 A 
ATOM     19  C   UNL     1      10.802  11.847  19.727  0.00  0.00    +0.000 A 
ATOM     20  C   UNL     1       9.602  11.446  20.318  0.00  0.00    +0.000 A 
ATOM     21 BR   UNL     1       9.156  11.941  22.094  0.00  0.00    +0.000 Br
ATOM     22  C   UNL     1       8.699  10.656  19.600  0.00  0.00    +0.000 A 
BRANCH  19  23
ATOM     23  O   UNL     1      11.689  12.611  20.433  0.00  0.00    +0.000 OA
ATOM     24  H   UNL     1      12.412  12.893  19.850  0.00  0.00    +0.000 HD
ENDBRANCH  19  23
ENDBRANCH   6  16
TORSDOF 3
ENDMDL
MODEL 4
REMARK VINA RESULT:      -7.6      6.890      9.286
REMARK  Name = 
REMARK  4 active torsions:
REMARK  status: ('A' for Active; 'I' for Inactive)
REMARK    1  A    between atoms: C_1  and  C_2
REMARK    2  A    between atoms: C_5  and  N_6
REMARK    3  A    between atoms: C_11  and  C_12
REMARK    4  A    between atoms: C_15  and  O_16
REMARK                            x       y       z     vdW  Elec       q    Type
REMARK                         _______ _______ _______ _____ _____    ______ ____
ROOT
ATOM      1  N   UNL     1       1.123   9.759  19.700  0.00  0.00    +0.000 N 
ATOM      2  C   UNL     1       1.095   8.723  20.601  0.00  0.00    +0.000 C 
ATOM      3  O   UNL     1       0.568   8.719  21.707  0.00  0.00    +0.000 OA
ATOM      4  O   UNL     1       1.706   7.582  20.118  0.00  0.00    +0.000 OA
ATOM      5  C   UNL     1       2.092   7.960  18.851  0.00  0.00    +0.000 C 
ATOM      6  C   UNL     1       2.887   7.228  18.058  0.00  0.00    +0.000 C 
ATOM      7  C   UNL     1       1.641   9.321  18.519  0.00  0.00    +0.000 C 
ATOM      8  O   UNL     1       1.792   9.874  17.445  0.00  0.00    +0.000 OA
ENDROOT
BRANCH   1  13
ATOM      9  C   UNL     1      -0.476  15.100  20.893  0.00  0.00    +0.000 C 
ATOM     10  C   UNL     1      -0.102  13.683  20.583  0.00  0.00    +0.000 A 
ATOM     11  C   UNL     1      -1.038  12.785  20.091  0.00  0.00    +0.000 A 
ATOM     12  C   UNL     1      -0.628  11.487  19.777  0.00  0.00    +0.000 A 
ATOM     13  C   UNL     1       0.700  11.089  19.972  0.00  0.00    +0.000 A 
ATOM     14  C   UNL     1       1.555  12.057  20.490  0.00  0.00    +0.000 A 
ATOM     15  N   UNL     1       1.189  13.335  20.782  0.00  0.00    +0.000 NA
ENDBRANCH   1  13
BRANCH   6  16
ATOM     16  C   UNL     1       3.475   5.957  18.496  0.00  0.00    +0.000 A 
ATOM     17  C   UNL     1       4.840   5.851  18.786  0.00  0.00    +0.000 A 
ATOM     18  C   UNL     1       5.389   4.621  19.167  0.00  0.00    +0.000 A 
ATOM     19  C   UNL     1       4.573   3.494  19.257  0.00  0.00    +0.000 A 
ATOM     20  C   UNL     1       3.209   3.593  18.976  0.00  0.00    +0.000 A 
ATOM     21 BR   UNL     1       2.061   2.087  19.085  0.00  0.00    +0.000 Br
ATOM     22  C   UNL     1       2.661   4.822  18.598  0.00  0.00    +0.000 A 
BRANCH  19  23
ATOM     23  O   UNL     1       5.112   2.289  19.616  0.00  0.00    +0.000 OA
ATOM     24  H   UNL     1       6.080   2.345  19.593  0.00  0.00    +0.000 HD
ENDBRANCH  19  23
ENDBRANCH   6  16
TORSDOF 3
ENDMDL
MODEL 5
REMARK VINA RESULT:      -7.5      6.867      8.956
REMARK  Name = 
REMARK  4 active torsions:
REMARK  status: ('A' for Active; 'I' for Inactive)
REMARK    1  A    between atoms: C_1  and  C_2
REMARK    2  A    between atoms: C_5  and  N_6
REMARK    3  A    between atoms: C_11  and  C_12
REMARK    4  A    between atoms: C_15  and  O_16
REMARK                            x       y       z     vdW  Elec       q    Type
REMARK                         _______ _______ _______ _____ _____    ______ ____
ROOT
ATOM      1  N   UNL     1       0.822   9.993  20.541  0.00  0.00    +0.000 N 
ATOM      2  C   UNL     1       1.352   8.898  21.177  0.00  0.00    +0.000 C 
ATOM      3  O   UNL     1       1.360   8.675  22.382  0.00  0.00    +0.000 OA
ATOM      4  O   UNL     1       1.874   7.970  20.296  0.00  0.00    +0.000 OA
ATOM      5  C   UNL     1       1.612   8.540  19.070  0.00  0.00    +0.000 C 
ATOM      6  C   UNL     1       2.096   8.079  17.908  0.00  0.00    +0.000 C 
ATOM      7  C   UNL     1       0.846   9.790  19.194  0.00  0.00    +0.000 C 
ATOM      8  O   UNL     1       0.429  10.460  18.266  0.00  0.00    +0.000 OA
ENDROOT
BRANCH   1  13
ATOM      9  C   UNL     1      -0.954  14.739  23.153  0.00  0.00    +0.000 C 
ATOM     10  C   UNL     1      -0.511  13.466  22.498  0.00  0.00    +0.000 A 
ATOM     11  C   UNL     1      -1.221  12.286  22.672  0.00  0.00    +0.000 A 
ATOM     12  C   UNL     1      -0.792  11.136  22.006  0.00  0.00    +0.000 A 
ATOM     13  C   UNL     1       0.346  11.164  21.190  0.00  0.00    +0.000 A 
ATOM     14  C   UNL     1       0.998  12.390  21.099  0.00  0.00    +0.000 A 
ATOM     15  N   UNL     1       0.589  13.531  21.717  0.00  0.00    +0.000 NA
ENDBRANCH   1  13
BRANCH   6  16
ATOM     16  C   UNL     1       3.014   6.936  17.842  0.00  0.00    +0.000 A 
ATOM     17  C   UNL     1       2.555   5.626  18.013  0.00  0.00    +0.000 A 
ATOM     18  C   UNL     1       3.452   4.551  17.983  0.00  0.00    +0.000 A 
ATOM     19  C   UNL     1       4.812   4.786  17.784  0.00  0.00    +0.000 A 
ATOM     20  C   UNL     1       5.277   6.091  17.605  0.00  0.00    +0.000 A 
ATOM     21 BR   UNL     1       7.118   6.458  17.331  0.00  0.00    +0.000 Br
ATOM     22  C   UNL     1       4.381   7.163  17.633  0.00  0.00    +0.000 A 
BRANCH  19  23
ATOM     23  O   UNL     1       5.690   3.739  17.768  0.00  0.00    +0.000 OA
ATOM     24  H   UNL     1       5.239   2.931  18.063  0.00  0.00    +0.000 HD
ENDBRANCH  19  23
ENDBRANCH   6  16
TORSDOF 3
ENDMDL
MODEL 6
REMARK VINA RESULT:      -7.5      6.785      9.803
REMARK  Name = 
REMARK  4 active torsions:
REMARK  status: ('A' for Active; 'I' for Inactive)
REMARK    1  A    between atoms: C_1  and  C_2
REMARK    2  A    between atoms: C_5  and  N_6
REMARK    3  A    between atoms: C_11  and  C_12
REMARK    4  A    between atoms: C_15  and  O_16
REMARK                            x       y       z     vdW  Elec       q    Type
REMARK                         _______ _______ _______ _____ _____    ______ ____
ROOT
ATOM      1  N   UNL     1       1.183   9.634  19.677  0.00  0.00    +0.000 N 
ATOM      2  C   UNL     1       1.671   9.008  18.556  0.00  0.00    +0.000 C 
ATOM      3  O   UNL     1       1.881   9.513  17.460  0.00  0.00    +0.000 OA
ATOM      4  O   UNL     1       1.978   7.679  18.780  0.00  0.00    +0.000 OA
ATOM      5  C   UNL     1       1.678   7.522  20.115  0.00  0.00    +0.000 C 
ATOM      6  C   UNL     1       1.650   6.339  20.745  0.00  0.00    +0.000 C 
ATOM      7  C   UNL     1       1.262   8.787  20.741  0.00  0.00    +0.000 C 
ATOM      8  O   UNL     1       1.004   8.942  21.920  0.00  0.00    +0.000 OA
ENDROOT
BRANCH   1  13
ATOM      9  C   UNL     1      -0.836  14.961  19.911  0.00  0.00    +0.000 C 
ATOM     10  C   UNL     1      -0.350  13.544  19.856  0.00  0.00    +0.000 A 
ATOM     11  C   UNL     1      -1.209  12.504  19.531  0.00  0.00    +0.000 A 
ATOM     12  C   UNL     1      -0.697  11.207  19.451  0.00  0.00    +0.000 A 
ATOM     13  C   UNL     1       0.655  10.953  19.710  0.00  0.00    +0.000 A 
ATOM     14  C   UNL     1       1.427  12.061  20.048  0.00  0.00    +0.000 A 
ATOM     15  N   UNL     1       0.961  13.338  20.111  0.00  0.00    +0.000 NA
ENDBRANCH   1  13
BRANCH   6  16
ATOM     16  C   UNL     1       1.887   5.073  20.042  0.00  0.00    +0.000 A 
ATOM     17  C   UNL     1       1.145   3.926  20.344  0.00  0.00    +0.000 A 
ATOM     18  C   UNL     1       1.411   2.718  19.689  0.00  0.00    +0.000 A 
ATOM     19  C   UNL     1       2.422   2.654  18.731  0.00  0.00    +0.000 A 
ATOM     20  C   UNL     1       3.163   3.796  18.419  0.00  0.00    +0.000 A 
ATOM     21 BR   UNL     1       4.548   3.757  17.123  0.00  0.00    +0.000 Br
ATOM     22  C   UNL     1       2.895   5.003  19.072  0.00  0.00    +0.000 A 
BRANCH  19  23
ATOM     23  O   UNL     1       2.692   1.471  18.101  0.00  0.00    +0.000 OA
ATOM     24  H   UNL     1       1.927   1.207  17.564  0.00  0.00    +0.000 HD
ENDBRANCH  19  23
ENDBRANCH   6  16
TORSDOF 3
ENDMDL
MODEL 7
REMARK VINA RESULT:      -7.4      7.330      9.421
REMARK  Name = 
REMARK  4 active torsions:
REMARK  status: ('A' for Active; 'I' for Inactive)
REMARK    1  A    between atoms: C_1  and  C_2
REMARK    2  A    between atoms: C_5  and  N_6
REMARK    3  A    between atoms: C_11  and  C_12
REMARK    4  A    between atoms: C_15  and  O_16
REMARK                            x       y       z     vdW  Elec       q    Type
REMARK                         _______ _______ _______ _____ _____    ______ ____
ROOT
ATOM      1  N   UNL     1       0.783  10.091  20.563  0.00  0.00    +0.000 N 
ATOM      2  C   UNL     1       1.310   8.993  21.198  0.00  0.00    +0.000 C 
ATOM      3  O   UNL     1       1.343   8.784  22.405  0.00  0.00    +0.000 OA
ATOM      4  O   UNL     1       1.792   8.047  20.315  0.00  0.00    +0.000 OA
ATOM      5  C   UNL     1       1.510   8.608  19.089  0.00  0.00    +0.000 C 
ATOM      6  C   UNL     1       1.957   8.126  17.921  0.00  0.00    +0.000 C 
ATOM      7  C   UNL     1       0.770   9.873  19.218  0.00  0.00    +0.000 C 
ATOM      8  O   UNL     1       0.342  10.540  18.294  0.00  0.00    +0.000 OA
ENDROOT
BRANCH   1  13
ATOM      9  C   UNL     1      -0.842  14.895  23.168  0.00  0.00    +0.000 C 
ATOM     10  C   UNL     1      -0.439  13.607  22.515  0.00  0.00    +0.000 A 
ATOM     11  C   UNL     1      -1.183  12.449  22.695  0.00  0.00    +0.000 A 
ATOM     12  C   UNL     1      -0.791  11.285  22.030  0.00  0.00    +0.000 A 
ATOM     13  C   UNL     1       0.344  11.277  21.210  0.00  0.00    +0.000 A 
ATOM     14  C   UNL     1       1.032  12.483  21.113  0.00  0.00    +0.000 A 
ATOM     15  N   UNL     1       0.660  13.637  21.730  0.00  0.00    +0.000 NA
ENDBRANCH   1  13
BRANCH   6  16
ATOM     16  C   UNL     1       2.853   6.966  17.845  0.00  0.00    +0.000 A 
ATOM     17  C   UNL     1       4.221   7.121  17.599  0.00  0.00    +0.000 A 
ATOM     18  C   UNL     1       5.052   5.999  17.493  0.00  0.00    +0.000 A 
ATOM     19  C   UNL     1       4.515   4.720  17.629  0.00  0.00    +0.000 A 
ATOM     20  C   UNL     1       3.151   4.557  17.880  0.00  0.00    +0.000 A 
ATOM     21 BR   UNL     1       2.376   2.836  18.073  0.00  0.00    +0.000 Br
ATOM     22  C   UNL     1       2.322   5.677  17.989  0.00  0.00    +0.000 A 
BRANCH  19  23
ATOM     23  O   UNL     1       5.324   3.624  17.511  0.00  0.00    +0.000 OA
ATOM     24  H   UNL     1       5.840   3.511  18.326  0.00  0.00    +0.000 HD
ENDBRANCH  19  23
ENDBRANCH   6  16
TORSDOF 3
ENDMDL
MODEL 8
REMARK VINA RESULT:      -7.2      6.165      7.752
REMARK  Name = 
REMARK  4 active torsions:
REMARK  status: ('A' for Active; 'I' for Inactive)
REMARK    1  A    between atoms: C_1  and  C_2
REMARK    2  A    between atoms: C_5  and  N_6
REMARK    3  A    between atoms: C_11  and  C_12
REMARK    4  A    between atoms: C_15  and  O_16
REMARK                            x       y       z     vdW  Elec       q    Type
REMARK                         _______ _______ _______ _____ _____    ______ ____
ROOT
ATOM      1  N   UNL     1       2.836   7.095  18.565  0.00  0.00    +0.000 N 
ATOM      2  C   UNL     1       2.268   8.283  18.174  0.00  0.00    +0.000 C 
ATOM      3  O   UNL     1       2.369   8.826  17.081  0.00  0.00    +0.000 OA
ATOM      4  O   UNL     1       1.474   8.842  19.157  0.00  0.00    +0.000 OA
ATOM      5  C   UNL     1       1.559   7.917  20.175  0.00  0.00    +0.000 C 
ATOM      6  C   UNL     1       1.088   8.117  21.414  0.00  0.00    +0.000 C 
ATOM      7  C   UNL     1       2.345   6.736  19.784  0.00  0.00    +0.000 C 
ATOM      8  O   UNL     1       2.522   5.745  20.469  0.00  0.00    +0.000 OA
ENDROOT
BRANCH   1  13
ATOM      9  C   UNL     1       6.763   4.307  15.513  0.00  0.00    +0.000 C 
ATOM     10  C   UNL     1       5.698   5.008  16.301  0.00  0.00    +0.000 A 
ATOM     11  C   UNL     1       4.534   4.352  16.677  0.00  0.00    +0.000 A 
ATOM     12  C   UNL     1       3.592   5.037  17.446  0.00  0.00    +0.000 A 
ATOM     13  C   UNL     1       3.805   6.369  17.820  0.00  0.00    +0.000 A 
ATOM     14  C   UNL     1       4.992   6.943  17.375  0.00  0.00    +0.000 A 
ATOM     15  N   UNL     1       5.938   6.293  16.644  0.00  0.00    +0.000 NA
ENDBRANCH   1  13
BRANCH   6  16
ATOM     16  C   UNL     1       0.475   9.387  21.822  0.00  0.00    +0.000 A 
ATOM     17  C   UNL     1      -0.507   9.430  22.817  0.00  0.00    +0.000 A 
ATOM     18  C   UNL     1      -1.106  10.646  23.167  0.00  0.00    +0.000 A 
ATOM     19  C   UNL     1      -0.725  11.821  22.520  0.00  0.00    +0.000 A 
ATOM     20  C   UNL     1       0.259  11.786  21.530  0.00  0.00    +0.000 A 
ATOM     21 BR   UNL     1       0.809  13.359  20.623  0.00  0.00    +0.000 Br
ATOM     22  C   UNL     1       0.859  10.573  21.183  0.00  0.00    +0.000 A 
BRANCH  19  23
ATOM     23  O   UNL     1      -1.320  13.007  22.852  0.00  0.00    +0.000 OA
ATOM     24  H   UNL     1      -1.095  13.239  23.767  0.00  0.00    +0.000 HD
ENDBRANCH  19  23
ENDBRANCH   6  16
TORSDOF 3
ENDMDL
MODEL 9
REMARK VINA RESULT:      -7.2      6.755      9.080
REMARK  Name = 
REMARK  4 active torsions:
REMARK  status: ('A' for Active; 'I' for Inactive)
REMARK    1  A    between atoms: C_1  and  C_2
REMARK    2  A    between atoms: C_5  and  N_6
REMARK    3  A    between atoms: C_11  and  C_12
REMARK    4  A    between atoms: C_15  and  O_16
REMARK                            x       y       z     vdW  Elec       q    Type
REMARK                         _______ _______ _______ _____ _____    ______ ____
ROOT
ATOM      1  N   UNL     1       0.931  10.007  20.311  0.00  0.00    +0.000 N 
ATOM      2  C   UNL     1       1.250   8.961  21.142  0.00  0.00    +0.000 C 
ATOM      3  O   UNL     1       1.082   8.903  22.354  0.00  0.00    +0.000 OA
ATOM      4  O   UNL     1       1.770   7.878  20.460  0.00  0.00    +0.000 OA
ATOM      5  C   UNL     1       1.729   8.301  19.150  0.00  0.00    +0.000 C 
ATOM      6  C   UNL     1       2.301   7.643  18.130  0.00  0.00    +0.000 C 
ATOM      7  C   UNL     1       1.101   9.624  19.015  0.00  0.00    +0.000 C 
ATOM      8  O   UNL     1       0.882  10.200  17.965  0.00  0.00    +0.000 OA
ENDROOT
BRANCH   1  13
ATOM      9  C   UNL     1      -0.881  15.142  22.000  0.00  0.00    +0.000 C 
ATOM     10  C   UNL     1      -0.369  13.814  21.531  0.00  0.00    +0.000 A 
ATOM     11  C   UNL     1       0.940  13.662  21.098  0.00  0.00    +0.000 A 
ATOM     12  C   UNL     1       1.380  12.394  20.711  0.00  0.00    +0.000 A 
ATOM     13  C   UNL     1       0.513  11.295  20.742  0.00  0.00    +0.000 A 
ATOM     14  C   UNL     1      -0.785  11.557  21.173  0.00  0.00    +0.000 A 
ATOM     15  N   UNL     1      -1.234  12.776  21.577  0.00  0.00    +0.000 NA
ENDBRANCH   1  13
BRANCH   6  16
ATOM     16  C   UNL     1       3.084   6.419  18.329  0.00  0.00    +0.000 A 
ATOM     17  C   UNL     1       2.460   5.188  18.559  0.00  0.00    +0.000 A 
ATOM     18  C   UNL     1       3.226   4.038  18.783  0.00  0.00    +0.000 A 
ATOM     19  C   UNL     1       4.618   4.117  18.782  0.00  0.00    +0.000 A 
ATOM     20  C   UNL     1       5.248   5.341  18.547  0.00  0.00    +0.000 A 
ATOM     21 BR   UNL     1       7.139   5.497  18.534  0.00  0.00    +0.000 Br
ATOM     22  C   UNL     1       4.484   6.489  18.320  0.00  0.00    +0.000 A 
BRANCH  19  23
ATOM     23  O   UNL     1       5.366   2.997  19.015  0.00  0.00    +0.000 OA
ATOM     24  H   UNL     1       6.282   3.153  18.736  0.00  0.00    +0.000 HD
ENDBRANCH  19  23
ENDBRANCH   6  16
TORSDOF 3
ENDMDL
