MODEL 1
REMARK VINA RESULT:      -8.8      0.000      0.000
REMARK  Name = 
REMARK  7 active torsions:
REMARK  status: ('A' for Active; 'I' for Inactive)
REMARK    1  A    between atoms: C_1  and  C_2
REMARK    2  A    between atoms: C_2  and  C_3
REMARK    3  A    between atoms: C_2  and  C_4
REMARK    4  A    between atoms: C_2  and  N_5
REMARK    5  A    between atoms: C_7  and  C_8
REMARK    6  A    between atoms: C_12  and  O_13
REMARK    7  A    between atoms: O_13  and  C_14
REMARK                            x       y       z     vdW  Elec       q    Type
REMARK                         _______ _______ _______ _____ _____    ______ ____
ROOT
ATOM      1  N   UNL     1       4.373   5.215  17.590  0.00  0.00    +0.000 N 
ATOM      2  N   UNL     1       3.965   6.428  18.026  0.00  0.00    +0.000 NA
ATOM      3  C   UNL     1       2.939   6.179  18.856  0.00  0.00    +0.000 A 
ATOM      4  C   UNL     1       2.674   4.777  18.936  0.00  0.00    +0.000 A 
ATOM      5  C   UNL     1       1.751   3.908  19.541  0.00  0.00    +0.000 A 
ATOM      6  N   UNL     1       0.657   4.298  20.302  0.00  0.00    +0.000 N 
ATOM      7  N   UNL     1       1.894   2.580  19.362  0.00  0.00    +0.000 NA
ATOM      8  C   UNL     1       2.902   2.139  18.591  0.00  0.00    +0.000 A 
ATOM      9  N   UNL     1       3.811   2.864  17.928  0.00  0.00    +0.000 NA
ATOM     10  C   UNL     1       3.642   4.186  18.137  0.00  0.00    +0.000 A 
ATOM     11  H   UNL     1       0.219   5.159  19.997  0.00  0.00    +0.000 HD
ATOM     12  H   UNL     1       0.022   3.516  20.424  0.00  0.00    +0.000 HD
ENDROOT
BRANCH   3  13
ATOM     13  C   UNL     1       2.214   7.295  19.472  0.00  0.00    +0.000 A 
ATOM     14  C   UNL     1       1.801   7.259  20.809  0.00  0.00    +0.000 A 
ATOM     15  C   UNL     1       0.964   8.253  21.323  0.00  0.00    +0.000 A 
ATOM     16  C   UNL     1       0.549   9.304  20.507  0.00  0.00    +0.000 A 
ATOM     17  C   UNL     1       0.992   9.380  19.187  0.00  0.00    +0.000 A 
ATOM     18  C   UNL     1       1.868   8.408  18.692  0.00  0.00    +0.000 A 
BRANCH  17  19
ATOM     19  O   UNL     1       0.543  10.455  18.453  0.00  0.00    +0.000 OA
BRANCH  19  20
ATOM     20  C   UNL     1      -0.812  10.635  18.275  0.00  0.00    +0.000 A 
ATOM     21  C   UNL     1      -1.561  11.638  18.899  0.00  0.00    +0.000 A 
ATOM     22  C   UNL     1      -2.938  11.714  18.697  0.00  0.00    +0.000 A 
ATOM     23  C   UNL     1      -3.563  10.827  17.822  0.00  0.00    +0.000 A 
ATOM     24  C   UNL     1      -2.808   9.868  17.144  0.00  0.00    +0.000 A 
ATOM     25  C   UNL     1      -1.434   9.773  17.371  0.00  0.00    +0.000 A 
ENDBRANCH  19  20
ENDBRANCH  17  19
ENDBRANCH   3  13
BRANCH   1  27
ATOM     26  C   UNL     1       5.194   4.087  15.515  0.00  0.00    +0.000 C 
ATOM     27  C   UNL     1       5.492   5.119  16.631  0.00  0.00    +0.000 C 
ATOM     28  C   UNL     1       6.789   4.661  17.330  0.00  0.00    +0.000 C 
ATOM     29  C   UNL     1       5.720   6.484  15.959  0.00  0.00    +0.000 C 
ENDBRANCH   1  27
TORSDOF 4
ENDMDL
MODEL 2
REMARK VINA RESULT:      -8.7      0.177      1.237
REMARK  Name = 
REMARK  7 active torsions:
REMARK  status: ('A' for Active; 'I' for Inactive)
REMARK    1  A    between atoms: C_1  and  C_2
REMARK    2  A    between atoms: C_2  and  C_3
REMARK    3  A    between atoms: C_2  and  C_4
REMARK    4  A    between atoms: C_2  and  N_5
REMARK    5  A    between atoms: C_7  and  C_8
REMARK    6  A    between atoms: C_12  and  O_13
REMARK    7  A    between atoms: O_13  and  C_14
REMARK                            x       y       z     vdW  Elec       q    Type
REMARK                         _______ _______ _______ _____ _____    ______ ____
ROOT
ATOM      1  N   UNL     1       4.267   5.284  17.415  0.00  0.00    +0.000 N 
ATOM      2  N   UNL     1       3.866   6.483  17.893  0.00  0.00    +0.000 NA
ATOM      3  C   UNL     1       2.886   6.206  18.768  0.00  0.00    +0.000 A 
ATOM      4  C   UNL     1       2.642   4.800  18.835  0.00  0.00    +0.000 A 
ATOM      5  C   UNL     1       1.762   3.908  19.469  0.00  0.00    +0.000 A 
ATOM      6  N   UNL     1       0.702   4.269  20.290  0.00  0.00    +0.000 N 
ATOM      7  N   UNL     1       1.912   2.585  19.259  0.00  0.00    +0.000 NA
ATOM      8  C   UNL     1       2.886   2.171  18.430  0.00  0.00    +0.000 A 
ATOM      9  N   UNL     1       3.752   2.920  17.737  0.00  0.00    +0.000 NA
ATOM     10  C   UNL     1       3.577   4.236  17.979  0.00  0.00    +0.000 A 
ATOM     11  H   UNL     1       0.239   5.130  20.023  0.00  0.00    +0.000 HD
ATOM     12  H   UNL     1       0.084   3.477  20.429  0.00  0.00    +0.000 HD
ENDROOT
BRANCH   3  13
ATOM     13  C   UNL     1       2.178   7.301  19.440  0.00  0.00    +0.000 A 
ATOM     14  C   UNL     1       1.789   7.216  20.781  0.00  0.00    +0.000 A 
ATOM     15  C   UNL     1       0.967   8.193  21.349  0.00  0.00    +0.000 A 
ATOM     16  C   UNL     1       0.544   9.277  20.581  0.00  0.00    +0.000 A 
ATOM     17  C   UNL     1       0.963   9.402  19.257  0.00  0.00    +0.000 A 
ATOM     18  C   UNL     1       1.825   8.445  18.710  0.00  0.00    +0.000 A 
BRANCH  17  19
ATOM     19  O   UNL     1       0.507  10.507  18.574  0.00  0.00    +0.000 OA
BRANCH  19  20
ATOM     20  C   UNL     1      -0.834  10.610  18.272  0.00  0.00    +0.000 A 
ATOM     21  C   UNL     1      -1.505   9.770  17.376  0.00  0.00    +0.000 A 
ATOM     22  C   UNL     1      -2.854   9.980  17.095  0.00  0.00    +0.000 A 
ATOM     23  C   UNL     1      -3.553  10.989  17.755  0.00  0.00    +0.000 A 
ATOM     24  C   UNL     1      -2.904  11.785  18.701  0.00  0.00    +0.000 A 
ATOM     25  C   UNL     1      -1.545  11.595  18.958  0.00  0.00    +0.000 A 
ENDBRANCH  19  20
ENDBRANCH  17  19
ENDBRANCH   3  13
BRANCH   1  27
ATOM     26  C   UNL     1       5.432   6.540  15.593  0.00  0.00    +0.000 C 
ATOM     27  C   UNL     1       5.338   5.221  16.401  0.00  0.00    +0.000 C 
ATOM     28  C   UNL     1       5.078   4.090  15.383  0.00  0.00    +0.000 C 
ATOM     29  C   UNL     1       6.695   4.994  17.089  0.00  0.00    +0.000 C 
ENDBRANCH   1  27
TORSDOF 4
ENDMDL
MODEL 3
REMARK VINA RESULT:      -8.2      1.161      3.123
REMARK  Name = 
REMARK  7 active torsions:
REMARK  status: ('A' for Active; 'I' for Inactive)
REMARK    1  A    between atoms: C_1  and  C_2
REMARK    2  A    between atoms: C_2  and  C_3
REMARK    3  A    between atoms: C_2  and  C_4
REMARK    4  A    between atoms: C_2  and  N_5
REMARK    5  A    between atoms: C_7  and  C_8
REMARK    6  A    between atoms: C_12  and  O_13
REMARK    7  A    between atoms: O_13  and  C_14
REMARK                            x       y       z     vdW  Elec       q    Type
REMARK                         _______ _______ _______ _____ _____    ______ ____
ROOT
ATOM      1  N   UNL     1       2.660   4.296  19.718  0.00  0.00    +0.000 N 
ATOM      2  N   UNL     1       2.001   5.309  20.324  0.00  0.00    +0.000 NA
ATOM      3  C   UNL     1       2.317   6.408  19.619  0.00  0.00    +0.000 A 
ATOM      4  C   UNL     1       3.213   6.092  18.552  0.00  0.00    +0.000 A 
ATOM      5  C   UNL     1       3.931   6.754  17.543  0.00  0.00    +0.000 A 
ATOM      6  N   UNL     1       3.975   8.129  17.355  0.00  0.00    +0.000 N 
ATOM      7  N   UNL     1       4.677   6.024  16.689  0.00  0.00    +0.000 NA
ATOM      8  C   UNL     1       4.721   4.691  16.850  0.00  0.00    +0.000 A 
ATOM      9  N   UNL     1       4.122   3.954  17.794  0.00  0.00    +0.000 NA
ATOM     10  C   UNL     1       3.379   4.716  18.624  0.00  0.00    +0.000 A 
ATOM     11  H   UNL     1       3.940   8.671  18.210  0.00  0.00    +0.000 HD
ATOM     12  H   UNL     1       4.735   8.370  16.727  0.00  0.00    +0.000 HD
ENDROOT
BRANCH   3  13
ATOM     13  C   UNL     1       1.810   7.717  20.045  0.00  0.00    +0.000 A 
ATOM     14  C   UNL     1       1.642   8.041  21.396  0.00  0.00    +0.000 A 
ATOM     15  C   UNL     1       0.998   9.223  21.770  0.00  0.00    +0.000 A 
ATOM     16  C   UNL     1       0.534  10.102  20.793  0.00  0.00    +0.000 A 
ATOM     17  C   UNL     1       0.737   9.817  19.444  0.00  0.00    +0.000 A 
ATOM     18  C   UNL     1       1.425   8.655  19.076  0.00  0.00    +0.000 A 
BRANCH  17  19
ATOM     19  O   UNL     1       0.255  10.743  18.545  0.00  0.00    +0.000 OA
BRANCH  19  20
ATOM     20  C   UNL     1      -1.098  10.795  18.287  0.00  0.00    +0.000 A 
ATOM     21  C   UNL     1      -1.971  11.728  18.857  0.00  0.00    +0.000 A 
ATOM     22  C   UNL     1      -3.335  11.676  18.574  0.00  0.00    +0.000 A 
ATOM     23  C   UNL     1      -3.823  10.731  17.673  0.00  0.00    +0.000 A 
ATOM     24  C   UNL     1      -2.944   9.844  17.049  0.00  0.00    +0.000 A 
ATOM     25  C   UNL     1      -1.583   9.876  17.357  0.00  0.00    +0.000 A 
ENDBRANCH  19  20
ENDBRANCH  17  19
ENDBRANCH   3  13
BRANCH   1  27
ATOM     26  C   UNL     1       1.763   2.002  19.289  0.00  0.00    +0.000 C 
ATOM     27  C   UNL     1       2.548   2.925  20.255  0.00  0.00    +0.000 C 
ATOM     28  C   UNL     1       1.793   2.911  21.601  0.00  0.00    +0.000 C 
ATOM     29  C   UNL     1       3.951   2.323  20.443  0.00  0.00    +0.000 C 
ENDBRANCH   1  27
TORSDOF 4
ENDMDL
MODEL 4
REMARK VINA RESULT:      -8.1      3.438      7.901
REMARK  Name = 
REMARK  7 active torsions:
REMARK  status: ('A' for Active; 'I' for Inactive)
REMARK    1  A    between atoms: C_1  and  C_2
REMARK    2  A    between atoms: C_2  and  C_3
REMARK    3  A    between atoms: C_2  and  C_4
REMARK    4  A    between atoms: C_2  and  N_5
REMARK    5  A    between atoms: C_7  and  C_8
REMARK    6  A    between atoms: C_12  and  O_13
REMARK    7  A    between atoms: O_13  and  C_14
REMARK                            x       y       z     vdW  Elec       q    Type
REMARK                         _______ _______ _______ _____ _____    ______ ____
ROOT
ATOM      1  N   UNL     1      -0.738  11.086  19.422  0.00  0.00    +0.000 N 
ATOM      2  N   UNL     1       0.061  10.278  18.690  0.00  0.00    +0.000 NA
ATOM      3  C   UNL     1       0.740   9.545  19.588  0.00  0.00    +0.000 A 
ATOM      4  C   UNL     1       0.381   9.907  20.922  0.00  0.00    +0.000 A 
ATOM      5  C   UNL     1       0.746   9.587  22.240  0.00  0.00    +0.000 A 
ATOM      6  N   UNL     1       1.764   8.716  22.605  0.00  0.00    +0.000 N 
ATOM      7  N   UNL     1       0.094  10.182  23.259  0.00  0.00    +0.000 NA
ATOM      8  C   UNL     1      -0.867  11.077  22.974  0.00  0.00    +0.000 A 
ATOM      9  N   UNL     1      -1.270  11.497  21.769  0.00  0.00    +0.000 NA
ATOM     10  C   UNL     1      -0.602  10.876  20.775  0.00  0.00    +0.000 A 
ATOM     11  H   UNL     1       2.564   8.722  21.983  0.00  0.00    +0.000 HD
ATOM     12  H   UNL     1       1.986   8.833  23.588  0.00  0.00    +0.000 HD
ENDROOT
BRANCH   3  13
ATOM     13  C   UNL     1       1.755   8.590  19.130  0.00  0.00    +0.000 A 
ATOM     14  C   UNL     1       2.383   8.719  17.886  0.00  0.00    +0.000 A 
ATOM     15  C   UNL     1       3.215   7.707  17.400  0.00  0.00    +0.000 A 
ATOM     16  C   UNL     1       3.440   6.563  18.165  0.00  0.00    +0.000 A 
ATOM     17  C   UNL     1       2.860   6.442  19.427  0.00  0.00    +0.000 A 
ATOM     18  C   UNL     1       2.067   7.480  19.928  0.00  0.00    +0.000 A 
BRANCH  17  19
ATOM     19  O   UNL     1       3.142   5.286  20.120  0.00  0.00    +0.000 OA
BRANCH  19  20
ATOM     20  C   UNL     1       2.695   4.077  19.630  0.00  0.00    +0.000 A 
ATOM     21  C   UNL     1       3.533   3.073  19.133  0.00  0.00    +0.000 A 
ATOM     22  C   UNL     1       2.988   1.900  18.613  0.00  0.00    +0.000 A 
ATOM     23  C   UNL     1       1.609   1.699  18.645  0.00  0.00    +0.000 A 
ATOM     24  C   UNL     1       0.776   2.670  19.204  0.00  0.00    +0.000 A 
ATOM     25  C   UNL     1       1.319   3.857  19.695  0.00  0.00    +0.000 A 
ENDBRANCH  19  20
ENDBRANCH  17  19
ENDBRANCH   3  13
BRANCH   1  27
ATOM     26  C   UNL     1      -2.964  12.223  19.501  0.00  0.00    +0.000 C 
ATOM     27  C   UNL     1      -1.624  12.052  18.742  0.00  0.00    +0.000 C 
ATOM     28  C   UNL     1      -1.974  11.581  17.314  0.00  0.00    +0.000 C 
ATOM     29  C   UNL     1      -0.941  13.430  18.679  0.00  0.00    +0.000 C 
ENDBRANCH   1  27
TORSDOF 4
ENDMDL
MODEL 5
REMARK VINA RESULT:      -8.1      3.398      7.866
REMARK  Name = 
REMARK  7 active torsions:
REMARK  status: ('A' for Active; 'I' for Inactive)
REMARK    1  A    between atoms: C_1  and  C_2
REMARK    2  A    between atoms: C_2  and  C_3
REMARK    3  A    between atoms: C_2  and  C_4
REMARK    4  A    between atoms: C_2  and  N_5
REMARK    5  A    between atoms: C_7  and  C_8
REMARK    6  A    between atoms: C_12  and  O_13
REMARK    7  A    between atoms: O_13  and  C_14
REMARK                            x       y       z     vdW  Elec       q    Type
REMARK                         _______ _______ _______ _____ _____    ______ ____
ROOT
ATOM      1  N   UNL     1      -0.719  10.973  19.310  0.00  0.00    +0.000 N 
ATOM      2  N   UNL     1       0.096  10.163  18.599  0.00  0.00    +0.000 NA
ATOM      3  C   UNL     1       0.797   9.474  19.514  0.00  0.00    +0.000 A 
ATOM      4  C   UNL     1       0.434   9.867  20.839  0.00  0.00    +0.000 A 
ATOM      5  C   UNL     1       0.812   9.595  22.164  0.00  0.00    +0.000 A 
ATOM      6  N   UNL     1       1.852   8.760  22.550  0.00  0.00    +0.000 N 
ATOM      7  N   UNL     1       0.150  10.203  23.168  0.00  0.00    +0.000 NA
ATOM      8  C   UNL     1      -0.833  11.067  22.861  0.00  0.00    +0.000 A 
ATOM      9  N   UNL     1      -1.251  11.441  21.646  0.00  0.00    +0.000 NA
ATOM     10  C   UNL     1      -0.573  10.806  20.667  0.00  0.00    +0.000 A 
ATOM     11  H   UNL     1       2.649   8.766  21.924  0.00  0.00    +0.000 HD
ATOM     12  H   UNL     1       2.076   8.911  23.528  0.00  0.00    +0.000 HD
ENDROOT
BRANCH   3  13
ATOM     13  C   UNL     1       1.832   8.530  19.080  0.00  0.00    +0.000 A 
ATOM     14  C   UNL     1       2.518   8.690  17.871  0.00  0.00    +0.000 A 
ATOM     15  C   UNL     1       3.372   7.691  17.398  0.00  0.00    +0.000 A 
ATOM     16  C   UNL     1       3.562   6.528  18.143  0.00  0.00    +0.000 A 
ATOM     17  C   UNL     1       2.924   6.374  19.373  0.00  0.00    +0.000 A 
ATOM     18  C   UNL     1       2.108   7.400  19.863  0.00  0.00    +0.000 A 
BRANCH  17  19
ATOM     19  O   UNL     1       3.173   5.200  20.048  0.00  0.00    +0.000 OA
BRANCH  19  20
ATOM     20  C   UNL     1       2.627   4.023  19.583  0.00  0.00    +0.000 A 
ATOM     21  C   UNL     1       1.253   3.784  19.470  0.00  0.00    +0.000 A 
ATOM     22  C   UNL     1       0.791   2.544  19.035  0.00  0.00    +0.000 A 
ATOM     23  C   UNL     1       1.699   1.558  18.651  0.00  0.00    +0.000 A 
ATOM     24  C   UNL     1       3.070   1.817  18.697  0.00  0.00    +0.000 A 
ATOM     25  C   UNL     1       3.533   3.048  19.163  0.00  0.00    +0.000 A 
ENDBRANCH  19  20
ENDBRANCH  17  19
ENDBRANCH   3  13
BRANCH   1  27
ATOM     26  C   UNL     1      -0.954  13.265  18.339  0.00  0.00    +0.000 C 
ATOM     27  C   UNL     1      -1.631  11.897  18.606  0.00  0.00    +0.000 C 
ATOM     28  C   UNL     1      -2.898  12.178  19.442  0.00  0.00    +0.000 C 
ATOM     29  C   UNL     1      -2.030  11.298  17.246  0.00  0.00    +0.000 C 
ENDBRANCH   1  27
TORSDOF 4
ENDMDL
MODEL 6
REMARK VINA RESULT:      -8.1      1.175      3.298
REMARK  Name = 
REMARK  7 active torsions:
REMARK  status: ('A' for Active; 'I' for Inactive)
REMARK    1  A    between atoms: C_1  and  C_2
REMARK    2  A    between atoms: C_2  and  C_3
REMARK    3  A    between atoms: C_2  and  C_4
REMARK    4  A    between atoms: C_2  and  N_5
REMARK    5  A    between atoms: C_7  and  C_8
REMARK    6  A    between atoms: C_12  and  O_13
REMARK    7  A    between atoms: O_13  and  C_14
REMARK                            x       y       z     vdW  Elec       q    Type
REMARK                         _______ _______ _______ _____ _____    ______ ____
ROOT
ATOM      1  N   UNL     1       2.553   4.358  19.732  0.00  0.00    +0.000 N 
ATOM      2  N   UNL     1       1.913   5.372  20.356  0.00  0.00    +0.000 NA
ATOM      3  C   UNL     1       2.241   6.476  19.665  0.00  0.00    +0.000 A 
ATOM      4  C   UNL     1       3.126   6.162  18.588  0.00  0.00    +0.000 A 
ATOM      5  C   UNL     1       3.848   6.827  17.584  0.00  0.00    +0.000 A 
ATOM      6  N   UNL     1       3.912   8.203  17.415  0.00  0.00    +0.000 N 
ATOM      7  N   UNL     1       4.576   6.098  16.714  0.00  0.00    +0.000 NA
ATOM      8  C   UNL     1       4.602   4.762  16.857  0.00  0.00    +0.000 A 
ATOM      9  N   UNL     1       3.997   4.022  17.794  0.00  0.00    +0.000 NA
ATOM     10  C   UNL     1       3.272   4.783  18.640  0.00  0.00    +0.000 A 
ATOM     11  H   UNL     1       3.890   8.734  18.278  0.00  0.00    +0.000 HD
ATOM     12  H   UNL     1       4.671   8.442  16.785  0.00  0.00    +0.000 HD
ENDROOT
BRANCH   3  13
ATOM     13  C   UNL     1       1.757   7.786  20.112  0.00  0.00    +0.000 A 
ATOM     14  C   UNL     1       1.622   8.101  21.469  0.00  0.00    +0.000 A 
ATOM     15  C   UNL     1       0.998   9.286  21.867  0.00  0.00    +0.000 A 
ATOM     16  C   UNL     1       0.521  10.178  20.908  0.00  0.00    +0.000 A 
ATOM     17  C   UNL     1       0.692   9.902  19.552  0.00  0.00    +0.000 A 
ATOM     18  C   UNL     1       1.360   8.737  19.160  0.00  0.00    +0.000 A 
BRANCH  17  19
ATOM     19  O   UNL     1       0.200  10.840  18.672  0.00  0.00    +0.000 OA
BRANCH  19  20
ATOM     20  C   UNL     1      -1.114  10.762  18.264  0.00  0.00    +0.000 A 
ATOM     21  C   UNL     1      -1.592   9.842  17.324  0.00  0.00    +0.000 A 
ATOM     22  C   UNL     1      -2.930   9.868  16.936  0.00  0.00    +0.000 A 
ATOM     23  C   UNL     1      -3.810  10.771  17.530  0.00  0.00    +0.000 A 
ATOM     24  C   UNL     1      -3.351  11.644  18.518  0.00  0.00    +0.000 A 
ATOM     25  C   UNL     1      -2.004  11.639  18.884  0.00  0.00    +0.000 A 
ENDBRANCH  19  20
ENDBRANCH  17  19
ENDBRANCH   3  13
BRANCH   1  27
ATOM     26  C   UNL     1       1.672   2.955  21.605  0.00  0.00    +0.000 C 
ATOM     27  C   UNL     1       2.424   2.982  20.250  0.00  0.00    +0.000 C 
ATOM     28  C   UNL     1       3.808   2.343  20.493  0.00  0.00    +0.000 C 
ATOM     29  C   UNL     1       1.625   2.123  19.254  0.00  0.00    +0.000 C 
ENDBRANCH   1  27
TORSDOF 4
ENDMDL
MODEL 7
REMARK VINA RESULT:      -8.1      1.535      2.268
REMARK  Name = 
REMARK  7 active torsions:
REMARK  status: ('A' for Active; 'I' for Inactive)
REMARK    1  A    between atoms: C_1  and  C_2
REMARK    2  A    between atoms: C_2  and  C_3
REMARK    3  A    between atoms: C_2  and  C_4
REMARK    4  A    between atoms: C_2  and  N_5
REMARK    5  A    between atoms: C_7  and  C_8
REMARK    6  A    between atoms: C_12  and  O_13
REMARK    7  A    between atoms: O_13  and  C_14
REMARK                            x       y       z     vdW  Elec       q    Type
REMARK                         _______ _______ _______ _____ _____    ______ ____
ROOT
ATOM      1  N   UNL     1       4.449   5.211  17.708  0.00  0.00    +0.000 N 
ATOM      2  N   UNL     1       4.032   6.431  18.114  0.00  0.00    +0.000 NA
ATOM      3  C   UNL     1       2.985   6.196  18.921  0.00  0.00    +0.000 A 
ATOM      4  C   UNL     1       2.715   4.796  19.016  0.00  0.00    +0.000 A 
ATOM      5  C   UNL     1       1.776   3.938  19.611  0.00  0.00    +0.000 A 
ATOM      6  N   UNL     1       0.663   4.340  20.337  0.00  0.00    +0.000 N 
ATOM      7  N   UNL     1       1.922   2.607  19.457  0.00  0.00    +0.000 NA
ATOM      8  C   UNL     1       2.949   2.153  18.718  0.00  0.00    +0.000 A 
ATOM      9  N   UNL     1       3.876   2.866  18.068  0.00  0.00    +0.000 NA
ATOM     10  C   UNL     1       3.703   4.192  18.252  0.00  0.00    +0.000 A 
ATOM     11  H   UNL     1       0.234   5.197  20.007  0.00  0.00    +0.000 HD
ATOM     12  H   UNL     1       0.024   3.561  20.454  0.00  0.00    +0.000 HD
ENDROOT
BRANCH   3  13
ATOM     13  C   UNL     1       2.244   7.322  19.500  0.00  0.00    +0.000 A 
ATOM     14  C   UNL     1       1.859   7.339  20.846  0.00  0.00    +0.000 A 
ATOM     15  C   UNL     1       1.009   8.336  21.331  0.00  0.00    +0.000 A 
ATOM     16  C   UNL     1       0.553   9.339  20.476  0.00  0.00    +0.000 A 
ATOM     17  C   UNL     1       0.967   9.363  19.145  0.00  0.00    +0.000 A 
ATOM     18  C   UNL     1       1.856   8.390  18.678  0.00  0.00    +0.000 A 
BRANCH  17  19
ATOM     19  O   UNL     1       0.477  10.392  18.372  0.00  0.00    +0.000 OA
BRANCH  19  20
ATOM     20  C   UNL     1       0.938  11.674  18.581  0.00  0.00    +0.000 A 
ATOM     21  C   UNL     1       2.255  12.084  18.346  0.00  0.00    +0.000 A 
ATOM     22  C   UNL     1       2.643  13.392  18.632  0.00  0.00    +0.000 A 
ATOM     23  C   UNL     1       1.704  14.312  19.093  0.00  0.00    +0.000 A 
ATOM     24  C   UNL     1       0.373  13.925  19.263  0.00  0.00    +0.000 A 
ATOM     25  C   UNL     1      -0.008  12.607  19.007  0.00  0.00    +0.000 A 
ENDBRANCH  19  20
ENDBRANCH  17  19
ENDBRANCH   3  13
BRANCH   1  27
ATOM     26  C   UNL     1       5.280   4.131  15.612  0.00  0.00    +0.000 C 
ATOM     27  C   UNL     1       5.592   5.100  16.780  0.00  0.00    +0.000 C 
ATOM     28  C   UNL     1       6.843   4.549  17.497  0.00  0.00    +0.000 C 
ATOM     29  C   UNL     1       5.909   6.478  16.174  0.00  0.00    +0.000 C 
ENDBRANCH   1  27
TORSDOF 4
ENDMDL
MODEL 8
REMARK VINA RESULT:      -8.0      2.114      2.987
REMARK  Name = 
REMARK  7 active torsions:
REMARK  status: ('A' for Active; 'I' for Inactive)
REMARK    1  A    between atoms: C_1  and  C_2
REMARK    2  A    between atoms: C_2  and  C_3
REMARK    3  A    between atoms: C_2  and  C_4
REMARK    4  A    between atoms: C_2  and  N_5
REMARK    5  A    between atoms: C_7  and  C_8
REMARK    6  A    between atoms: C_12  and  O_13
REMARK    7  A    between atoms: O_13  and  C_14
REMARK                            x       y       z     vdW  Elec       q    Type
REMARK                         _______ _______ _______ _____ _____    ______ ____
ROOT
ATOM      1  N   UNL     1       5.494   5.700  18.498  0.00  0.00    +0.000 N 
ATOM      2  N   UNL     1       4.759   6.831  18.416  0.00  0.00    +0.000 NA
ATOM      3  C   UNL     1       3.561   6.512  18.934  0.00  0.00    +0.000 A 
ATOM      4  C   UNL     1       3.525   5.141  19.336  0.00  0.00    +0.000 A 
ATOM      5  C   UNL     1       2.608   4.217  19.862  0.00  0.00    +0.000 A 
ATOM      6  N   UNL     1       1.265   4.466  20.108  0.00  0.00    +0.000 N 
ATOM      7  N   UNL     1       3.028   2.964  20.131  0.00  0.00    +0.000 NA
ATOM      8  C   UNL     1       4.305   2.642  19.864  0.00  0.00    +0.000 A 
ATOM      9  N   UNL     1       5.255   3.416  19.324  0.00  0.00    +0.000 NA
ATOM     10  C   UNL     1       4.801   4.662  19.076  0.00  0.00    +0.000 A 
ATOM     11  H   UNL     1       0.827   5.097  19.448  0.00  0.00    +0.000 HD
ATOM     12  H   UNL     1       0.771   3.592  20.257  0.00  0.00    +0.000 HD
ENDROOT
BRANCH   3  13
ATOM     13  C   UNL     1       2.485   7.508  18.948  0.00  0.00    +0.000 A 
ATOM     14  C   UNL     1       2.086   8.182  17.787  0.00  0.00    +0.000 A 
ATOM     15  C   UNL     1       1.183   9.246  17.856  0.00  0.00    +0.000 A 
ATOM     16  C   UNL     1       0.655   9.632  19.087  0.00  0.00    +0.000 A 
ATOM     17  C   UNL     1       1.004   8.940  20.245  0.00  0.00    +0.000 A 
ATOM     18  C   UNL     1       1.872   7.845  20.163  0.00  0.00    +0.000 A 
BRANCH  17  19
ATOM     19  O   UNL     1       0.430   9.380  21.416  0.00  0.00    +0.000 OA
BRANCH  19  20
ATOM     20  C   UNL     1       0.204  10.728  21.594  0.00  0.00    +0.000 A 
ATOM     21  C   UNL     1       0.914  11.738  20.936  0.00  0.00    +0.000 A 
ATOM     22  C   UNL     1       0.648  13.078  21.215  0.00  0.00    +0.000 A 
ATOM     23  C   UNL     1      -0.370  13.415  22.105  0.00  0.00    +0.000 A 
ATOM     24  C   UNL     1      -1.127  12.411  22.712  0.00  0.00    +0.000 A 
ATOM     25  C   UNL     1      -0.839  11.069  22.456  0.00  0.00    +0.000 A 
ENDBRANCH  19  20
ENDBRANCH  17  19
ENDBRANCH   3  13
BRANCH   1  27
ATOM     26  C   UNL     1       7.228   7.013  17.264  0.00  0.00    +0.000 C 
ATOM     27  C   UNL     1       6.882   5.691  17.994  0.00  0.00    +0.000 C 
ATOM     28  C   UNL     1       7.100   4.549  16.978  0.00  0.00    +0.000 C 
ATOM     29  C   UNL     1       7.863   5.533  19.169  0.00  0.00    +0.000 C 
ENDBRANCH   1  27
TORSDOF 4
ENDMDL
MODEL 9
REMARK VINA RESULT:      -7.8      0.830      1.315
REMARK  Name = 
REMARK  7 active torsions:
REMARK  status: ('A' for Active; 'I' for Inactive)
REMARK    1  A    between atoms: C_1  and  C_2
REMARK    2  A    between atoms: C_2  and  C_3
REMARK    3  A    between atoms: C_2  and  C_4
REMARK    4  A    between atoms: C_2  and  N_5
REMARK    5  A    between atoms: C_7  and  C_8
REMARK    6  A    between atoms: C_12  and  O_13
REMARK    7  A    between atoms: O_13  and  C_14
REMARK                            x       y       z     vdW  Elec       q    Type
REMARK                         _______ _______ _______ _____ _____    ______ ____
ROOT
ATOM      1  N   UNL     1       4.475   5.093  17.592  0.00  0.00    +0.000 N 
ATOM      2  N   UNL     1       4.068   6.310  18.016  0.00  0.00    +0.000 NA
ATOM      3  C   UNL     1       3.026   6.072  18.828  0.00  0.00    +0.000 A 
ATOM      4  C   UNL     1       2.749   4.672  18.909  0.00  0.00    +0.000 A 
ATOM      5  C   UNL     1       1.810   3.812  19.500  0.00  0.00    +0.000 A 
ATOM      6  N   UNL     1       0.705   4.211  20.239  0.00  0.00    +0.000 N 
ATOM      7  N   UNL     1       1.947   2.482  19.329  0.00  0.00    +0.000 NA
ATOM      8  C   UNL     1       2.966   2.031  18.577  0.00  0.00    +0.000 A 
ATOM      9  N   UNL     1       3.891   2.747  17.928  0.00  0.00    +0.000 NA
ATOM     10  C   UNL     1       3.728   4.072  18.130  0.00  0.00    +0.000 A 
ATOM     11  H   UNL     1       0.278   5.074  19.924  0.00  0.00    +0.000 HD
ATOM     12  H   UNL     1       0.063   3.434  20.353  0.00  0.00    +0.000 HD
ENDROOT
BRANCH   3  13
ATOM     13  C   UNL     1       2.296   7.194  19.427  0.00  0.00    +0.000 A 
ATOM     14  C   UNL     1       1.854   7.164  20.754  0.00  0.00    +0.000 A 
ATOM     15  C   UNL     1       1.015   8.166  21.249  0.00  0.00    +0.000 A 
ATOM     16  C   UNL     1       0.628   9.220  20.422  0.00  0.00    +0.000 A 
ATOM     17  C   UNL     1       1.100   9.290  19.113  0.00  0.00    +0.000 A 
ATOM     18  C   UNL     1       1.978   8.309  18.638  0.00  0.00    +0.000 A 
BRANCH  17  19
ATOM     19  O   UNL     1       0.677  10.368  18.368  0.00  0.00    +0.000 OA
BRANCH  19  20
ATOM     20  C   UNL     1      -0.102  11.338  18.962  0.00  0.00    +0.000 A 
ATOM     21  C   UNL     1       0.408  12.449  19.642  0.00  0.00    +0.000 A 
ATOM     22  C   UNL     1      -0.457  13.354  20.254  0.00  0.00    +0.000 A 
ATOM     23  C   UNL     1      -1.836  13.188  20.137  0.00  0.00    +0.000 A 
ATOM     24  C   UNL     1      -2.349  12.119  19.400  0.00  0.00    +0.000 A 
ATOM     25  C   UNL     1      -1.483  11.195  18.814  0.00  0.00    +0.000 A 
ENDBRANCH  19  20
ENDBRANCH  17  19
ENDBRANCH   3  13
BRANCH   1  27
ATOM     26  C   UNL     1       5.311   3.979  15.515  0.00  0.00    +0.000 C 
ATOM     27  C   UNL     1       5.610   4.986  16.654  0.00  0.00    +0.000 C 
ATOM     28  C   UNL     1       6.883   4.487  17.371  0.00  0.00    +0.000 C 
ATOM     29  C   UNL     1       5.884   6.356  16.009  0.00  0.00    +0.000 C 
ENDBRANCH   1  27
TORSDOF 4
ENDMDL
