MODEL 1
REMARK VINA RESULT:      -6.0      0.000      0.000
REMARK  Name = 
REMARK  4 active torsions:
REMARK  status: ('A' for Active; 'I' for Inactive)
REMARK    1  A    between atoms: C_1  and  N_2
REMARK    2  A    between atoms: C_6  and  S_7
REMARK    3  A    between atoms: S_7  and  C_8
REMARK    4  A    between atoms: C_11  and  N_12
REMARK                            x       y       z     vdW  Elec       q    Type
REMARK                         _______ _______ _______ _____ _____    ______ ____
ROOT
ATOM      1  C   UNL     1       5.268   4.010  17.989  0.00  0.00    +0.000 A 
ATOM      2  C   UNL     1       4.751   3.986  16.699  0.00  0.00    +0.000 A 
ATOM      3  C   UNL     1       5.535   4.458  15.641  0.00  0.00    +0.000 A 
ATOM      4  C   UNL     1       6.807   4.966  15.884  0.00  0.00    +0.000 A 
ATOM      5  C   UNL     1       7.256   4.891  17.201  0.00  0.00    +0.000 A 
ATOM      6  N   UNL     1       6.520   4.454  18.253  0.00  0.00    +0.000 NA
ENDROOT
BRANCH   4   7
ATOM      7  N   UNL     1       7.662   5.289  14.825  0.00  0.00    +0.000 N 
ATOM      8  H   UNL     1       7.670   4.603  14.076  0.00  0.00    +0.000 HD
ATOM      9  H   UNL     1       7.557   6.237  14.477  0.00  0.00    +0.000 HD
ENDBRANCH   4   7
BRANCH   1  10
ATOM     10  S   UNL     1       4.402   3.314  19.382  0.00  0.00    +0.000 S 
BRANCH  10  16
ATOM     11  C   UNL     1       1.926   3.341  21.427  0.00  0.00    +0.000 C 
ATOM     12  N   UNL     1       2.321   4.511  20.680  0.00  0.00    +0.000 N 
ATOM     13  C   UNL     1       1.667   5.716  20.709  0.00  0.00    +0.000 A 
ATOM     14  C   UNL     1       2.363   6.521  19.840  0.00  0.00    +0.000 A 
ATOM     15  N   UNL     1       3.417   5.844  19.287  0.00  0.00    +0.000 NA
ATOM     16  C   UNL     1       3.376   4.638  19.813  0.00  0.00    +0.000 A 
ENDBRANCH  10  16
ENDBRANCH   1  10
TORSDOF 3
ENDMDL
MODEL 2
REMARK VINA RESULT:      -5.9      1.911      2.426
REMARK  Name = 
REMARK  4 active torsions:
REMARK  status: ('A' for Active; 'I' for Inactive)
REMARK    1  A    between atoms: C_1  and  N_2
REMARK    2  A    between atoms: C_6  and  S_7
REMARK    3  A    between atoms: S_7  and  C_8
REMARK    4  A    between atoms: C_11  and  N_12
REMARK                            x       y       z     vdW  Elec       q    Type
REMARK                         _______ _______ _______ _____ _____    ______ ____
ROOT
ATOM      1  C   UNL     1       5.125   5.187  17.990  0.00  0.00    +0.000 A 
ATOM      2  C   UNL     1       6.415   4.677  18.076  0.00  0.00    +0.000 A 
ATOM      3  C   UNL     1       7.221   4.660  16.933  0.00  0.00    +0.000 A 
ATOM      4  C   UNL     1       6.725   5.129  15.721  0.00  0.00    +0.000 A 
ATOM      5  C   UNL     1       5.444   5.675  15.751  0.00  0.00    +0.000 A 
ATOM      6  N   UNL     1       4.630   5.694  16.836  0.00  0.00    +0.000 NA
ENDROOT
BRANCH   4   7
ATOM      7  N   UNL     1       7.567   5.271  14.613  0.00  0.00    +0.000 N 
ATOM      8  H   UNL     1       7.482   6.166  14.140  0.00  0.00    +0.000 HD
ATOM      9  H   UNL     1       8.535   5.019  14.788  0.00  0.00    +0.000 HD
ENDBRANCH   4   7
BRANCH   1  10
ATOM     10  S   UNL     1       4.069   5.370  19.413  0.00  0.00    +0.000 S 
BRANCH  10  16
ATOM     11  C   UNL     1       4.361   2.243  20.084  0.00  0.00    +0.000 C 
ATOM     12  N   UNL     1       3.192   2.785  19.435  0.00  0.00    +0.000 N 
ATOM     13  C   UNL     1       2.130   2.043  18.987  0.00  0.00    +0.000 A 
ATOM     14  C   UNL     1       1.271   2.954  18.420  0.00  0.00    +0.000 A 
ATOM     15  N   UNL     1       1.778   4.223  18.511  0.00  0.00    +0.000 NA
ATOM     16  C   UNL     1       2.932   4.097  19.132  0.00  0.00    +0.000 A 
ENDBRANCH  10  16
ENDBRANCH   1  10
TORSDOF 3
ENDMDL
MODEL 3
REMARK VINA RESULT:      -5.9      1.835      2.172
REMARK  Name = 
REMARK  4 active torsions:
REMARK  status: ('A' for Active; 'I' for Inactive)
REMARK    1  A    between atoms: C_1  and  N_2
REMARK    2  A    between atoms: C_6  and  S_7
REMARK    3  A    between atoms: S_7  and  C_8
REMARK    4  A    between atoms: C_11  and  N_12
REMARK                            x       y       z     vdW  Elec       q    Type
REMARK                         _______ _______ _______ _____ _____    ______ ____
ROOT
ATOM      1  C   UNL     1       5.128   5.285  18.001  0.00  0.00    +0.000 A 
ATOM      2  C   UNL     1       4.698   5.930  16.848  0.00  0.00    +0.000 A 
ATOM      3  C   UNL     1       5.533   5.953  15.725  0.00  0.00    +0.000 A 
ATOM      4  C   UNL     1       6.788   5.355  15.776  0.00  0.00    +0.000 A 
ATOM      5  C   UNL     1       7.101   4.683  16.955  0.00  0.00    +0.000 A 
ATOM      6  N   UNL     1       6.324   4.653  18.066  0.00  0.00    +0.000 NA
ENDROOT
BRANCH   4   7
ATOM      7  N   UNL     1       7.564   5.226  14.619  0.00  0.00    +0.000 N 
ATOM      8  H   UNL     1       7.051   4.884  13.812  0.00  0.00    +0.000 HD
ATOM      9  H   UNL     1       8.126   6.043  14.399  0.00  0.00    +0.000 HD
ENDBRANCH   4   7
BRANCH   1  10
ATOM     10  S   UNL     1       4.089   5.089  19.434  0.00  0.00    +0.000 S 
BRANCH  10  16
ATOM     11  C   UNL     1       1.145   4.348  20.483  0.00  0.00    +0.000 C 
ATOM     12  N   UNL     1       1.810   3.586  19.455  0.00  0.00    +0.000 N 
ATOM     13  C   UNL     1       1.305   2.454  18.868  0.00  0.00    +0.000 A 
ATOM     14  C   UNL     1       2.271   2.051  17.978  0.00  0.00    +0.000 A 
ATOM     15  N   UNL     1       3.344   2.902  18.006  0.00  0.00    +0.000 NA
ATOM     16  C   UNL     1       3.041   3.822  18.897  0.00  0.00    +0.000 A 
ENDBRANCH  10  16
ENDBRANCH   1  10
TORSDOF 3
ENDMDL
MODEL 4
REMARK VINA RESULT:      -5.9      1.689      2.311
REMARK  Name = 
REMARK  4 active torsions:
REMARK  status: ('A' for Active; 'I' for Inactive)
REMARK    1  A    between atoms: C_1  and  N_2
REMARK    2  A    between atoms: C_6  and  S_7
REMARK    3  A    between atoms: S_7  and  C_8
REMARK    4  A    between atoms: C_11  and  N_12
REMARK                            x       y       z     vdW  Elec       q    Type
REMARK                         _______ _______ _______ _____ _____    ______ ____
ROOT
ATOM      1  C   UNL     1       4.025   5.161  17.932  0.00  0.00    +0.000 A 
ATOM      2  C   UNL     1       4.391   4.503  16.764  0.00  0.00    +0.000 A 
ATOM      3  C   UNL     1       5.744   4.249  16.517  0.00  0.00    +0.000 A 
ATOM      4  C   UNL     1       6.711   4.672  17.424  0.00  0.00    +0.000 A 
ATOM      5  C   UNL     1       6.240   5.267  18.591  0.00  0.00    +0.000 A 
ATOM      6  N   UNL     1       4.938   5.543  18.856  0.00  0.00    +0.000 NA
ENDROOT
BRANCH   4   7
ATOM      7  N   UNL     1       8.047   4.284  17.275  0.00  0.00    +0.000 N 
ATOM      8  H   UNL     1       8.608   4.402  18.114  0.00  0.00    +0.000 HD
ATOM      9  H   UNL     1       8.172   3.368  16.854  0.00  0.00    +0.000 HD
ENDBRANCH   4   7
BRANCH   1  10
ATOM     10  S   UNL     1       2.324   5.415  18.397  0.00  0.00    +0.000 S 
BRANCH  10  16
ATOM     11  C   UNL     1       1.555   2.296  18.388  0.00  0.00    +0.000 C 
ATOM     12  N   UNL     1       1.822   3.020  19.607  0.00  0.00    +0.000 N 
ATOM     13  C   UNL     1       1.721   2.492  20.869  0.00  0.00    +0.000 A 
ATOM     14  C   UNL     1       2.036   3.528  21.715  0.00  0.00    +0.000 A 
ATOM     15  N   UNL     1       2.325   4.665  21.008  0.00  0.00    +0.000 NA
ATOM     16  C   UNL     1       2.197   4.332  19.741  0.00  0.00    +0.000 A 
ENDBRANCH  10  16
ENDBRANCH   1  10
TORSDOF 3
ENDMDL
MODEL 5
REMARK VINA RESULT:      -5.8      1.755      2.396
REMARK  Name = 
REMARK  4 active torsions:
REMARK  status: ('A' for Active; 'I' for Inactive)
REMARK    1  A    between atoms: C_1  and  N_2
REMARK    2  A    between atoms: C_6  and  S_7
REMARK    3  A    between atoms: S_7  and  C_8
REMARK    4  A    between atoms: C_11  and  N_12
REMARK                            x       y       z     vdW  Elec       q    Type
REMARK                         _______ _______ _______ _____ _____    ______ ____
ROOT
ATOM      1  C   UNL     1       5.225   5.110  17.913  0.00  0.00    +0.000 A 
ATOM      2  C   UNL     1       6.545   4.681  17.994  0.00  0.00    +0.000 A 
ATOM      3  C   UNL     1       7.344   4.710  16.846  0.00  0.00    +0.000 A 
ATOM      4  C   UNL     1       6.813   5.143  15.635  0.00  0.00    +0.000 A 
ATOM      5  C   UNL     1       5.501   5.610  15.671  0.00  0.00    +0.000 A 
ATOM      6  N   UNL     1       4.693   5.582  16.760  0.00  0.00    +0.000 NA
ENDROOT
BRANCH   4   7
ATOM      7  N   UNL     1       7.638   5.333  14.522  0.00  0.00    +0.000 N 
ATOM      8  H   UNL     1       8.476   4.759  14.524  0.00  0.00    +0.000 HD
ATOM      9  H   UNL     1       7.152   5.300  13.630  0.00  0.00    +0.000 HD
ENDBRANCH   4   7
BRANCH   1  10
ATOM     10  S   UNL     1       4.168   5.233  19.342  0.00  0.00    +0.000 S 
BRANCH  10  16
ATOM     11  C   UNL     1       1.267   4.594  20.563  0.00  0.00    +0.000 C 
ATOM     12  N   UNL     1       1.993   3.638  19.761  0.00  0.00    +0.000 N 
ATOM     13  C   UNL     1       1.569   2.364  19.488  0.00  0.00    +0.000 A 
ATOM     14  C   UNL     1       2.570   1.810  18.725  0.00  0.00    +0.000 A 
ATOM     15  N   UNL     1       3.585   2.708  18.528  0.00  0.00    +0.000 NA
ATOM     16  C   UNL     1       3.212   3.804  19.154  0.00  0.00    +0.000 A 
ENDBRANCH  10  16
ENDBRANCH   1  10
TORSDOF 3
ENDMDL
MODEL 6
REMARK VINA RESULT:      -5.8      2.111      2.463
REMARK  Name = 
REMARK  4 active torsions:
REMARK  status: ('A' for Active; 'I' for Inactive)
REMARK    1  A    between atoms: C_1  and  N_2
REMARK    2  A    between atoms: C_6  and  S_7
REMARK    3  A    between atoms: S_7  and  C_8
REMARK    4  A    between atoms: C_11  and  N_12
REMARK                            x       y       z     vdW  Elec       q    Type
REMARK                         _______ _______ _______ _____ _____    ______ ____
ROOT
ATOM      1  C   UNL     1       4.114   5.749  17.862  0.00  0.00    +0.000 A 
ATOM      2  C   UNL     1       4.692   6.266  16.708  0.00  0.00    +0.000 A 
ATOM      3  C   UNL     1       5.986   5.870  16.355  0.00  0.00    +0.000 A 
ATOM      4  C   UNL     1       6.692   4.985  17.165  0.00  0.00    +0.000 A 
ATOM      5  C   UNL     1       6.004   4.478  18.265  0.00  0.00    +0.000 A 
ATOM      6  N   UNL     1       4.757   4.850  18.645  0.00  0.00    +0.000 NA
ENDROOT
BRANCH   4   7
ATOM      7  N   UNL     1       7.916   4.454  16.745  0.00  0.00    +0.000 N 
ATOM      8  H   UNL     1       8.447   4.003  17.484  0.00  0.00    +0.000 HD
ATOM      9  H   UNL     1       7.858   3.881  15.908  0.00  0.00    +0.000 HD
ENDBRANCH   4   7
BRANCH   1  10
ATOM     10  S   UNL     1       2.428   6.091  18.325  0.00  0.00    +0.000 S 
BRANCH  10  16
ATOM     11  C   UNL     1       2.098   4.630  21.166  0.00  0.00    +0.000 C 
ATOM     12  N   UNL     1       1.797   3.967  19.921  0.00  0.00    +0.000 N 
ATOM     13  C   UNL     1       1.406   2.658  19.804  0.00  0.00    +0.000 A 
ATOM     14  C   UNL     1       1.257   2.449  18.454  0.00  0.00    +0.000 A 
ATOM     15  N   UNL     1       1.543   3.588  17.750  0.00  0.00    +0.000 NA
ATOM     16  C   UNL     1       1.858   4.491  18.654  0.00  0.00    +0.000 A 
ENDBRANCH  10  16
ENDBRANCH   1  10
TORSDOF 3
ENDMDL
MODEL 7
REMARK VINA RESULT:      -5.8      1.854      2.483
REMARK  Name = 
REMARK  4 active torsions:
REMARK  status: ('A' for Active; 'I' for Inactive)
REMARK    1  A    between atoms: C_1  and  N_2
REMARK    2  A    between atoms: C_6  and  S_7
REMARK    3  A    between atoms: S_7  and  C_8
REMARK    4  A    between atoms: C_11  and  N_12
REMARK                            x       y       z     vdW  Elec       q    Type
REMARK                         _______ _______ _______ _____ _____    ______ ____
ROOT
ATOM      1  C   UNL     1       4.227   5.909  18.529  0.00  0.00    +0.000 A 
ATOM      2  C   UNL     1       4.535   6.233  17.214  0.00  0.00    +0.000 A 
ATOM      3  C   UNL     1       5.723   5.754  16.651  0.00  0.00    +0.000 A 
ATOM      4  C   UNL     1       6.594   4.981  17.412  0.00  0.00    +0.000 A 
ATOM      5  C   UNL     1       6.167   4.661  18.699  0.00  0.00    +0.000 A 
ATOM      6  N   UNL     1       5.031   5.119  19.280  0.00  0.00    +0.000 NA
ENDROOT
BRANCH   4   7
ATOM      7  N   UNL     1       7.699   4.360  16.820  0.00  0.00    +0.000 N 
ATOM      8  H   UNL     1       7.880   4.658  15.866  0.00  0.00    +0.000 HD
ATOM      9  H   UNL     1       8.539   4.369  17.391  0.00  0.00    +0.000 HD
ENDBRANCH   4   7
BRANCH   1  10
ATOM     10  S   UNL     1       2.682   6.361  19.292  0.00  0.00    +0.000 S 
BRANCH  10  16
ATOM     11  C   UNL     1       1.470   3.770  17.832  0.00  0.00    +0.000 C 
ATOM     12  N   UNL     1       1.676   3.824  19.259  0.00  0.00    +0.000 N 
ATOM     13  C   UNL     1       1.331   2.830  20.139  0.00  0.00    +0.000 A 
ATOM     14  C   UNL     1       1.678   3.312  21.377  0.00  0.00    +0.000 A 
ATOM     15  N   UNL     1       2.223   4.565  21.277  0.00  0.00    +0.000 NA
ATOM     16  C   UNL     1       2.218   4.849  19.992  0.00  0.00    +0.000 A 
ENDBRANCH  10  16
ENDBRANCH   1  10
TORSDOF 3
ENDMDL
MODEL 8
REMARK VINA RESULT:      -5.8      1.874      5.512
REMARK  Name = 
REMARK  4 active torsions:
REMARK  status: ('A' for Active; 'I' for Inactive)
REMARK    1  A    between atoms: C_1  and  N_2
REMARK    2  A    between atoms: C_6  and  S_7
REMARK    3  A    between atoms: S_7  and  C_8
REMARK    4  A    between atoms: C_11  and  N_12
REMARK                            x       y       z     vdW  Elec       q    Type
REMARK                         _______ _______ _______ _____ _____    ______ ____
ROOT
ATOM      1  C   UNL     1       3.165   5.470  18.397  0.00  0.00    +0.000 A 
ATOM      2  C   UNL     1       2.262   4.638  17.745  0.00  0.00    +0.000 A 
ATOM      3  C   UNL     1       1.441   3.795  18.502  0.00  0.00    +0.000 A 
ATOM      4  C   UNL     1       1.547   3.777  19.889  0.00  0.00    +0.000 A 
ATOM      5  C   UNL     1       2.437   4.690  20.449  0.00  0.00    +0.000 A 
ATOM      6  N   UNL     1       3.258   5.510  19.747  0.00  0.00    +0.000 NA
ENDROOT
BRANCH   4   7
ATOM      7  N   UNL     1       0.626   3.065  20.666  0.00  0.00    +0.000 N 
ATOM      8  H   UNL     1       0.489   2.104  20.369  0.00  0.00    +0.000 HD
ATOM      9  H   UNL     1       0.778   3.140  21.668  0.00  0.00    +0.000 HD
ENDBRANCH   4   7
BRANCH   1  10
ATOM     10  S   UNL     1       4.159   6.669  17.532  0.00  0.00    +0.000 S 
BRANCH  10  16
ATOM     11  C   UNL     1       5.447   4.887  15.191  0.00  0.00    +0.000 C 
ATOM     12  N   UNL     1       6.111   5.094  16.455  0.00  0.00    +0.000 N 
ATOM     13  C   UNL     1       7.304   4.522  16.816  0.00  0.00    +0.000 A 
ATOM     14  C   UNL     1       7.542   4.968  18.094  0.00  0.00    +0.000 A 
ATOM     15  N   UNL     1       6.534   5.793  18.517  0.00  0.00    +0.000 NA
ATOM     16  C   UNL     1       5.688   5.859  17.511  0.00  0.00    +0.000 A 
ENDBRANCH  10  16
ENDBRANCH   1  10
TORSDOF 3
ENDMDL
MODEL 9
REMARK VINA RESULT:      -5.7      1.663      2.085
REMARK  Name = 
REMARK  4 active torsions:
REMARK  status: ('A' for Active; 'I' for Inactive)
REMARK    1  A    between atoms: C_1  and  N_2
REMARK    2  A    between atoms: C_6  and  S_7
REMARK    3  A    between atoms: S_7  and  C_8
REMARK    4  A    between atoms: C_11  and  N_12
REMARK                            x       y       z     vdW  Elec       q    Type
REMARK                         _______ _______ _______ _____ _____    ______ ____
ROOT
ATOM      1  C   UNL     1       5.120   3.730  18.688  0.00  0.00    +0.000 A 
ATOM      2  C   UNL     1       4.613   3.865  17.401  0.00  0.00    +0.000 A 
ATOM      3  C   UNL     1       5.290   4.671  16.481  0.00  0.00    +0.000 A 
ATOM      4  C   UNL     1       6.446   5.346  16.860  0.00  0.00    +0.000 A 
ATOM      5  C   UNL     1       6.906   5.098  18.151  0.00  0.00    +0.000 A 
ATOM      6  N   UNL     1       6.268   4.335  19.074  0.00  0.00    +0.000 NA
ENDROOT
BRANCH   4   7
ATOM      7  N   UNL     1       7.222   6.022  15.913  0.00  0.00    +0.000 N 
ATOM      8  H   UNL     1       7.912   6.651  16.314  0.00  0.00    +0.000 HD
ATOM      9  H   UNL     1       7.620   5.423  15.194  0.00  0.00    +0.000 HD
ENDBRANCH   4   7
BRANCH   1  10
ATOM     10  S   UNL     1       4.404   2.626  19.889  0.00  0.00    +0.000 S 
BRANCH  10  16
ATOM     11  C   UNL     1       2.271   4.775  20.962  0.00  0.00    +0.000 C 
ATOM     12  N   UNL     1       1.907   3.717  20.051  0.00  0.00    +0.000 N 
ATOM     13  C   UNL     1       0.635   3.476  19.598  0.00  0.00    +0.000 A 
ATOM     14  C   UNL     1       0.748   2.374  18.785  0.00  0.00    +0.000 A 
ATOM     15  N   UNL     1       2.046   1.941  18.729  0.00  0.00    +0.000 NA
ATOM     16  C   UNL     1       2.726   2.769  19.493  0.00  0.00    +0.000 A 
ENDBRANCH  10  16
ENDBRANCH   1  10
TORSDOF 3
ENDMDL
