MODEL 1
REMARK VINA RESULT:      -7.0      0.000      0.000
REMARK  Name = 
REMARK  7 active torsions:
REMARK  status: ('A' for Active; 'I' for Inactive)
REMARK    1  A    between atoms: C_2  and  C_3
REMARK    2  A    between atoms: C_3  and  S_4
REMARK    3  A    between atoms: N_5  and  C_6
REMARK    4  A    between atoms: C_6  and  C_7
REMARK    5  A    between atoms: C_7  and  N_8
REMARK    6  A    between atoms: C_9  and  C_11
REMARK    7  A    between atoms: C_13  and  C_14
REMARK                            x       y       z     vdW  Elec       q    Type
REMARK                         _______ _______ _______ _____ _____    ______ ____
ROOT
ATOM      1  N   UNL     1       5.963   5.187  17.573  0.00  0.00    +0.000 N 
ATOM      2  C   UNL     1       7.227   5.521  18.018  0.00  0.00    +0.000 C 
ATOM      3  O   UNL     1       8.028   4.673  18.421  0.00  0.00    +0.000 OA
ATOM      4  H   UNL     1       5.428   5.934  17.127  0.00  0.00    +0.000 HD
ENDROOT
BRANCH   2   5
ATOM      5  C   UNL     1       7.565   6.954  17.965  0.00  0.00    +0.000 A 
ATOM      6  C   UNL     1       8.458   7.665  18.816  0.00  0.00    +0.000 A 
ATOM      7  C   UNL     1       8.463   8.973  18.374  0.00  0.00    +0.000 A 
ATOM      8  N   UNL     1       7.601   8.977  17.308  0.00  0.00    +0.000 N 
ATOM      9  N   UNL     1       7.038   7.785  17.039  0.00  0.00    +0.000 NA
ATOM     10  H   UNL     1       7.376   9.762  16.704  0.00  0.00    +0.000 HD
BRANCH   7  11
ATOM     11  C   UNL     1       9.208  10.138  18.843  0.00  0.00    +0.000 A 
ATOM     12  C   UNL     1       9.933  10.921  17.928  0.00  0.00    +0.000 A 
ATOM     13  C   UNL     1      10.695  12.007  18.363  0.00  0.00    +0.000 A 
ATOM     14  C   UNL     1      10.734  12.312  19.717  0.00  0.00    +0.000 A 
ATOM     15  F   UNL     1      11.482  13.340  20.139  0.00  0.00    +0.000 F 
ATOM     16  C   UNL     1      10.017  11.563  20.640  0.00  0.00    +0.000 A 
ATOM     17  C   UNL     1       9.249  10.478  20.204  0.00  0.00    +0.000 A 
ENDBRANCH   7  11
ENDBRANCH   2   5
BRANCH   1  18
ATOM     18  C   UNL     1       5.489   3.817  17.560  0.00  0.00    +0.000 C 
BRANCH  18  19
ATOM     19  C   UNL     1       3.963   3.697  17.398  0.00  0.00    +0.000 C 
BRANCH  19  22
ATOM     20  O   UNL     1       1.117   3.667  17.765  0.00  0.00    +0.000 OA
ATOM     21  C   UNL     1       1.840   3.887  18.730  0.00  0.00    +0.000 C 
ATOM     22  N   UNL     1       3.212   3.924  18.632  0.00  0.00    +0.000 N 
ATOM     23  H   UNL     1       3.720   4.121  19.491  0.00  0.00    +0.000 HD
BRANCH  21  24
ATOM     24  C   UNL     1       1.262   4.201  20.117  0.00  0.00    +0.000 C 
BRANCH  24  25
ATOM     25  S   UNL     1       1.740   2.983  21.383  0.00  0.00    +0.000 S 
ATOM     26  H   UNL     1       1.839   1.933  20.552  0.00  0.00    +0.000 HD
ENDBRANCH  24  25
ENDBRANCH  21  24
ENDBRANCH  19  22
ENDBRANCH  18  19
ENDBRANCH   1  18
TORSDOF 7
ENDMDL
MODEL 2
REMARK VINA RESULT:      -7.0      1.358      1.644
REMARK  Name = 
REMARK  7 active torsions:
REMARK  status: ('A' for Active; 'I' for Inactive)
REMARK    1  A    between atoms: C_2  and  C_3
REMARK    2  A    between atoms: C_3  and  S_4
REMARK    3  A    between atoms: N_5  and  C_6
REMARK    4  A    between atoms: C_6  and  C_7
REMARK    5  A    between atoms: C_7  and  N_8
REMARK    6  A    between atoms: C_9  and  C_11
REMARK    7  A    between atoms: C_13  and  C_14
REMARK                            x       y       z     vdW  Elec       q    Type
REMARK                         _______ _______ _______ _____ _____    ______ ____
ROOT
ATOM      1  N   UNL     1       5.728   4.936  17.557  0.00  0.00    +0.000 N 
ATOM      2  C   UNL     1       6.562   5.749  16.815  0.00  0.00    +0.000 C 
ATOM      3  O   UNL     1       6.636   5.669  15.586  0.00  0.00    +0.000 OA
ATOM      4  H   UNL     1       5.628   5.172  18.546  0.00  0.00    +0.000 HD
ENDROOT
BRANCH   2   5
ATOM      5  C   UNL     1       7.345   6.732  17.584  0.00  0.00    +0.000 A 
ATOM      6  C   UNL     1       7.513   8.117  17.300  0.00  0.00    +0.000 A 
ATOM      7  C   UNL     1       8.313   8.629  18.304  0.00  0.00    +0.000 A 
ATOM      8  N   UNL     1       8.571   7.555  19.115  0.00  0.00    +0.000 N 
ATOM      9  N   UNL     1       8.013   6.400  18.710  0.00  0.00    +0.000 NA
ATOM     10  H   UNL     1       9.102   7.555  19.981  0.00  0.00    +0.000 HD
BRANCH   7  11
ATOM     11  C   UNL     1       8.790   9.987  18.546  0.00  0.00    +0.000 A 
ATOM     12  C   UNL     1       9.551  10.268  19.695  0.00  0.00    +0.000 A 
ATOM     13  C   UNL     1       9.971  11.569  19.973  0.00  0.00    +0.000 A 
ATOM     14  C   UNL     1       9.632  12.596  19.102  0.00  0.00    +0.000 A 
ATOM     15  F   UNL     1      10.015  13.849  19.377  0.00  0.00    +0.000 F 
ATOM     16  C   UNL     1       8.893  12.343  17.953  0.00  0.00    +0.000 A 
ATOM     17  C   UNL     1       8.475  11.038  17.671  0.00  0.00    +0.000 A 
ENDBRANCH   7  11
ENDBRANCH   2   5
BRANCH   1  18
ATOM     18  C   UNL     1       4.891   3.925  16.942  0.00  0.00    +0.000 C 
BRANCH  18  19
ATOM     19  C   UNL     1       3.387   4.229  17.042  0.00  0.00    +0.000 C 
BRANCH  19  22
ATOM     20  O   UNL     1       0.940   3.218  18.150  0.00  0.00    +0.000 OA
ATOM     21  C   UNL     1       1.707   3.845  18.872  0.00  0.00    +0.000 C 
ATOM     22  N   UNL     1       2.894   4.365  18.412  0.00  0.00    +0.000 N 
ATOM     23  H   UNL     1       3.455   4.875  19.091  0.00  0.00    +0.000 HD
BRANCH  21  24
ATOM     24  C   UNL     1       1.368   4.149  20.338  0.00  0.00    +0.000 C 
BRANCH  24  25
ATOM     25  S   UNL     1       1.807   2.793  21.470  0.00  0.00    +0.000 S 
ATOM     26  H   UNL     1       0.562   2.316  21.624  0.00  0.00    +0.000 HD
ENDBRANCH  24  25
ENDBRANCH  21  24
ENDBRANCH  19  22
ENDBRANCH  18  19
ENDBRANCH   1  18
TORSDOF 7
ENDMDL
MODEL 3
REMARK VINA RESULT:      -6.9      6.017      7.508
REMARK  Name = 
REMARK  7 active torsions:
REMARK  status: ('A' for Active; 'I' for Inactive)
REMARK    1  A    between atoms: C_2  and  C_3
REMARK    2  A    between atoms: C_3  and  S_4
REMARK    3  A    between atoms: N_5  and  C_6
REMARK    4  A    between atoms: C_6  and  C_7
REMARK    5  A    between atoms: C_7  and  N_8
REMARK    6  A    between atoms: C_9  and  C_11
REMARK    7  A    between atoms: C_13  and  C_14
REMARK                            x       y       z     vdW  Elec       q    Type
REMARK                         _______ _______ _______ _____ _____    ______ ____
ROOT
ATOM      1  N   UNL     1       6.202   5.032  17.042  0.00  0.00    +0.000 N 
ATOM      2  C   UNL     1       4.953   4.516  17.324  0.00  0.00    +0.000 C 
ATOM      3  O   UNL     1       4.557   3.450  16.845  0.00  0.00    +0.000 OA
ATOM      4  H   UNL     1       6.494   5.840  17.595  0.00  0.00    +0.000 HD
ENDROOT
BRANCH   2   5
ATOM      5  C   UNL     1       4.128   5.311  18.251  0.00  0.00    +0.000 A 
ATOM      6  C   UNL     1       3.447   6.531  17.975  0.00  0.00    +0.000 A 
ATOM      7  C   UNL     1       2.798   6.890  19.140  0.00  0.00    +0.000 A 
ATOM      8  N   UNL     1       3.111   5.893  20.027  0.00  0.00    +0.000 N 
ATOM      9  N   UNL     1       3.913   4.934  19.530  0.00  0.00    +0.000 NA
ATOM     10  H   UNL     1       2.782   5.797  20.983  0.00  0.00    +0.000 HD
BRANCH   7  11
ATOM     11  C   UNL     1       1.930   8.026  19.438  0.00  0.00    +0.000 A 
ATOM     12  C   UNL     1       1.407   8.186  20.734  0.00  0.00    +0.000 A 
ATOM     13  C   UNL     1       0.533   9.233  21.027  0.00  0.00    +0.000 A 
ATOM     14  C   UNL     1       0.178  10.125  20.024  0.00  0.00    +0.000 A 
ATOM     15  F   UNL     1      -0.678  11.119  20.297  0.00  0.00    +0.000 F 
ATOM     16  C   UNL     1       0.691   9.997  18.739  0.00  0.00    +0.000 A 
ATOM     17  C   UNL     1       1.571   8.950  18.446  0.00  0.00    +0.000 A 
ENDBRANCH   7  11
ENDBRANCH   2   5
BRANCH   1  18
ATOM     18  C   UNL     1       7.129   4.361  16.152  0.00  0.00    +0.000 C 
BRANCH  18  19
ATOM     19  C   UNL     1       6.965   4.764  14.677  0.00  0.00    +0.000 C 
BRANCH  19  22
ATOM     20  O   UNL     1       7.243   4.282  11.861  0.00  0.00    +0.000 OA
ATOM     21  C   UNL     1       6.462   3.595  12.509  0.00  0.00    +0.000 C 
ATOM     22  N   UNL     1       6.269   3.770  13.859  0.00  0.00    +0.000 N 
ATOM     23  H   UNL     1       5.593   3.152  14.302  0.00  0.00    +0.000 HD
BRANCH  21  24
ATOM     24  C   UNL     1       5.589   2.521  11.844  0.00  0.00    +0.000 C 
BRANCH  24  25
ATOM     25  S   UNL     1       4.024   3.178  11.187  0.00  0.00    +0.000 S 
ATOM     26  H   UNL     1       3.835   4.101  12.143  0.00  0.00    +0.000 HD
ENDBRANCH  24  25
ENDBRANCH  21  24
ENDBRANCH  19  22
ENDBRANCH  18  19
ENDBRANCH   1  18
TORSDOF 7
ENDMDL
MODEL 4
REMARK VINA RESULT:      -6.8      0.642      1.213
REMARK  Name = 
REMARK  7 active torsions:
REMARK  status: ('A' for Active; 'I' for Inactive)
REMARK    1  A    between atoms: C_2  and  C_3
REMARK    2  A    between atoms: C_3  and  S_4
REMARK    3  A    between atoms: N_5  and  C_6
REMARK    4  A    between atoms: C_6  and  C_7
REMARK    5  A    between atoms: C_7  and  N_8
REMARK    6  A    between atoms: C_9  and  C_11
REMARK    7  A    between atoms: C_13  and  C_14
REMARK                            x       y       z     vdW  Elec       q    Type
REMARK                         _______ _______ _______ _____ _____    ______ ____
ROOT
ATOM      1  N   UNL     1       6.197   5.436  17.033  0.00  0.00    +0.000 N 
ATOM      2  C   UNL     1       7.203   5.790  17.910  0.00  0.00    +0.000 C 
ATOM      3  O   UNL     1       7.754   4.967  18.645  0.00  0.00    +0.000 OA
ATOM      4  H   UNL     1       5.904   6.153  16.367  0.00  0.00    +0.000 HD
ENDROOT
BRANCH   2   5
ATOM      5  C   UNL     1       7.589   7.212  17.898  0.00  0.00    +0.000 A 
ATOM      6  C   UNL     1       8.507   7.866  18.769  0.00  0.00    +0.000 A 
ATOM      7  C   UNL     1       8.556   9.186  18.366  0.00  0.00    +0.000 A 
ATOM      8  N   UNL     1       7.694   9.251  17.302  0.00  0.00    +0.000 N 
ATOM      9  N   UNL     1       7.091   8.087  16.999  0.00  0.00    +0.000 NA
ATOM     10  H   UNL     1       7.496  10.061  16.722  0.00  0.00    +0.000 HD
BRANCH   7  11
ATOM     11  C   UNL     1       9.341  10.310  18.868  0.00  0.00    +0.000 A 
ATOM     12  C   UNL     1       9.395  10.564  20.250  0.00  0.00    +0.000 A 
ATOM     13  C   UNL     1      10.095  11.664  20.748  0.00  0.00    +0.000 A 
ATOM     14  C   UNL     1      10.745  12.515  19.864  0.00  0.00    +0.000 A 
ATOM     15  F   UNL     1      11.399  13.583  20.336  0.00  0.00    +0.000 F 
ATOM     16  C   UNL     1      10.719  12.278  18.495  0.00  0.00    +0.000 A 
ATOM     17  C   UNL     1      10.021  11.174  17.996  0.00  0.00    +0.000 A 
ENDBRANCH   7  11
ENDBRANCH   2   5
BRANCH   1  18
ATOM     18  C   UNL     1       5.713   4.074  16.925  0.00  0.00    +0.000 C 
BRANCH  18  19
ATOM     19  C   UNL     1       4.178   3.966  16.927  0.00  0.00    +0.000 C 
BRANCH  19  22
ATOM     20  O   UNL     1       1.420   3.516  17.582  0.00  0.00    +0.000 OA
ATOM     21  C   UNL     1       2.289   3.072  18.323  0.00  0.00    +0.000 C 
ATOM     22  N   UNL     1       3.630   3.252  18.080  0.00  0.00    +0.000 N 
ATOM     23  H   UNL     1       4.270   2.848  18.761  0.00  0.00    +0.000 HD
BRANCH  21  24
ATOM     24  C   UNL     1       1.940   2.329  19.621  0.00  0.00    +0.000 C 
BRANCH  24  25
ATOM     25  S   UNL     1       2.163   3.349  21.112  0.00  0.00    +0.000 S 
ATOM     26  H   UNL     1       2.262   2.329  21.979  0.00  0.00    +0.000 HD
ENDBRANCH  24  25
ENDBRANCH  21  24
ENDBRANCH  19  22
ENDBRANCH  18  19
ENDBRANCH   1  18
TORSDOF 7
ENDMDL
MODEL 5
REMARK VINA RESULT:      -6.8      4.948      9.239
REMARK  Name = 
REMARK  7 active torsions:
REMARK  status: ('A' for Active; 'I' for Inactive)
REMARK    1  A    between atoms: C_2  and  C_3
REMARK    2  A    between atoms: C_3  and  S_4
REMARK    3  A    between atoms: N_5  and  C_6
REMARK    4  A    between atoms: C_6  and  C_7
REMARK    5  A    between atoms: C_7  and  N_8
REMARK    6  A    between atoms: C_9  and  C_11
REMARK    7  A    between atoms: C_13  and  C_14
REMARK                            x       y       z     vdW  Elec       q    Type
REMARK                         _______ _______ _______ _____ _____    ______ ____
ROOT
ATOM      1  N   UNL     1       7.261   7.177  17.749  0.00  0.00    +0.000 N 
ATOM      2  C   UNL     1       6.957   6.122  16.912  0.00  0.00    +0.000 C 
ATOM      3  O   UNL     1       7.502   5.975  15.815  0.00  0.00    +0.000 OA
ATOM      4  H   UNL     1       6.868   7.136  18.691  0.00  0.00    +0.000 HD
ENDROOT
BRANCH   2   5
ATOM      5  C   UNL     1       5.953   5.172  17.421  0.00  0.00    +0.000 A 
ATOM      6  C   UNL     1       5.232   5.249  18.647  0.00  0.00    +0.000 A 
ATOM      7  C   UNL     1       4.398   4.148  18.681  0.00  0.00    +0.000 A 
ATOM      8  N   UNL     1       4.653   3.491  17.506  0.00  0.00    +0.000 N 
ATOM      9  N   UNL     1       5.585   4.072  16.730  0.00  0.00    +0.000 NA
ATOM     10  H   UNL     1       4.198   2.649  17.163  0.00  0.00    +0.000 HD
BRANCH   7  11
ATOM     11  C   UNL     1       3.416   3.725  19.675  0.00  0.00    +0.000 A 
ATOM     12  C   UNL     1       3.735   2.698  20.581  0.00  0.00    +0.000 A 
ATOM     13  C   UNL     1       2.792   2.240  21.503  0.00  0.00    +0.000 A 
ATOM     14  C   UNL     1       1.526   2.810  21.523  0.00  0.00    +0.000 A 
ATOM     15  F   UNL     1       0.613   2.358  22.392  0.00  0.00    +0.000 F 
ATOM     16  C   UNL     1       1.190   3.835  20.647  0.00  0.00    +0.000 A 
ATOM     17  C   UNL     1       2.135   4.297  19.726  0.00  0.00    +0.000 A 
ENDBRANCH   7  11
ENDBRANCH   2   5
BRANCH   1  18
ATOM     18  C   UNL     1       8.234   8.190  17.390  0.00  0.00    +0.000 C 
BRANCH  18  19
ATOM     19  C   UNL     1       8.041   9.520  18.139  0.00  0.00    +0.000 C 
BRANCH  19  22
ATOM     20  O   UNL     1       9.339  10.647  20.437  0.00  0.00    +0.000 OA
ATOM     21  C   UNL     1       9.804  10.863  19.324  0.00  0.00    +0.000 C 
ATOM     22  N   UNL     1       9.235  10.364  18.176  0.00  0.00    +0.000 N 
ATOM     23  H   UNL     1       9.696  10.608  17.301  0.00  0.00    +0.000 HD
BRANCH  21  24
ATOM     24  C   UNL     1      11.030  11.765  19.123  0.00  0.00    +0.000 C 
BRANCH  24  25
ATOM     25  S   UNL     1      10.999  12.674  17.546  0.00  0.00    +0.000 S 
ATOM     26  H   UNL     1      10.645  11.631  16.778  0.00  0.00    +0.000 HD
ENDBRANCH  24  25
ENDBRANCH  21  24
ENDBRANCH  19  22
ENDBRANCH  18  19
ENDBRANCH   1  18
TORSDOF 7
ENDMDL
MODEL 6
REMARK VINA RESULT:      -6.8      1.596      1.925
REMARK  Name = 
REMARK  7 active torsions:
REMARK  status: ('A' for Active; 'I' for Inactive)
REMARK    1  A    between atoms: C_2  and  C_3
REMARK    2  A    between atoms: C_3  and  S_4
REMARK    3  A    between atoms: N_5  and  C_6
REMARK    4  A    between atoms: C_6  and  C_7
REMARK    5  A    between atoms: C_7  and  N_8
REMARK    6  A    between atoms: C_9  and  C_11
REMARK    7  A    between atoms: C_13  and  C_14
REMARK                            x       y       z     vdW  Elec       q    Type
REMARK                         _______ _______ _______ _____ _____    ______ ____
ROOT
ATOM      1  N   UNL     1       5.431   6.160  17.341  0.00  0.00    +0.000 N 
ATOM      2  C   UNL     1       6.696   6.411  16.849  0.00  0.00    +0.000 C 
ATOM      3  O   UNL     1       7.088   5.951  15.774  0.00  0.00    +0.000 OA
ATOM      4  H   UNL     1       5.149   6.698  18.163  0.00  0.00    +0.000 HD
ENDROOT
BRANCH   2   5
ATOM      5  C   UNL     1       7.544   7.282  17.684  0.00  0.00    +0.000 A 
ATOM      6  C   UNL     1       7.779   8.676  17.518  0.00  0.00    +0.000 A 
ATOM      7  C   UNL     1       8.623   9.056  18.544  0.00  0.00    +0.000 A 
ATOM      8  N   UNL     1       8.838   7.903  19.253  0.00  0.00    +0.000 N 
ATOM      9  N   UNL     1       8.213   6.819  18.761  0.00  0.00    +0.000 NA
ATOM     10  H   UNL     1       9.384   7.800  20.103  0.00  0.00    +0.000 HD
BRANCH   7  11
ATOM     11  C   UNL     1       9.175  10.362  18.892  0.00  0.00    +0.000 A 
ATOM     12  C   UNL     1       9.345  10.712  20.243  0.00  0.00    +0.000 A 
ATOM     13  C   UNL     1       9.821  11.975  20.600  0.00  0.00    +0.000 A 
ATOM     14  C   UNL     1      10.129  12.893  19.605  0.00  0.00    +0.000 A 
ATOM     15  F   UNL     1      10.565  14.113  19.944  0.00  0.00    +0.000 F 
ATOM     16  C   UNL     1       9.983  12.567  18.262  0.00  0.00    +0.000 A 
ATOM     17  C   UNL     1       9.511  11.300  17.904  0.00  0.00    +0.000 A 
ENDBRANCH   7  11
ENDBRANCH   2   5
BRANCH   1  18
ATOM     18  C   UNL     1       4.481   5.327  16.631  0.00  0.00    +0.000 C 
BRANCH  18  19
ATOM     19  C   UNL     1       4.404   3.887  17.168  0.00  0.00    +0.000 C 
BRANCH  19  22
ATOM     20  O   UNL     1       3.561   1.514  18.544  0.00  0.00    +0.000 OA
ATOM     21  C   UNL     1       3.452   2.598  19.105  0.00  0.00    +0.000 C 
ATOM     22  N   UNL     1       3.828   3.779  18.508  0.00  0.00    +0.000 N 
ATOM     23  H   UNL     1       3.690   4.625  19.057  0.00  0.00    +0.000 HD
BRANCH  21  24
ATOM     24  C   UNL     1       2.827   2.725  20.501  0.00  0.00    +0.000 C 
BRANCH  24  25
ATOM     25  S   UNL     1       1.216   3.574  20.489  0.00  0.00    +0.000 S 
ATOM     26  H   UNL     1       1.637   4.704  21.079  0.00  0.00    +0.000 HD
ENDBRANCH  24  25
ENDBRANCH  21  24
ENDBRANCH  19  22
ENDBRANCH  18  19
ENDBRANCH   1  18
TORSDOF 7
ENDMDL
MODEL 7
REMARK VINA RESULT:      -6.8      1.610      1.724
REMARK  Name = 
REMARK  7 active torsions:
REMARK  status: ('A' for Active; 'I' for Inactive)
REMARK    1  A    between atoms: C_2  and  C_3
REMARK    2  A    between atoms: C_3  and  S_4
REMARK    3  A    between atoms: N_5  and  C_6
REMARK    4  A    between atoms: C_6  and  C_7
REMARK    5  A    between atoms: C_7  and  N_8
REMARK    6  A    between atoms: C_9  and  C_11
REMARK    7  A    between atoms: C_13  and  C_14
REMARK                            x       y       z     vdW  Elec       q    Type
REMARK                         _______ _______ _______ _____ _____    ______ ____
ROOT
ATOM      1  N   UNL     1       7.085   5.257  16.381  0.00  0.00    +0.000 N 
ATOM      2  C   UNL     1       6.651   6.545  16.621  0.00  0.00    +0.000 C 
ATOM      3  O   UNL     1       5.620   6.997  16.117  0.00  0.00    +0.000 OA
ATOM      4  H   UNL     1       7.865   4.928  16.953  0.00  0.00    +0.000 HD
ENDROOT
BRANCH   2   5
ATOM      5  C   UNL     1       7.489   7.341  17.536  0.00  0.00    +0.000 A 
ATOM      6  C   UNL     1       7.808   8.725  17.433  0.00  0.00    +0.000 A 
ATOM      7  C   UNL     1       8.604   9.026  18.521  0.00  0.00    +0.000 A 
ATOM      8  N   UNL     1       8.713   7.841  19.202  0.00  0.00    +0.000 N 
ATOM      9  N   UNL     1       8.063   6.809  18.636  0.00  0.00    +0.000 NA
ATOM     10  H   UNL     1       9.197   7.681  20.081  0.00  0.00    +0.000 HD
BRANCH   7  11
ATOM     11  C   UNL     1       9.202  10.288  18.948  0.00  0.00    +0.000 A 
ATOM     12  C   UNL     1       9.628  11.221  17.987  0.00  0.00    +0.000 A 
ATOM     13  C   UNL     1      10.251  12.409  18.372  0.00  0.00    +0.000 A 
ATOM     14  C   UNL     1      10.449  12.668  19.722  0.00  0.00    +0.000 A 
ATOM     15  F   UNL     1      11.066  13.797  20.093  0.00  0.00    +0.000 F 
ATOM     16  C   UNL     1      10.025  11.769  20.692  0.00  0.00    +0.000 A 
ATOM     17  C   UNL     1       9.397  10.580  20.307  0.00  0.00    +0.000 A 
ENDBRANCH   7  11
ENDBRANCH   2   5
BRANCH   1  18
ATOM     18  C   UNL     1       6.364   4.352  15.509  0.00  0.00    +0.000 C 
BRANCH  18  19
ATOM     19  C   UNL     1       5.260   3.555  16.227  0.00  0.00    +0.000 C 
BRANCH  19  22
ATOM     20  O   UNL     1       2.520   3.249  17.022  0.00  0.00    +0.000 OA
ATOM     21  C   UNL     1       3.203   4.114  17.557  0.00  0.00    +0.000 C 
ATOM     22  N   UNL     1       4.521   4.325  17.226  0.00  0.00    +0.000 N 
ATOM     23  H   UNL     1       4.997   5.074  17.726  0.00  0.00    +0.000 HD
BRANCH  21  24
ATOM     24  C   UNL     1       2.615   5.073  18.603  0.00  0.00    +0.000 C 
BRANCH  24  25
ATOM     25  S   UNL     1       1.542   4.240  19.814  0.00  0.00    +0.000 S 
ATOM     26  H   UNL     1       2.452   3.346  20.232  0.00  0.00    +0.000 HD
ENDBRANCH  24  25
ENDBRANCH  21  24
ENDBRANCH  19  22
ENDBRANCH  18  19
ENDBRANCH   1  18
TORSDOF 7
ENDMDL
MODEL 8
REMARK VINA RESULT:      -6.8      1.714      1.777
REMARK  Name = 
REMARK  7 active torsions:
REMARK  status: ('A' for Active; 'I' for Inactive)
REMARK    1  A    between atoms: C_2  and  C_3
REMARK    2  A    between atoms: C_3  and  S_4
REMARK    3  A    between atoms: N_5  and  C_6
REMARK    4  A    between atoms: C_6  and  C_7
REMARK    5  A    between atoms: C_7  and  N_8
REMARK    6  A    between atoms: C_9  and  C_11
REMARK    7  A    between atoms: C_13  and  C_14
REMARK                            x       y       z     vdW  Elec       q    Type
REMARK                         _______ _______ _______ _____ _____    ______ ____
ROOT
ATOM      1  N   UNL     1       5.541   6.107  17.610  0.00  0.00    +0.000 N 
ATOM      2  C   UNL     1       6.741   6.425  17.005  0.00  0.00    +0.000 C 
ATOM      3  O   UNL     1       7.097   5.912  15.941  0.00  0.00    +0.000 OA
ATOM      4  H   UNL     1       5.269   6.685  18.407  0.00  0.00    +0.000 HD
ENDROOT
BRANCH   2   5
ATOM      5  C   UNL     1       7.561   7.430  17.703  0.00  0.00    +0.000 A 
ATOM      6  C   UNL     1       7.693   8.812  17.384  0.00  0.00    +0.000 A 
ATOM      7  C   UNL     1       8.551   9.351  18.322  0.00  0.00    +0.000 A 
ATOM      8  N   UNL     1       8.875   8.295  19.135  0.00  0.00    +0.000 N 
ATOM      9  N   UNL     1       8.305   7.127  18.788  0.00  0.00    +0.000 NA
ATOM     10  H   UNL     1       9.462   8.317  19.964  0.00  0.00    +0.000 HD
BRANCH   7  11
ATOM     11  C   UNL     1       9.027  10.719  18.508  0.00  0.00    +0.000 A 
ATOM     12  C   UNL     1       8.466  11.764  17.753  0.00  0.00    +0.000 A 
ATOM     13  C   UNL     1       8.943  13.070  17.875  0.00  0.00    +0.000 A 
ATOM     14  C   UNL     1       9.984  13.335  18.755  0.00  0.00    +0.000 A 
ATOM     15  F   UNL     1      10.459  14.583  18.859  0.00  0.00    +0.000 F 
ATOM     16  C   UNL     1      10.547  12.323  19.522  0.00  0.00    +0.000 A 
ATOM     17  C   UNL     1      10.066  11.015  19.403  0.00  0.00    +0.000 A 
ENDBRANCH   7  11
ENDBRANCH   2   5
BRANCH   1  18
ATOM     18  C   UNL     1       4.624   5.140  17.041  0.00  0.00    +0.000 C 
BRANCH  18  19
ATOM     19  C   UNL     1       4.670   3.767  17.733  0.00  0.00    +0.000 C 
BRANCH  19  22
ATOM     20  O   UNL     1       3.339   1.334  18.468  0.00  0.00    +0.000 OA
ATOM     21  C   UNL     1       3.050   2.371  19.053  0.00  0.00    +0.000 C 
ATOM     22  N   UNL     1       3.639   3.577  18.753  0.00  0.00    +0.000 N 
ATOM     23  H   UNL     1       3.323   4.379  19.293  0.00  0.00    +0.000 HD
BRANCH  21  24
ATOM     24  C   UNL     1       1.956   2.412  20.130  0.00  0.00    +0.000 C 
BRANCH  24  25
ATOM     25  S   UNL     1       1.251   4.073  20.369  0.00  0.00    +0.000 S 
ATOM     26  H   UNL     1       1.475   4.514  19.121  0.00  0.00    +0.000 HD
ENDBRANCH  24  25
ENDBRANCH  21  24
ENDBRANCH  19  22
ENDBRANCH  18  19
ENDBRANCH   1  18
TORSDOF 7
ENDMDL
MODEL 9
REMARK VINA RESULT:      -6.8      6.366      8.457
REMARK  Name = 
REMARK  7 active torsions:
REMARK  status: ('A' for Active; 'I' for Inactive)
REMARK    1  A    between atoms: C_2  and  C_3
REMARK    2  A    between atoms: C_3  and  S_4
REMARK    3  A    between atoms: N_5  and  C_6
REMARK    4  A    between atoms: C_6  and  C_7
REMARK    5  A    between atoms: C_7  and  N_8
REMARK    6  A    between atoms: C_9  and  C_11
REMARK    7  A    between atoms: C_13  and  C_14
REMARK                            x       y       z     vdW  Elec       q    Type
REMARK                         _______ _______ _______ _____ _____    ______ ____
ROOT
ATOM      1  N   UNL     1       6.300   4.867  14.439  0.00  0.00    +0.000 N 
ATOM      2  C   UNL     1       6.507   5.513  15.642  0.00  0.00    +0.000 C 
ATOM      3  O   UNL     1       7.572   6.073  15.914  0.00  0.00    +0.000 OA
ATOM      4  H   UNL     1       5.345   4.561  14.248  0.00  0.00    +0.000 HD
ENDROOT
BRANCH   2   5
ATOM      5  C   UNL     1       5.366   5.507  16.574  0.00  0.00    +0.000 A 
ATOM      6  C   UNL     1       4.921   4.429  17.391  0.00  0.00    +0.000 A 
ATOM      7  C   UNL     1       3.834   4.897  18.102  0.00  0.00    +0.000 A 
ATOM      8  N   UNL     1       3.690   6.197  17.689  0.00  0.00    +0.000 N 
ATOM      9  N   UNL     1       4.587   6.593  16.768  0.00  0.00    +0.000 NA
ATOM     10  H   UNL     1       3.012   6.875  18.023  0.00  0.00    +0.000 HD
BRANCH   7  11
ATOM     11  C   UNL     1       2.996   4.247  19.105  0.00  0.00    +0.000 A 
ATOM     12  C   UNL     1       2.800   4.859  20.356  0.00  0.00    +0.000 A 
ATOM     13  C   UNL     1       2.047   4.230  21.349  0.00  0.00    +0.000 A 
ATOM     14  C   UNL     1       1.488   2.985  21.094  0.00  0.00    +0.000 A 
ATOM     15  F   UNL     1       0.783   2.369  22.052  0.00  0.00    +0.000 F 
ATOM     16  C   UNL     1       1.655   2.365  19.862  0.00  0.00    +0.000 A 
ATOM     17  C   UNL     1       2.406   2.997  18.865  0.00  0.00    +0.000 A 
ENDBRANCH   7  11
ENDBRANCH   2   5
BRANCH   1  18
ATOM     18  C   UNL     1       7.327   4.794  13.419  0.00  0.00    +0.000 C 
BRANCH  18  19
ATOM     19  C   UNL     1       6.979   3.837  12.265  0.00  0.00    +0.000 C 
BRANCH  19  22
ATOM     20  O   UNL     1       5.440   1.622  11.284  0.00  0.00    +0.000 OA
ATOM     21  C   UNL     1       4.887   2.701  11.458  0.00  0.00    +0.000 C 
ATOM     22  N   UNL     1       5.558   3.810  11.919  0.00  0.00    +0.000 N 
ATOM     23  H   UNL     1       5.007   4.659  12.023  0.00  0.00    +0.000 HD
BRANCH  21  24
ATOM     24  C   UNL     1       3.405   2.913  11.114  0.00  0.00    +0.000 C 
BRANCH  24  25
ATOM     25  S   UNL     1       3.152   4.047   9.712  0.00  0.00    +0.000 S 
ATOM     26  H   UNL     1       4.440   4.123   9.346  0.00  0.00    +0.000 HD
ENDBRANCH  24  25
ENDBRANCH  21  24
ENDBRANCH  19  22
ENDBRANCH  18  19
ENDBRANCH   1  18
TORSDOF 7
ENDMDL
