MODEL 1
REMARK VINA RESULT:      -7.5      0.000      0.000
REMARK  Name = 
REMARK  11 active torsions:
REMARK  status: ('A' for Active; 'I' for Inactive)
REMARK    1  A    between atoms: C_1  and  O_2
REMARK    2  A    between atoms: O_2  and  C_3
REMARK    3  A    between atoms: C_7  and  C_8
REMARK    4  A    between atoms: C_8  and  N_9
REMARK    5  A    between atoms: N_14  and  C_15
REMARK    6  A    between atoms: N_18  and  C_19
REMARK    7  A    between atoms: C_19  and  C_20
REMARK    8  A    between atoms: C_20  and  C_21
REMARK    9  A    between atoms: C_20  and  C_22
REMARK   10  A    between atoms: C_25  and  O_26
REMARK   11  A    between atoms: O_26  and  C_27
REMARK                            x       y       z     vdW  Elec       q    Type
REMARK                         _______ _______ _______ _____ _____    ______ ____
ROOT
ATOM      1  N   UNL     1       1.818   8.592  18.887  0.00  0.00    +0.000 N 
ATOM      2  C   UNL     1       2.677   8.371  17.837  0.00  0.00    +0.000 A 
ATOM      3  C   UNL     1       3.209   7.112  17.999  0.00  0.00    +0.000 A 
ATOM      4  C   UNL     1       4.286   6.480  17.297  0.00  0.00    +0.000 A 
ATOM      5  O   UNL     1       4.831   7.003  16.329  0.00  0.00    +0.000 OA
ATOM      6  N   UNL     1       4.677   5.266  17.869  0.00  0.00    +0.000 N 
ATOM      7  C   UNL     1       5.899   4.663  17.384  0.00  0.00    +0.000 C 
ATOM      8  C   UNL     1       4.040   4.602  18.939  0.00  0.00    +0.000 A 
ATOM      9  O   UNL     1       4.456   3.505  19.328  0.00  0.00    +0.000 OA
ATOM     10  N   UNL     1       2.967   5.257  19.575  0.00  0.00    +0.000 N 
ATOM     11  C   UNL     1       2.588   6.515  19.112  0.00  0.00    +0.000 A 
ATOM     12  C   UNL     1       1.688   7.427  19.617  0.00  0.00    +0.000 A 
ENDROOT
BRANCH   1  13
ATOM     13  C   UNL     1       1.387   9.918  19.336  0.00  0.00    +0.000 C 
BRANCH  13  18
ATOM     14  C   UNL     1      -2.073  11.519  19.107  0.00  0.00    +0.000 A 
ATOM     15  C   UNL     1      -2.545  10.932  17.921  0.00  0.00    +0.000 A 
ATOM     16  C   UNL     1      -1.771  10.002  17.231  0.00  0.00    +0.000 A 
ATOM     17  C   UNL     1      -0.516   9.663  17.714  0.00  0.00    +0.000 A 
ATOM     18  C   UNL     1       0.007  10.291  18.861  0.00  0.00    +0.000 A 
ATOM     19  C   UNL     1      -0.760  11.268  19.540  0.00  0.00    +0.000 A 
BRANCH  14  21
ATOM     20  C   UNL     1      -4.276  12.257  19.444  0.00  0.00    +0.000 C 
ATOM     21  O   UNL     1      -2.901  12.333  19.839  0.00  0.00    +0.000 OA
ENDBRANCH  14  21
BRANCH  19  22
ATOM     22  O   UNL     1      -0.102  11.850  20.593  0.00  0.00    +0.000 OA
ATOM     23  C   UNL     1      -0.443  11.485  21.921  0.00  0.00    +0.000 C 
ENDBRANCH  19  22
ENDBRANCH  13  18
ENDBRANCH   1  13
BRANCH  10  24
ATOM     24  C   UNL     1       2.508   4.717  20.860  0.00  0.00    +0.000 C 
BRANCH  24  25
ATOM     25  C   UNL     1       1.265   3.807  20.830  0.00  0.00    +0.000 C 
ATOM     26  C   UNL     1       0.896   3.352  19.420  0.00  0.00    +0.000 C 
ATOM     27  C   UNL     1       1.534   2.576  21.708  0.00  0.00    +0.000 C 
ENDBRANCH  24  25
ENDBRANCH  10  24
TORSDOF 6
ENDMDL
MODEL 2
REMARK VINA RESULT:      -7.2      1.303      2.372
REMARK  Name = 
REMARK  11 active torsions:
REMARK  status: ('A' for Active; 'I' for Inactive)
REMARK    1  A    between atoms: C_1  and  O_2
REMARK    2  A    between atoms: O_2  and  C_3
REMARK    3  A    between atoms: C_7  and  C_8
REMARK    4  A    between atoms: C_8  and  N_9
REMARK    5  A    between atoms: N_14  and  C_15
REMARK    6  A    between atoms: N_18  and  C_19
REMARK    7  A    between atoms: C_19  and  C_20
REMARK    8  A    between atoms: C_20  and  C_21
REMARK    9  A    between atoms: C_20  and  C_22
REMARK   10  A    between atoms: C_25  and  O_26
REMARK   11  A    between atoms: O_26  and  C_27
REMARK                            x       y       z     vdW  Elec       q    Type
REMARK                         _______ _______ _______ _____ _____    ______ ____
ROOT
ATOM      1  N   UNL     1       2.244   8.043  18.044  0.00  0.00    +0.000 N 
ATOM      2  C   UNL     1       3.385   7.950  17.284  0.00  0.00    +0.000 A 
ATOM      3  C   UNL     1       4.038   6.800  17.663  0.00  0.00    +0.000 A 
ATOM      4  C   UNL     1       5.353   6.343  17.322  0.00  0.00    +0.000 A 
ATOM      5  O   UNL     1       6.059   6.933  16.510  0.00  0.00    +0.000 OA
ATOM      6  N   UNL     1       5.751   5.220  18.052  0.00  0.00    +0.000 N 
ATOM      7  C   UNL     1       7.138   4.819  17.958  0.00  0.00    +0.000 C 
ATOM      8  C   UNL     1       4.950   4.477  18.946  0.00  0.00    +0.000 A 
ATOM      9  O   UNL     1       5.405   3.470  19.500  0.00  0.00    +0.000 OA
ATOM     10  N   UNL     1       3.654   4.956  19.223  0.00  0.00    +0.000 N 
ATOM     11  C   UNL     1       3.231   6.126  18.598  0.00  0.00    +0.000 A 
ATOM     12  C   UNL     1       2.096   6.884  18.780  0.00  0.00    +0.000 A 
ENDROOT
BRANCH   1  13
ATOM     13  C   UNL     1       1.505   9.287  18.275  0.00  0.00    +0.000 C 
BRANCH  13  18
ATOM     14  C   UNL     1      -0.428  10.486  21.343  0.00  0.00    +0.000 A 
ATOM     15  C   UNL     1       0.104   9.634  22.326  0.00  0.00    +0.000 A 
ATOM     16  C   UNL     1       1.101   8.717  22.006  0.00  0.00    +0.000 A 
ATOM     17  C   UNL     1       1.564   8.635  20.701  0.00  0.00    +0.000 A 
ATOM     18  C   UNL     1       0.996   9.428  19.686  0.00  0.00    +0.000 A 
ATOM     19  C   UNL     1      -0.047  10.331  20.000  0.00  0.00    +0.000 A 
BRANCH  14  21
ATOM     20  C   UNL     1      -0.684  12.651  22.215  0.00  0.00    +0.000 C 
ATOM     21  O   UNL     1      -1.315  11.470  21.703  0.00  0.00    +0.000 OA
ENDBRANCH  14  21
BRANCH  19  22
ATOM     22  O   UNL     1      -0.557  10.984  18.906  0.00  0.00    +0.000 OA
ATOM     23  C   UNL     1      -1.838  10.628  18.412  0.00  0.00    +0.000 C 
ENDBRANCH  19  22
ENDBRANCH  13  18
ENDBRANCH   1  13
BRANCH  10  24
ATOM     24  C   UNL     1       2.944   4.368  20.364  0.00  0.00    +0.000 C 
BRANCH  24  25
ATOM     25  C   UNL     1       1.622   3.637  20.062  0.00  0.00    +0.000 C 
ATOM     26  C   UNL     1       1.695   2.772  18.805  0.00  0.00    +0.000 C 
ATOM     27  C   UNL     1       1.258   2.756  21.266  0.00  0.00    +0.000 C 
ENDBRANCH  24  25
ENDBRANCH  10  24
TORSDOF 6
ENDMDL
MODEL 3
REMARK VINA RESULT:      -7.2      1.964      8.214
REMARK  Name = 
REMARK  11 active torsions:
REMARK  status: ('A' for Active; 'I' for Inactive)
REMARK    1  A    between atoms: C_1  and  O_2
REMARK    2  A    between atoms: O_2  and  C_3
REMARK    3  A    between atoms: C_7  and  C_8
REMARK    4  A    between atoms: C_8  and  N_9
REMARK    5  A    between atoms: N_14  and  C_15
REMARK    6  A    between atoms: N_18  and  C_19
REMARK    7  A    between atoms: C_19  and  C_20
REMARK    8  A    between atoms: C_20  and  C_21
REMARK    9  A    between atoms: C_20  and  C_22
REMARK   10  A    between atoms: C_25  and  O_26
REMARK   11  A    between atoms: O_26  and  C_27
REMARK                            x       y       z     vdW  Elec       q    Type
REMARK                         _______ _______ _______ _____ _____    ______ ____
ROOT
ATOM      1  N   UNL     1       1.457   8.064  20.018  0.00  0.00    +0.000 N 
ATOM      2  C   UNL     1       1.177   8.398  21.321  0.00  0.00    +0.000 A 
ATOM      3  C   UNL     1       0.289   9.449  21.295  0.00  0.00    +0.000 A 
ATOM      4  C   UNL     1      -0.165  10.286  22.365  0.00  0.00    +0.000 A 
ATOM      5  O   UNL     1       0.140  10.074  23.535  0.00  0.00    +0.000 OA
ATOM      6  N   UNL     1      -0.918  11.379  21.927  0.00  0.00    +0.000 N 
ATOM      7  C   UNL     1      -1.227  12.408  22.895  0.00  0.00    +0.000 C 
ATOM      8  C   UNL     1      -1.343  11.625  20.603  0.00  0.00    +0.000 A 
ATOM      9  O   UNL     1      -2.047  12.608  20.348  0.00  0.00    +0.000 OA
ATOM     10  N   UNL     1      -0.889  10.753  19.593  0.00  0.00    +0.000 N 
ATOM     11  C   UNL     1      -0.056   9.696  19.953  0.00  0.00    +0.000 A 
ATOM     12  C   UNL     1       0.635   8.791  19.179  0.00  0.00    +0.000 A 
ENDROOT
BRANCH   1  13
ATOM     13  C   UNL     1       2.645   7.319  19.594  0.00  0.00    +0.000 C 
BRANCH  13  18
ATOM     14  C   UNL     1       3.319   3.561  19.482  0.00  0.00    +0.000 A 
ATOM     15  C   UNL     1       2.247   3.089  20.257  0.00  0.00    +0.000 A 
ATOM     16  C   UNL     1       1.300   3.970  20.771  0.00  0.00    +0.000 A 
ATOM     17  C   UNL     1       1.424   5.330  20.525  0.00  0.00    +0.000 A 
ATOM     18  C   UNL     1       2.529   5.833  19.812  0.00  0.00    +0.000 A 
ATOM     19  C   UNL     1       3.516   4.944  19.324  0.00  0.00    +0.000 A 
BRANCH  14  21
ATOM     20  C   UNL     1       3.491   1.586  18.225  0.00  0.00    +0.000 C 
ATOM     21  O   UNL     1       4.168   2.668  18.877  0.00  0.00    +0.000 OA
ENDBRANCH  14  21
BRANCH  19  22
ATOM     22  O   UNL     1       4.571   5.574  18.714  0.00  0.00    +0.000 OA
ATOM     23  C   UNL     1       5.880   5.419  19.241  0.00  0.00    +0.000 C 
ENDBRANCH  19  22
ENDBRANCH  13  18
ENDBRANCH   1  13
BRANCH  10  24
ATOM     24  C   UNL     1      -1.074  11.175  18.200  0.00  0.00    +0.000 C 
BRANCH  24  25
ATOM     25  C   UNL     1      -1.945  10.271  17.308  0.00  0.00    +0.000 C 
ATOM     26  C   UNL     1      -3.132   9.665  18.055  0.00  0.00    +0.000 C 
ATOM     27  C   UNL     1      -2.461  11.099  16.121  0.00  0.00    +0.000 C 
ENDBRANCH  24  25
ENDBRANCH  10  24
TORSDOF 6
ENDMDL
MODEL 4
REMARK VINA RESULT:      -7.1      1.336      1.642
REMARK  Name = 
REMARK  11 active torsions:
REMARK  status: ('A' for Active; 'I' for Inactive)
REMARK    1  A    between atoms: C_1  and  O_2
REMARK    2  A    between atoms: O_2  and  C_3
REMARK    3  A    between atoms: C_7  and  C_8
REMARK    4  A    between atoms: C_8  and  N_9
REMARK    5  A    between atoms: N_14  and  C_15
REMARK    6  A    between atoms: N_18  and  C_19
REMARK    7  A    between atoms: C_19  and  C_20
REMARK    8  A    between atoms: C_20  and  C_21
REMARK    9  A    between atoms: C_20  and  C_22
REMARK   10  A    between atoms: C_25  and  O_26
REMARK   11  A    between atoms: O_26  and  C_27
REMARK                            x       y       z     vdW  Elec       q    Type
REMARK                         _______ _______ _______ _____ _____    ______ ____
ROOT
ATOM      1  N   UNL     1       1.884   8.384  19.320  0.00  0.00    +0.000 N 
ATOM      2  C   UNL     1       2.620   8.321  18.162  0.00  0.00    +0.000 A 
ATOM      3  C   UNL     1       3.160   7.058  18.086  0.00  0.00    +0.000 A 
ATOM      4  C   UNL     1       4.150   6.542  17.188  0.00  0.00    +0.000 A 
ATOM      5  O   UNL     1       4.589   7.201  16.250  0.00  0.00    +0.000 OA
ATOM      6  N   UNL     1       4.595   5.263  17.537  0.00  0.00    +0.000 N 
ATOM      7  C   UNL     1       5.753   4.746  16.841  0.00  0.00    +0.000 C 
ATOM      8  C   UNL     1       4.075   4.449  18.566  0.00  0.00    +0.000 A 
ATOM      9  O   UNL     1       4.525   3.312  18.748  0.00  0.00    +0.000 OA
ATOM     10  N   UNL     1       3.082   4.997  19.402  0.00  0.00    +0.000 N 
ATOM     11  C   UNL     1       2.662   6.304  19.165  0.00  0.00    +0.000 A 
ATOM     12  C   UNL     1       1.827   7.127  19.888  0.00  0.00    +0.000 A 
ENDROOT
BRANCH   1  13
ATOM     13  C   UNL     1       1.512   9.629  19.995  0.00  0.00    +0.000 C 
BRANCH  13  18
ATOM     14  C   UNL     1      -0.511  12.438  18.380  0.00  0.00    +0.000 A 
ATOM     15  C   UNL     1      -1.658  11.729  17.986  0.00  0.00    +0.000 A 
ATOM     16  C   UNL     1      -1.790  10.374  18.276  0.00  0.00    +0.000 A 
ATOM     17  C   UNL     1      -0.772   9.715  18.950  0.00  0.00    +0.000 A 
ATOM     18  C   UNL     1       0.416  10.388  19.292  0.00  0.00    +0.000 A 
ATOM     19  C   UNL     1       0.571  11.755  18.961  0.00  0.00    +0.000 A 
BRANCH  14  21
ATOM     20  C   UNL     1      -0.670  14.544  19.406  0.00  0.00    +0.000 C 
ATOM     21  O   UNL     1      -0.456  13.798  18.201  0.00  0.00    +0.000 OA
ENDBRANCH  14  21
BRANCH  19  22
ATOM     22  O   UNL     1       1.804  12.264  19.285  0.00  0.00    +0.000 OA
ATOM     23  C   UNL     1       2.675  12.699  18.253  0.00  0.00    +0.000 C 
ENDBRANCH  19  22
ENDBRANCH  13  18
ENDBRANCH   1  13
BRANCH  10  24
ATOM     24  C   UNL     1       2.764   4.277  20.639  0.00  0.00    +0.000 C 
BRANCH  24  25
ATOM     25  C   UNL     1       1.373   3.619  20.727  0.00  0.00    +0.000 C 
ATOM     26  C   UNL     1       0.902   3.048  19.391  0.00  0.00    +0.000 C 
ATOM     27  C   UNL     1       1.424   2.494  21.771  0.00  0.00    +0.000 C 
ENDBRANCH  24  25
ENDBRANCH  10  24
TORSDOF 6
ENDMDL
MODEL 5
REMARK VINA RESULT:      -7.1      2.078      8.028
REMARK  Name = 
REMARK  11 active torsions:
REMARK  status: ('A' for Active; 'I' for Inactive)
REMARK    1  A    between atoms: C_1  and  O_2
REMARK    2  A    between atoms: O_2  and  C_3
REMARK    3  A    between atoms: C_7  and  C_8
REMARK    4  A    between atoms: C_8  and  N_9
REMARK    5  A    between atoms: N_14  and  C_15
REMARK    6  A    between atoms: N_18  and  C_19
REMARK    7  A    between atoms: C_19  and  C_20
REMARK    8  A    between atoms: C_20  and  C_21
REMARK    9  A    between atoms: C_20  and  C_22
REMARK   10  A    between atoms: C_25  and  O_26
REMARK   11  A    between atoms: O_26  and  C_27
REMARK                            x       y       z     vdW  Elec       q    Type
REMARK                         _______ _______ _______ _____ _____    ______ ____
ROOT
ATOM      1  N   UNL     1       1.866   8.601  18.530  0.00  0.00    +0.000 N 
ATOM      2  C   UNL     1       1.767   8.625  19.901  0.00  0.00    +0.000 A 
ATOM      3  C   UNL     1       0.745   9.488  20.224  0.00  0.00    +0.000 A 
ATOM      4  C   UNL     1       0.364  10.011  21.502  0.00  0.00    +0.000 A 
ATOM      5  O   UNL     1       0.892   9.638  22.545  0.00  0.00    +0.000 OA
ATOM      6  N   UNL     1      -0.604  11.017  21.417  0.00  0.00    +0.000 N 
ATOM      7  C   UNL     1      -0.889  11.772  22.618  0.00  0.00    +0.000 C 
ATOM      8  C   UNL     1      -1.279  11.431  20.249  0.00  0.00    +0.000 A 
ATOM      9  O   UNL     1      -2.152  12.304  20.311  0.00  0.00    +0.000 OA
ATOM     10  N   UNL     1      -0.882  10.862  19.022  0.00  0.00    +0.000 N 
ATOM     11  C   UNL     1       0.144   9.921  19.028  0.00  0.00    +0.000 A 
ATOM     12  C   UNL     1       0.816   9.316  17.989  0.00  0.00    +0.000 A 
ENDROOT
BRANCH   1  13
ATOM     13  C   UNL     1       3.059   8.173  17.797  0.00  0.00    +0.000 C 
BRANCH  13  18
ATOM     14  C   UNL     1       4.408   4.684  17.020  0.00  0.00    +0.000 A 
ATOM     15  C   UNL     1       3.350   3.893  17.497  0.00  0.00    +0.000 A 
ATOM     16  C   UNL     1       2.203   4.481  18.023  0.00  0.00    +0.000 A 
ATOM     17  C   UNL     1       2.111   5.864  18.088  0.00  0.00    +0.000 A 
ATOM     18  C   UNL     1       3.187   6.676  17.681  0.00  0.00    +0.000 A 
ATOM     19  C   UNL     1       4.371   6.079  17.186  0.00  0.00    +0.000 A 
BRANCH  14  21
ATOM     20  C   UNL     1       5.468   4.271  14.966  0.00  0.00    +0.000 C 
ATOM     21  O   UNL     1       5.472   4.090  16.388  0.00  0.00    +0.000 OA
ENDBRANCH  14  21
BRANCH  19  22
ATOM     22  O   UNL     1       5.363   6.982  16.898  0.00  0.00    +0.000 OA
ATOM     23  C   UNL     1       6.618   6.876  17.550  0.00  0.00    +0.000 C 
ENDBRANCH  19  22
ENDBRANCH  13  18
ENDBRANCH   1  13
BRANCH  10  24
ATOM     24  C   UNL     1      -1.362  11.502  17.792  0.00  0.00    +0.000 C 
BRANCH  24  25
ATOM     25  C   UNL     1      -2.707  11.008  17.227  0.00  0.00    +0.000 C 
ATOM     26  C   UNL     1      -2.714  10.916  15.703  0.00  0.00    +0.000 C 
ATOM     27  C   UNL     1      -3.014   9.625  17.821  0.00  0.00    +0.000 C 
ENDBRANCH  24  25
ENDBRANCH  10  24
TORSDOF 6
ENDMDL
MODEL 6
REMARK VINA RESULT:      -7.0      2.029      2.671
REMARK  Name = 
REMARK  11 active torsions:
REMARK  status: ('A' for Active; 'I' for Inactive)
REMARK    1  A    between atoms: C_1  and  O_2
REMARK    2  A    between atoms: O_2  and  C_3
REMARK    3  A    between atoms: C_7  and  C_8
REMARK    4  A    between atoms: C_8  and  N_9
REMARK    5  A    between atoms: N_14  and  C_15
REMARK    6  A    between atoms: N_18  and  C_19
REMARK    7  A    between atoms: C_19  and  C_20
REMARK    8  A    between atoms: C_20  and  C_21
REMARK    9  A    between atoms: C_20  and  C_22
REMARK   10  A    between atoms: C_25  and  O_26
REMARK   11  A    between atoms: O_26  and  C_27
REMARK                            x       y       z     vdW  Elec       q    Type
REMARK                         _______ _______ _______ _____ _____    ______ ____
ROOT
ATOM      1  N   UNL     1       2.429   7.914  17.628  0.00  0.00    +0.000 N 
ATOM      2  C   UNL     1       3.746   8.077  17.271  0.00  0.00    +0.000 A 
ATOM      3  C   UNL     1       4.390   6.887  17.522  0.00  0.00    +0.000 A 
ATOM      4  C   UNL     1       5.791   6.588  17.508  0.00  0.00    +0.000 A 
ATOM      5  O   UNL     1       6.630   7.407  17.144  0.00  0.00    +0.000 OA
ATOM      6  N   UNL     1       6.087   5.316  18.006  0.00  0.00    +0.000 N 
ATOM      7  C   UNL     1       7.477   5.002  18.254  0.00  0.00    +0.000 C 
ATOM      8  C   UNL     1       5.152   4.324  18.375  0.00  0.00    +0.000 A 
ATOM      9  O   UNL     1       5.540   3.216  18.761  0.00  0.00    +0.000 OA
ATOM     10  N   UNL     1       3.785   4.664  18.343  0.00  0.00    +0.000 N 
ATOM     11  C   UNL     1       3.429   5.950  17.944  0.00  0.00    +0.000 A 
ATOM     12  C   UNL     1       2.209   6.589  17.950  0.00  0.00    +0.000 A 
ENDROOT
BRANCH   1  13
ATOM     13  C   UNL     1       1.513   9.016  17.930  0.00  0.00    +0.000 C 
BRANCH  13  18
ATOM     14  C   UNL     1       0.622  10.578  21.300  0.00  0.00    +0.000 A 
ATOM     15  C   UNL     1       0.842   9.482  22.152  0.00  0.00    +0.000 A 
ATOM     16  C   UNL     1       1.310   8.272  21.647  0.00  0.00    +0.000 A 
ATOM     17  C   UNL     1       1.550   8.144  20.286  0.00  0.00    +0.000 A 
ATOM     18  C   UNL     1       1.269   9.205  19.404  0.00  0.00    +0.000 A 
ATOM     19  C   UNL     1       0.752  10.422  19.909  0.00  0.00    +0.000 A 
BRANCH  14  21
ATOM     20  C   UNL     1      -0.897  11.762  22.643  0.00  0.00    +0.000 C 
ATOM     21  O   UNL     1       0.285  11.797  21.832  0.00  0.00    +0.000 OA
ENDBRANCH  14  21
BRANCH  19  22
ATOM     22  O   UNL     1       0.455  11.341  18.934  0.00  0.00    +0.000 OA
ATOM     23  C   UNL     1       1.311  12.455  18.737  0.00  0.00    +0.000 C 
ENDBRANCH  19  22
ENDBRANCH  13  18
ENDBRANCH   1  13
BRANCH  10  24
ATOM     24  C   UNL     1       2.845   3.753  19.006  0.00  0.00    +0.000 C 
BRANCH  24  25
ATOM     25  C   UNL     1       2.509   4.047  20.480  0.00  0.00    +0.000 C 
ATOM     26  C   UNL     1       1.065   4.501  20.681  0.00  0.00    +0.000 C 
ATOM     27  C   UNL     1       2.763   2.778  21.307  0.00  0.00    +0.000 C 
ENDBRANCH  24  25
ENDBRANCH  10  24
TORSDOF 6
ENDMDL
MODEL 7
REMARK VINA RESULT:      -6.9      2.256      4.044
REMARK  Name = 
REMARK  11 active torsions:
REMARK  status: ('A' for Active; 'I' for Inactive)
REMARK    1  A    between atoms: C_1  and  O_2
REMARK    2  A    between atoms: O_2  and  C_3
REMARK    3  A    between atoms: C_7  and  C_8
REMARK    4  A    between atoms: C_8  and  N_9
REMARK    5  A    between atoms: N_14  and  C_15
REMARK    6  A    between atoms: N_18  and  C_19
REMARK    7  A    between atoms: C_19  and  C_20
REMARK    8  A    between atoms: C_20  and  C_21
REMARK    9  A    between atoms: C_20  and  C_22
REMARK   10  A    between atoms: C_25  and  O_26
REMARK   11  A    between atoms: O_26  and  C_27
REMARK                            x       y       z     vdW  Elec       q    Type
REMARK                         _______ _______ _______ _____ _____    ______ ____
ROOT
ATOM      1  N   UNL     1       2.016   8.417  18.631  0.00  0.00    +0.000 N 
ATOM      2  C   UNL     1       1.864   7.570  19.703  0.00  0.00    +0.000 A 
ATOM      3  C   UNL     1       2.645   6.461  19.464  0.00  0.00    +0.000 A 
ATOM      4  C   UNL     1       2.695   5.214  20.167  0.00  0.00    +0.000 A 
ATOM      5  O   UNL     1       2.063   5.020  21.201  0.00  0.00    +0.000 OA
ATOM      6  N   UNL     1       3.471   4.249  19.517  0.00  0.00    +0.000 N 
ATOM      7  C   UNL     1       3.400   2.892  20.013  0.00  0.00    +0.000 C 
ATOM      8  C   UNL     1       4.260   4.448  18.364  0.00  0.00    +0.000 A 
ATOM      9  O   UNL     1       4.941   3.522  17.908  0.00  0.00    +0.000 OA
ATOM     10  N   UNL     1       4.194   5.705  17.730  0.00  0.00    +0.000 N 
ATOM     11  C   UNL     1       3.365   6.681  18.275  0.00  0.00    +0.000 A 
ATOM     12  C   UNL     1       3.004   7.923  17.802  0.00  0.00    +0.000 A 
ENDROOT
BRANCH   1  13
ATOM     13  C   UNL     1       1.067   9.473  18.273  0.00  0.00    +0.000 C 
BRANCH  13  18
ATOM     14  C   UNL     1       1.265  12.559  20.515  0.00  0.00    +0.000 A 
ATOM     15  C   UNL     1       2.170  13.345  19.783  0.00  0.00    +0.000 A 
ATOM     16  C   UNL     1       2.674  12.900  18.564  0.00  0.00    +0.000 A 
ATOM     17  C   UNL     1       2.287  11.660  18.074  0.00  0.00    +0.000 A 
ATOM     18  C   UNL     1       1.438  10.825  18.825  0.00  0.00    +0.000 A 
ATOM     19  C   UNL     1       0.958  11.257  20.084  0.00  0.00    +0.000 A 
BRANCH  14  21
ATOM     20  C   UNL     1       0.524  14.493  21.620  0.00  0.00    +0.000 C 
ATOM     21  O   UNL     1       0.681  13.069  21.648  0.00  0.00    +0.000 OA
ENDBRANCH  14  21
BRANCH  19  22
ATOM     22  O   UNL     1       0.203  10.316  20.737  0.00  0.00    +0.000 OA
ATOM     23  C   UNL     1       0.619   9.844  22.009  0.00  0.00    +0.000 C 
ENDBRANCH  19  22
ENDBRANCH  13  18
ENDBRANCH   1  13
BRANCH  10  24
ATOM     24  C   UNL     1       4.765   5.815  16.383  0.00  0.00    +0.000 C 
BRANCH  24  25
ATOM     25  C   UNL     1       6.247   6.223  16.285  0.00  0.00    +0.000 C 
ATOM     26  C   UNL     1       6.856   6.582  17.639  0.00  0.00    +0.000 C 
ATOM     27  C   UNL     1       7.039   5.063  15.663  0.00  0.00    +0.000 C 
ENDBRANCH  24  25
ENDBRANCH  10  24
TORSDOF 6
ENDMDL
MODEL 8
REMARK VINA RESULT:      -6.9      1.724      4.051
REMARK  Name = 
REMARK  11 active torsions:
REMARK  status: ('A' for Active; 'I' for Inactive)
REMARK    1  A    between atoms: C_1  and  O_2
REMARK    2  A    between atoms: O_2  and  C_3
REMARK    3  A    between atoms: C_7  and  C_8
REMARK    4  A    between atoms: C_8  and  N_9
REMARK    5  A    between atoms: N_14  and  C_15
REMARK    6  A    between atoms: N_18  and  C_19
REMARK    7  A    between atoms: C_19  and  C_20
REMARK    8  A    between atoms: C_20  and  C_21
REMARK    9  A    between atoms: C_20  and  C_22
REMARK   10  A    between atoms: C_25  and  O_26
REMARK   11  A    between atoms: O_26  and  C_27
REMARK                            x       y       z     vdW  Elec       q    Type
REMARK                         _______ _______ _______ _____ _____    ______ ____
ROOT
ATOM      1  N   UNL     1       2.156   7.790  19.363  0.00  0.00    +0.000 N 
ATOM      2  C   UNL     1       1.634   6.756  20.102  0.00  0.00    +0.000 A 
ATOM      3  C   UNL     1       2.192   5.590  19.629  0.00  0.00    +0.000 A 
ATOM      4  C   UNL     1       1.847   4.231  19.920  0.00  0.00    +0.000 A 
ATOM      5  O   UNL     1       1.010   3.936  20.769  0.00  0.00    +0.000 OA
ATOM      6  N   UNL     1       2.506   3.309  19.101  0.00  0.00    +0.000 N 
ATOM      7  C   UNL     1       2.060   1.934  19.150  0.00  0.00    +0.000 C 
ATOM      8  C   UNL     1       3.516   3.600  18.160  0.00  0.00    +0.000 A 
ATOM      9  O   UNL     1       4.057   2.688  17.524  0.00  0.00    +0.000 OA
ATOM     10  N   UNL     1       3.836   4.954  17.933  0.00  0.00    +0.000 N 
ATOM     11  C   UNL     1       3.147   5.928  18.652  0.00  0.00    +0.000 A 
ATOM     12  C   UNL     1       3.151   7.300  18.541  0.00  0.00    +0.000 A 
ENDROOT
BRANCH   1  13
ATOM     13  C   UNL     1       1.534   9.111  19.237  0.00  0.00    +0.000 C 
BRANCH  13  18
ATOM     14  C   UNL     1      -0.836  10.939  21.610  0.00  0.00    +0.000 A 
ATOM     15  C   UNL     1      -0.507  10.315  22.825  0.00  0.00    +0.000 A 
ATOM     16  C   UNL     1       0.493   9.348  22.880  0.00  0.00    +0.000 A 
ATOM     17  C   UNL     1       1.164   8.989  21.719  0.00  0.00    +0.000 A 
ATOM     18  C   UNL     1       0.803   9.550  20.479  0.00  0.00    +0.000 A 
ATOM     19  C   UNL     1      -0.243  10.501  20.413  0.00  0.00    +0.000 A 
BRANCH  14  21
ATOM     20  C   UNL     1      -1.123  13.262  21.793  0.00  0.00    +0.000 C 
ATOM     21  O   UNL     1      -1.732  11.978  21.599  0.00  0.00    +0.000 OA
ENDBRANCH  14  21
BRANCH  19  22
ATOM     22  O   UNL     1      -0.538  10.907  19.137  0.00  0.00    +0.000 OA
ATOM     23  C   UNL     1      -1.734  10.459  18.518  0.00  0.00    +0.000 C 
ENDBRANCH  19  22
ENDBRANCH  13  18
ENDBRANCH   1  13
BRANCH  10  24
ATOM     24  C   UNL     1       4.654   5.270  16.757  0.00  0.00    +0.000 C 
BRANCH  24  25
ATOM     25  C   UNL     1       6.181   5.289  16.954  0.00  0.00    +0.000 C 
ATOM     26  C   UNL     1       6.943   4.734  15.752  0.00  0.00    +0.000 C 
ATOM     27  C   UNL     1       6.627   6.736  17.215  0.00  0.00    +0.000 C 
ENDBRANCH  24  25
ENDBRANCH  10  24
TORSDOF 6
ENDMDL
MODEL 9
REMARK VINA RESULT:      -6.8      2.173      4.064
REMARK  Name = 
REMARK  11 active torsions:
REMARK  status: ('A' for Active; 'I' for Inactive)
REMARK    1  A    between atoms: C_1  and  O_2
REMARK    2  A    between atoms: O_2  and  C_3
REMARK    3  A    between atoms: C_7  and  C_8
REMARK    4  A    between atoms: C_8  and  N_9
REMARK    5  A    between atoms: N_14  and  C_15
REMARK    6  A    between atoms: N_18  and  C_19
REMARK    7  A    between atoms: C_19  and  C_20
REMARK    8  A    between atoms: C_20  and  C_21
REMARK    9  A    between atoms: C_20  and  C_22
REMARK   10  A    between atoms: C_25  and  O_26
REMARK   11  A    between atoms: O_26  and  C_27
REMARK                            x       y       z     vdW  Elec       q    Type
REMARK                         _______ _______ _______ _____ _____    ______ ____
ROOT
ATOM      1  N   UNL     1       2.151   8.435  18.570  0.00  0.00    +0.000 N 
ATOM      2  C   UNL     1       1.949   7.615  19.655  0.00  0.00    +0.000 A 
ATOM      3  C   UNL     1       2.667   6.461  19.438  0.00  0.00    +0.000 A 
ATOM      4  C   UNL     1       2.645   5.225  20.161  0.00  0.00    +0.000 A 
ATOM      5  O   UNL     1       2.001   5.084  21.197  0.00  0.00    +0.000 OA
ATOM      6  N   UNL     1       3.367   4.207  19.530  0.00  0.00    +0.000 N 
ATOM      7  C   UNL     1       3.219   2.864  20.049  0.00  0.00    +0.000 C 
ATOM      8  C   UNL     1       4.168   4.342  18.377  0.00  0.00    +0.000 A 
ATOM      9  O   UNL     1       4.798   3.372  17.938  0.00  0.00    +0.000 OA
ATOM     10  N   UNL     1       4.175   5.589  17.721  0.00  0.00    +0.000 N 
ATOM     11  C   UNL     1       3.400   6.620  18.247  0.00  0.00    +0.000 A 
ATOM     12  C   UNL     1       3.111   7.872  17.753  0.00  0.00    +0.000 A 
ENDROOT
BRANCH   1  13
ATOM     13  C   UNL     1       1.263   9.536  18.191  0.00  0.00    +0.000 C 
BRANCH  13  18
ATOM     14  C   UNL     1       0.964  12.294  20.816  0.00  0.00    +0.000 A 
ATOM     15  C   UNL     1      -0.134  11.823  21.554  0.00  0.00    +0.000 A 
ATOM     16  C   UNL     1      -0.740  10.611  21.231  0.00  0.00    +0.000 A 
ATOM     17  C   UNL     1      -0.261   9.869  20.161  0.00  0.00    +0.000 A 
ATOM     18  C   UNL     1       0.793  10.357  19.364  0.00  0.00    +0.000 A 
ATOM     19  C   UNL     1       1.382  11.608  19.664  0.00  0.00    +0.000 A 
BRANCH  14  21
ATOM     20  C   UNL     1       0.765  14.422  21.788  0.00  0.00    +0.000 C 
ATOM     21  O   UNL     1       1.627  13.423  21.228  0.00  0.00    +0.000 OA
ENDBRANCH  14  21
BRANCH  19  22
ATOM     22  O   UNL     1       2.344  11.993  18.764  0.00  0.00    +0.000 OA
ATOM     23  C   UNL     1       2.192  13.213  18.056  0.00  0.00    +0.000 C 
ENDBRANCH  19  22
ENDBRANCH  13  18
ENDBRANCH   1  13
BRANCH  10  24
ATOM     24  C   UNL     1       4.755   5.644  16.375  0.00  0.00    +0.000 C 
BRANCH  24  25
ATOM     25  C   UNL     1       6.231   6.070  16.267  0.00  0.00    +0.000 C 
ATOM     26  C   UNL     1       6.812   6.540  17.599  0.00  0.00    +0.000 C 
ATOM     27  C   UNL     1       7.051   4.880  15.747  0.00  0.00    +0.000 C 
ENDBRANCH  24  25
ENDBRANCH  10  24
TORSDOF 6
ENDMDL
