MODEL 1
REMARK VINA RESULT:      -7.7      0.000      0.000
REMARK  Name = 
REMARK  9 active torsions:
REMARK  status: ('A' for Active; 'I' for Inactive)
REMARK    1  A    between atoms: P_2  and  O_3
REMARK    2  A    between atoms: P_2  and  O_4
REMARK    3  A    between atoms: P_2  and  C_5
REMARK    4  A    between atoms: C_5  and  O_6
REMARK    5  A    between atoms: C_5  and  C_7
REMARK    6  A    between atoms: C_5  and  P_17
REMARK    7  A    between atoms: C_7  and  C_8
REMARK    8  A    between atoms: P_17  and  O_19
REMARK    9  A    between atoms: P_17  and  O_20
REMARK                            x       y       z     vdW  Elec       q    Type
REMARK                         _______ _______ _______ _____ _____    ______ ____
ROOT
ATOM      1  C   UNL     1       6.482   6.142  17.066  0.00  0.00    +0.000 C 
ENDROOT
BRANCH   1   3
ATOM      2  O   UNL     1       5.968   3.799  14.687  0.00  0.00    +0.000 OA
ATOM      3  P   UNL     1       6.204   4.872  15.777  0.00  0.00    +0.000 P 
BRANCH   3   4
ATOM      4  O   UNL     1       7.676   5.204  15.105  0.00  0.00    +0.000 OA
ATOM      5  H   UNL     1       8.038   5.978  15.585  0.00  0.00    +0.000 HD
ENDBRANCH   3   4
BRANCH   3   6
ATOM      6  O   UNL     1       5.378   5.988  14.888  0.00  0.00    +0.000 OA
ATOM      7  H   UNL     1       5.325   6.803  15.431  0.00  0.00    +0.000 HD
ENDBRANCH   3   6
ENDBRANCH   1   3
BRANCH   1   8
ATOM      8  O   UNL     1       7.625   6.985  16.782  0.00  0.00    +0.000 OA
ATOM      9  H   UNL     1       7.265   7.854  16.521  0.00  0.00    +0.000 HD
ENDBRANCH   1   8
BRANCH   1  10
ATOM     10  P   UNL     1       7.059   4.879  18.341  0.00  0.00    +0.000 P 
ATOM     11  O   UNL     1       7.166   5.419  19.728  0.00  0.00    +0.000 OA
BRANCH  10  12
ATOM     12  O   UNL     1       5.998   3.678  18.194  0.00  0.00    +0.000 OA
ATOM     13  H   UNL     1       6.155   2.968  18.864  0.00  0.00    +0.000 HD
ENDBRANCH  10  12
BRANCH  10  14
ATOM     14  O   UNL     1       8.376   4.099  17.859  0.00  0.00    +0.000 OA
ATOM     15  H   UNL     1       8.526   4.276  16.907  0.00  0.00    +0.000 HD
ENDBRANCH  10  14
ENDBRANCH   1  10
BRANCH   1  16
ATOM     16  C   UNL     1       5.225   6.889  17.498  0.00  0.00    +0.000 C 
BRANCH  16  17
ATOM     17  C   UNL     1       4.169   6.033  18.104  0.00  0.00    +0.000 A 
ATOM     18  C   UNL     1       3.756   5.955  19.416  0.00  0.00    +0.000 A 
ATOM     19  N   UNL     1       2.807   4.968  19.452  0.00  0.00    +0.000 N 
ATOM     20  C   UNL     1       2.060   4.485  20.524  0.00  0.00    +0.000 A 
ATOM     21  C   UNL     1       1.161   3.506  20.317  0.00  0.00    +0.000 A 
ATOM     22  C   UNL     1       1.002   2.976  18.972  0.00  0.00    +0.000 A 
ATOM     23  C   UNL     1       1.729   3.448  17.939  0.00  0.00    +0.000 A 
ATOM     24  C   UNL     1       2.682   4.482  18.154  0.00  0.00    +0.000 A 
ATOM     25  N   UNL     1       3.518   5.091  17.336  0.00  0.00    +0.000 NA
ENDBRANCH  16  17
ENDBRANCH   1  16
TORSDOF 9
ENDMDL
MODEL 2
REMARK VINA RESULT:      -7.7      0.657      1.330
REMARK  Name = 
REMARK  9 active torsions:
REMARK  status: ('A' for Active; 'I' for Inactive)
REMARK    1  A    between atoms: P_2  and  O_3
REMARK    2  A    between atoms: P_2  and  O_4
REMARK    3  A    between atoms: P_2  and  C_5
REMARK    4  A    between atoms: C_5  and  O_6
REMARK    5  A    between atoms: C_5  and  C_7
REMARK    6  A    between atoms: C_5  and  P_17
REMARK    7  A    between atoms: C_7  and  C_8
REMARK    8  A    between atoms: P_17  and  O_19
REMARK    9  A    between atoms: P_17  and  O_20
REMARK                            x       y       z     vdW  Elec       q    Type
REMARK                         _______ _______ _______ _____ _____    ______ ____
ROOT
ATOM      1  C   UNL     1       6.366   6.079  17.119  0.00  0.00    +0.000 C 
ENDROOT
BRANCH   1   3
ATOM      2  O   UNL     1       6.004   3.679  14.770  0.00  0.00    +0.000 OA
ATOM      3  P   UNL     1       6.171   4.779  15.846  0.00  0.00    +0.000 P 
BRANCH   3   4
ATOM      4  O   UNL     1       7.705   5.054  15.300  0.00  0.00    +0.000 OA
ATOM      5  H   UNL     1       8.195   4.212  15.398  0.00  0.00    +0.000 HD
ENDBRANCH   3   4
BRANCH   3   6
ATOM      6  O   UNL     1       5.457   5.886  14.856  0.00  0.00    +0.000 OA
ATOM      7  H   UNL     1       6.117   6.122  14.169  0.00  0.00    +0.000 HD
ENDBRANCH   3   6
ENDBRANCH   1   3
BRANCH   1   8
ATOM      8  O   UNL     1       7.441   7.002  16.814  0.00  0.00    +0.000 OA
ATOM      9  H   UNL     1       8.172   6.779  17.422  0.00  0.00    +0.000 HD
ENDBRANCH   1   8
BRANCH   1  10
ATOM     10  P   UNL     1       7.049   4.877  18.401  0.00  0.00    +0.000 P 
ATOM     11  O   UNL     1       7.227   5.470  19.758  0.00  0.00    +0.000 OA
BRANCH  10  12
ATOM     12  O   UNL     1       6.008   3.650  18.363  0.00  0.00    +0.000 OA
ATOM     13  H   UNL     1       5.180   3.857  18.863  0.00  0.00    +0.000 HD
ENDBRANCH  10  12
BRANCH  10  14
ATOM     14  O   UNL     1       8.351   4.107  17.867  0.00  0.00    +0.000 OA
ATOM     15  H   UNL     1       8.122   3.608  17.056  0.00  0.00    +0.000 HD
ENDBRANCH  10  14
ENDBRANCH   1  10
BRANCH   1  16
ATOM     16  C   UNL     1       5.062   6.736  17.557  0.00  0.00    +0.000 C 
BRANCH  16  17
ATOM     17  C   UNL     1       4.063   5.804  18.150  0.00  0.00    +0.000 A 
ATOM     18  C   UNL     1       3.165   4.972  17.519  0.00  0.00    +0.000 A 
ATOM     19  N   UNL     1       2.436   4.382  18.517  0.00  0.00    +0.000 N 
ATOM     20  C   UNL     1       1.402   3.453  18.439  0.00  0.00    +0.000 A 
ATOM     21  C   UNL     1       0.835   2.995  19.569  0.00  0.00    +0.000 A 
ATOM     22  C   UNL     1       1.320   3.496  20.847  0.00  0.00    +0.000 A 
ATOM     23  C   UNL     1       2.321   4.396  20.915  0.00  0.00    +0.000 A 
ATOM     24  C   UNL     1       2.921   4.884  19.720  0.00  0.00    +0.000 A 
ATOM     25  N   UNL     1       3.881   5.765  19.515  0.00  0.00    +0.000 NA
ENDBRANCH  16  17
ENDBRANCH   1  16
TORSDOF 9
ENDMDL
MODEL 3
REMARK VINA RESULT:      -7.4      2.381      3.047
REMARK  Name = 
REMARK  9 active torsions:
REMARK  status: ('A' for Active; 'I' for Inactive)
REMARK    1  A    between atoms: P_2  and  O_3
REMARK    2  A    between atoms: P_2  and  O_4
REMARK    3  A    between atoms: P_2  and  C_5
REMARK    4  A    between atoms: C_5  and  O_6
REMARK    5  A    between atoms: C_5  and  C_7
REMARK    6  A    between atoms: C_5  and  P_17
REMARK    7  A    between atoms: C_7  and  C_8
REMARK    8  A    between atoms: P_17  and  O_19
REMARK    9  A    between atoms: P_17  and  O_20
REMARK                            x       y       z     vdW  Elec       q    Type
REMARK                         _______ _______ _______ _____ _____    ______ ____
ROOT
ATOM      1  C   UNL     1       5.761   6.059  17.403  0.00  0.00    +0.000 C 
ENDROOT
BRANCH   1   3
ATOM      2  O   UNL     1       7.414   4.521  14.889  0.00  0.00    +0.000 OA
ATOM      3  P   UNL     1       6.657   5.226  16.041  0.00  0.00    +0.000 P 
BRANCH   3   4
ATOM      4  O   UNL     1       7.811   6.408  16.051  0.00  0.00    +0.000 OA
ATOM      5  H   UNL     1       7.674   6.944  15.242  0.00  0.00    +0.000 HD
ENDBRANCH   3   4
BRANCH   3   6
ATOM      6  O   UNL     1       5.672   5.986  14.959  0.00  0.00    +0.000 OA
ATOM      7  H   UNL     1       5.966   6.920  14.914  0.00  0.00    +0.000 HD
ENDBRANCH   3   6
ENDBRANCH   1   3
BRANCH   1   8
ATOM      8  O   UNL     1       5.922   7.499  17.378  0.00  0.00    +0.000 OA
ATOM      9  H   UNL     1       5.770   7.774  16.454  0.00  0.00    +0.000 HD
ENDBRANCH   1   8
BRANCH   1  10
ATOM     10  P   UNL     1       6.945   5.418  18.722  0.00  0.00    +0.000 P 
ATOM     11  O   UNL     1       6.272   4.937  19.964  0.00  0.00    +0.000 OA
BRANCH  10  12
ATOM     12  O   UNL     1       7.784   4.276  17.958  0.00  0.00    +0.000 OA
ATOM     13  H   UNL     1       8.677   4.146  18.363  0.00  0.00    +0.000 HD
ENDBRANCH  10  12
BRANCH  10  14
ATOM     14  O   UNL     1       8.142   6.448  19.006  0.00  0.00    +0.000 OA
ATOM     15  H   UNL     1       8.058   6.798  19.918  0.00  0.00    +0.000 HD
ENDBRANCH  10  14
ENDBRANCH   1  10
BRANCH   1  16
ATOM     16  C   UNL     1       4.330   5.576  17.606  0.00  0.00    +0.000 C 
BRANCH  16  17
ATOM     17  C   UNL     1       3.439   6.544  18.304  0.00  0.00    +0.000 A 
ATOM     18  C   UNL     1       2.900   6.477  19.570  0.00  0.00    +0.000 A 
ATOM     19  N   UNL     1       2.103   7.582  19.697  0.00  0.00    +0.000 N 
ATOM     20  C   UNL     1       1.329   8.008  20.774  0.00  0.00    +0.000 A 
ATOM     21  C   UNL     1       0.629   9.152  20.676  0.00  0.00    +0.000 A 
ATOM     22  C   UNL     1       0.697   9.909  19.435  0.00  0.00    +0.000 A 
ATOM     23  C   UNL     1       1.446   9.491  18.396  0.00  0.00    +0.000 A 
ATOM     24  C   UNL     1       2.187   8.280  18.495  0.00  0.00    +0.000 A 
ATOM     25  N   UNL     1       2.964   7.652  17.635  0.00  0.00    +0.000 NA
ENDBRANCH  16  17
ENDBRANCH   1  16
TORSDOF 9
ENDMDL
MODEL 4
REMARK VINA RESULT:      -7.4      2.326      3.036
REMARK  Name = 
REMARK  9 active torsions:
REMARK  status: ('A' for Active; 'I' for Inactive)
REMARK    1  A    between atoms: P_2  and  O_3
REMARK    2  A    between atoms: P_2  and  O_4
REMARK    3  A    between atoms: P_2  and  C_5
REMARK    4  A    between atoms: C_5  and  O_6
REMARK    5  A    between atoms: C_5  and  C_7
REMARK    6  A    between atoms: C_5  and  P_17
REMARK    7  A    between atoms: C_7  and  C_8
REMARK    8  A    between atoms: P_17  and  O_19
REMARK    9  A    between atoms: P_17  and  O_20
REMARK                            x       y       z     vdW  Elec       q    Type
REMARK                         _______ _______ _______ _____ _____    ______ ____
ROOT
ATOM      1  C   UNL     1       5.792   5.851  17.393  0.00  0.00    +0.000 C 
ENDROOT
BRANCH   1   3
ATOM      2  O   UNL     1       7.479   4.618  14.738  0.00  0.00    +0.000 OA
ATOM      3  P   UNL     1       6.706   5.183  15.954  0.00  0.00    +0.000 P 
BRANCH   3   4
ATOM      4  O   UNL     1       5.624   5.880  14.919  0.00  0.00    +0.000 OA
ATOM      5  H   UNL     1       4.783   5.385  15.014  0.00  0.00    +0.000 HD
ENDBRANCH   3   4
BRANCH   3   6
ATOM      6  O   UNL     1       5.875   3.768  16.111  0.00  0.00    +0.000 OA
ATOM      7  H   UNL     1       6.148   3.193  15.365  0.00  0.00    +0.000 HD
ENDBRANCH   3   6
ENDBRANCH   1   3
BRANCH   1   8
ATOM      8  O   UNL     1       6.120   7.235  17.669  0.00  0.00    +0.000 OA
ATOM      9  H   UNL     1       6.500   7.250  18.568  0.00  0.00    +0.000 HD
ENDBRANCH   1   8
BRANCH   1  10
ATOM     10  P   UNL     1       6.768   4.818  18.632  0.00  0.00    +0.000 P 
ATOM     11  O   UNL     1       7.152   5.555  19.871  0.00  0.00    +0.000 OA
BRANCH  10  12
ATOM     12  O   UNL     1       5.815   3.549  18.904  0.00  0.00    +0.000 OA
ATOM     13  H   UNL     1       6.111   2.755  18.395  0.00  0.00    +0.000 HD
ENDBRANCH  10  12
BRANCH  10  14
ATOM     14  O   UNL     1       7.997   4.054  17.940  0.00  0.00    +0.000 OA
ATOM     15  H   UNL     1       8.774   4.650  17.913  0.00  0.00    +0.000 HD
ENDBRANCH  10  14
ENDBRANCH   1  10
BRANCH   1  16
ATOM     16  C   UNL     1       4.302   5.531  17.398  0.00  0.00    +0.000 C 
BRANCH  16  17
ATOM     17  C   UNL     1       3.455   6.519  18.123  0.00  0.00    +0.000 A 
ATOM     18  C   UNL     1       2.923   6.447  19.391  0.00  0.00    +0.000 A 
ATOM     19  N   UNL     1       2.172   7.581  19.547  0.00  0.00    +0.000 N 
ATOM     20  C   UNL     1       1.424   8.015  20.639  0.00  0.00    +0.000 A 
ATOM     21  C   UNL     1       0.770   9.187  20.571  0.00  0.00    +0.000 A 
ATOM     22  C   UNL     1       0.860   9.968  19.346  0.00  0.00    +0.000 A 
ATOM     23  C   UNL     1       1.584   9.541  18.292  0.00  0.00    +0.000 A 
ATOM     24  C   UNL     1       2.276   8.299  18.360  0.00  0.00    +0.000 A 
ATOM     25  N   UNL     1       3.021   7.659  17.481  0.00  0.00    +0.000 NA
ENDBRANCH  16  17
ENDBRANCH   1  16
TORSDOF 9
ENDMDL
MODEL 5
REMARK VINA RESULT:      -7.4      0.233      1.021
REMARK  Name = 
REMARK  9 active torsions:
REMARK  status: ('A' for Active; 'I' for Inactive)
REMARK    1  A    between atoms: P_2  and  O_3
REMARK    2  A    between atoms: P_2  and  O_4
REMARK    3  A    between atoms: P_2  and  C_5
REMARK    4  A    between atoms: C_5  and  O_6
REMARK    5  A    between atoms: C_5  and  C_7
REMARK    6  A    between atoms: C_5  and  P_17
REMARK    7  A    between atoms: C_7  and  C_8
REMARK    8  A    between atoms: P_17  and  O_19
REMARK    9  A    between atoms: P_17  and  O_20
REMARK                            x       y       z     vdW  Elec       q    Type
REMARK                         _______ _______ _______ _____ _____    ______ ____
ROOT
ATOM      1  C   UNL     1       6.393   6.170  17.154  0.00  0.00    +0.000 C 
ENDROOT
BRANCH   1   3
ATOM      2  O   UNL     1       5.669   4.084  14.597  0.00  0.00    +0.000 OA
ATOM      3  P   UNL     1       6.001   5.040  15.769  0.00  0.00    +0.000 P 
BRANCH   3   4
ATOM      4  O   UNL     1       7.493   5.300  15.109  0.00  0.00    +0.000 OA
ATOM      5  H   UNL     1       7.980   5.880  15.731  0.00  0.00    +0.000 HD
ENDBRANCH   3   4
BRANCH   3   6
ATOM      6  O   UNL     1       5.269   6.291  14.985  0.00  0.00    +0.000 OA
ATOM      7  H   UNL     1       4.667   5.896  14.318  0.00  0.00    +0.000 HD
ENDBRANCH   3   6
ENDBRANCH   1   3
BRANCH   1   8
ATOM      8  O   UNL     1       7.522   7.032  16.870  0.00  0.00    +0.000 OA
ATOM      9  H   UNL     1       7.953   6.663  16.075  0.00  0.00    +0.000 HD
ENDBRANCH   1   8
BRANCH   1  10
ATOM     10  P   UNL     1       7.050   4.781  18.247  0.00  0.00    +0.000 P 
ATOM     11  O   UNL     1       8.352   4.211  17.792  0.00  0.00    +0.000 OA
BRANCH  10  12
ATOM     12  O   UNL     1       7.111   5.446  19.712  0.00  0.00    +0.000 OA
ATOM     13  H   UNL     1       7.682   4.922  20.326  0.00  0.00    +0.000 HD
ENDBRANCH  10  12
BRANCH  10  14
ATOM     14  O   UNL     1       5.933   3.665  18.534  0.00  0.00    +0.000 OA
ATOM     15  H   UNL     1       5.731   3.189  17.702  0.00  0.00    +0.000 HD
ENDBRANCH  10  14
ENDBRANCH   1  10
BRANCH   1  16
ATOM     16  C   UNL     1       5.183   6.875  17.756  0.00  0.00    +0.000 C 
BRANCH  16  17
ATOM     17  C   UNL     1       4.115   5.965  18.255  0.00  0.00    +0.000 A 
ATOM     18  C   UNL     1       3.648   5.791  19.539  0.00  0.00    +0.000 A 
ATOM     19  N   UNL     1       2.714   4.792  19.465  0.00  0.00    +0.000 N 
ATOM     20  C   UNL     1       1.930   4.226  20.467  0.00  0.00    +0.000 A 
ATOM     21  C   UNL     1       1.057   3.252  20.155  0.00  0.00    +0.000 A 
ATOM     22  C   UNL     1       0.964   2.814  18.770  0.00  0.00    +0.000 A 
ATOM     23  C   UNL     1       1.727   3.366  17.805  0.00  0.00    +0.000 A 
ATOM     24  C   UNL     1       2.654   4.395  18.133  0.00  0.00    +0.000 A 
ATOM     25  N   UNL     1       3.513   5.071  17.396  0.00  0.00    +0.000 NA
ENDBRANCH  16  17
ENDBRANCH   1  16
TORSDOF 9
ENDMDL
MODEL 6
REMARK VINA RESULT:      -7.3      1.535      2.287
REMARK  Name = 
REMARK  9 active torsions:
REMARK  status: ('A' for Active; 'I' for Inactive)
REMARK    1  A    between atoms: P_2  and  O_3
REMARK    2  A    between atoms: P_2  and  O_4
REMARK    3  A    between atoms: P_2  and  C_5
REMARK    4  A    between atoms: C_5  and  O_6
REMARK    5  A    between atoms: C_5  and  C_7
REMARK    6  A    between atoms: C_5  and  P_17
REMARK    7  A    between atoms: C_7  and  C_8
REMARK    8  A    between atoms: P_17  and  O_19
REMARK    9  A    between atoms: P_17  and  O_20
REMARK                            x       y       z     vdW  Elec       q    Type
REMARK                         _______ _______ _______ _____ _____    ______ ____
ROOT
ATOM      1  C   UNL     1       5.865   4.923  16.817  0.00  0.00    +0.000 C 
ENDROOT
BRANCH   1   3
ATOM      2  O   UNL     1       7.685   5.380  14.008  0.00  0.00    +0.000 OA
ATOM      3  P   UNL     1       6.851   5.171  15.295  0.00  0.00    +0.000 P 
BRANCH   3   4
ATOM      4  O   UNL     1       5.718   6.221  14.709  0.00  0.00    +0.000 OA
ATOM      5  H   UNL     1       4.955   5.679  14.417  0.00  0.00    +0.000 HD
ENDBRANCH   3   4
BRANCH   3   6
ATOM      6  O   UNL     1       6.155   3.823  14.651  0.00  0.00    +0.000 OA
ATOM      7  H   UNL     1       6.733   3.527  13.916  0.00  0.00    +0.000 HD
ENDBRANCH   3   6
ENDBRANCH   1   3
BRANCH   1   8
ATOM      8  O   UNL     1       4.984   6.038  17.100  0.00  0.00    +0.000 OA
ATOM      9  H   UNL     1       5.427   6.566  17.792  0.00  0.00    +0.000 HD
ENDBRANCH   1   8
BRANCH   1  10
ATOM     10  P   UNL     1       7.358   5.128  17.950  0.00  0.00    +0.000 P 
ATOM     11  O   UNL     1       8.405   4.079  17.775  0.00  0.00    +0.000 OA
BRANCH  10  12
ATOM     12  O   UNL     1       7.876   6.618  17.631  0.00  0.00    +0.000 OA
ATOM     13  H   UNL     1       8.434   6.976  18.365  0.00  0.00    +0.000 HD
ENDBRANCH  10  12
BRANCH  10  14
ATOM     14  O   UNL     1       6.925   5.344  19.480  0.00  0.00    +0.000 OA
ATOM     15  H   UNL     1       5.970   5.148  19.576  0.00  0.00    +0.000 HD
ENDBRANCH  10  14
ENDBRANCH   1  10
BRANCH   1  16
ATOM     16  C   UNL     1       5.217   3.548  16.933  0.00  0.00    +0.000 C 
BRANCH  16  17
ATOM     17  C   UNL     1       4.261   3.403  18.066  0.00  0.00    +0.000 A 
ATOM     18  C   UNL     1       4.473   2.889  19.326  0.00  0.00    +0.000 A 
ATOM     19  N   UNL     1       3.256   2.923  19.953  0.00  0.00    +0.000 N 
ATOM     20  C   UNL     1       2.904   2.530  21.242  0.00  0.00    +0.000 A 
ATOM     21  C   UNL     1       1.632   2.671  21.654  0.00  0.00    +0.000 A 
ATOM     22  C   UNL     1       0.656   3.229  20.730  0.00  0.00    +0.000 A 
ATOM     23  C   UNL     1       1.003   3.607  19.483  0.00  0.00    +0.000 A 
ATOM     24  C   UNL     1       2.348   3.456  19.043  0.00  0.00    +0.000 A 
ATOM     25  N   UNL     1       2.931   3.722  17.891  0.00  0.00    +0.000 NA
ENDBRANCH  16  17
ENDBRANCH   1  16
TORSDOF 9
ENDMDL
MODEL 7
REMARK VINA RESULT:      -7.2      1.604      2.424
REMARK  Name = 
REMARK  9 active torsions:
REMARK  status: ('A' for Active; 'I' for Inactive)
REMARK    1  A    between atoms: P_2  and  O_3
REMARK    2  A    between atoms: P_2  and  O_4
REMARK    3  A    between atoms: P_2  and  C_5
REMARK    4  A    between atoms: C_5  and  O_6
REMARK    5  A    between atoms: C_5  and  C_7
REMARK    6  A    between atoms: C_5  and  P_17
REMARK    7  A    between atoms: C_7  and  C_8
REMARK    8  A    between atoms: P_17  and  O_19
REMARK    9  A    between atoms: P_17  and  O_20
REMARK                            x       y       z     vdW  Elec       q    Type
REMARK                         _______ _______ _______ _____ _____    ______ ____
ROOT
ATOM      1  C   UNL     1       5.532   5.099  16.431  0.00  0.00    +0.000 C 
ENDROOT
BRANCH   1   3
ATOM      2  O   UNL     1       7.778   5.572  13.952  0.00  0.00    +0.000 OA
ATOM      3  P   UNL     1       6.748   5.355  15.088  0.00  0.00    +0.000 P 
BRANCH   3   4
ATOM      4  O   UNL     1       6.005   4.201  14.169  0.00  0.00    +0.000 OA
ATOM      5  H   UNL     1       6.063   3.361  14.669  0.00  0.00    +0.000 HD
ENDBRANCH   3   4
BRANCH   3   6
ATOM      6  O   UNL     1       7.772   4.308  15.845  0.00  0.00    +0.000 OA
ATOM      7  H   UNL     1       8.416   4.853  16.347  0.00  0.00    +0.000 HD
ENDBRANCH   3   6
ENDBRANCH   1   3
BRANCH   1   8
ATOM      8  O   UNL     1       4.524   6.139  16.478  0.00  0.00    +0.000 OA
ATOM      9  H   UNL     1       3.805   5.848  15.886  0.00  0.00    +0.000 HD
ENDBRANCH   1   8
BRANCH   1  10
ATOM     10  P   UNL     1       6.777   5.507  17.787  0.00  0.00    +0.000 P 
ATOM     11  O   UNL     1       7.791   6.529  17.396  0.00  0.00    +0.000 OA
BRANCH  10  12
ATOM     12  O   UNL     1       5.855   5.952  19.029  0.00  0.00    +0.000 OA
ATOM     13  H   UNL     1       4.894   5.825  18.834  0.00  0.00    +0.000 HD
ENDBRANCH  10  12
BRANCH  10  14
ATOM     14  O   UNL     1       7.422   4.184  18.426  0.00  0.00    +0.000 OA
ATOM     15  H   UNL     1       7.321   3.439  17.798  0.00  0.00    +0.000 HD
ENDBRANCH  10  14
ENDBRANCH   1  10
BRANCH   1  16
ATOM     16  C   UNL     1       4.991   3.677  16.532  0.00  0.00    +0.000 C 
BRANCH  16  17
ATOM     17  C   UNL     1       4.023   3.456  17.641  0.00  0.00    +0.000 A 
ATOM     18  C   UNL     1       2.653   3.604  17.646  0.00  0.00    +0.000 A 
ATOM     19  N   UNL     1       2.253   3.341  18.929  0.00  0.00    +0.000 N 
ATOM     20  C   UNL     1       0.976   3.341  19.484  0.00  0.00    +0.000 A 
ATOM     21  C   UNL     1       0.818   3.033  20.783  0.00  0.00    +0.000 A 
ATOM     22  C   UNL     1       1.997   2.714  21.575  0.00  0.00    +0.000 A 
ATOM     23  C   UNL     1       3.231   2.717  21.031  0.00  0.00    +0.000 A 
ATOM     24  C   UNL     1       3.402   3.045  19.657  0.00  0.00    +0.000 A 
ATOM     25  N   UNL     1       4.479   3.140  18.903  0.00  0.00    +0.000 NA
ENDBRANCH  16  17
ENDBRANCH   1  16
TORSDOF 9
ENDMDL
MODEL 8
REMARK VINA RESULT:      -7.2      1.542      2.494
REMARK  Name = 
REMARK  9 active torsions:
REMARK  status: ('A' for Active; 'I' for Inactive)
REMARK    1  A    between atoms: P_2  and  O_3
REMARK    2  A    between atoms: P_2  and  O_4
REMARK    3  A    between atoms: P_2  and  C_5
REMARK    4  A    between atoms: C_5  and  O_6
REMARK    5  A    between atoms: C_5  and  C_7
REMARK    6  A    between atoms: C_5  and  P_17
REMARK    7  A    between atoms: C_7  and  C_8
REMARK    8  A    between atoms: P_17  and  O_19
REMARK    9  A    between atoms: P_17  and  O_20
REMARK                            x       y       z     vdW  Elec       q    Type
REMARK                         _______ _______ _______ _____ _____    ______ ____
ROOT
ATOM      1  C   UNL     1       5.787   4.922  16.749  0.00  0.00    +0.000 C 
ENDROOT
BRANCH   1   3
ATOM      2  O   UNL     1       7.769   5.500  14.075  0.00  0.00    +0.000 OA
ATOM      3  P   UNL     1       6.860   5.235  15.300  0.00  0.00    +0.000 P 
BRANCH   3   4
ATOM      4  O   UNL     1       5.581   5.860  14.463  0.00  0.00    +0.000 OA
ATOM      5  H   UNL     1       5.358   5.212  13.762  0.00  0.00    +0.000 HD
ENDBRANCH   3   4
BRANCH   3   6
ATOM      6  O   UNL     1       6.616   3.680  14.811  0.00  0.00    +0.000 OA
ATOM      7  H   UNL     1       5.783   3.377  15.230  0.00  0.00    +0.000 HD
ENDBRANCH   3   6
ENDBRANCH   1   3
BRANCH   1   8
ATOM      8  O   UNL     1       4.921   6.042  17.056  0.00  0.00    +0.000 OA
ATOM      9  H   UNL     1       4.026   5.670  17.173  0.00  0.00    +0.000 HD
ENDBRANCH   1   8
BRANCH   1  10
ATOM     10  P   UNL     1       7.220   5.012  17.970  0.00  0.00    +0.000 P 
ATOM     11  O   UNL     1       8.341   4.074  17.666  0.00  0.00    +0.000 OA
BRANCH  10  12
ATOM     12  O   UNL     1       7.649   6.563  17.939  0.00  0.00    +0.000 OA
ATOM     13  H   UNL     1       7.814   6.914  18.848  0.00  0.00    +0.000 HD
ENDBRANCH  10  12
BRANCH  10  14
ATOM     14  O   UNL     1       6.718   4.930  19.492  0.00  0.00    +0.000 OA
ATOM     15  H   UNL     1       6.381   4.028  19.672  0.00  0.00    +0.000 HD
ENDBRANCH  10  14
ENDBRANCH   1  10
BRANCH   1  16
ATOM     16  C   UNL     1       5.098   3.562  16.743  0.00  0.00    +0.000 C 
BRANCH  16  17
ATOM     17  C   UNL     1       4.071   3.378  17.805  0.00  0.00    +0.000 A 
ATOM     18  C   UNL     1       2.709   3.573  17.744  0.00  0.00    +0.000 A 
ATOM     19  N   UNL     1       2.239   3.330  19.007  0.00  0.00    +0.000 N 
ATOM     20  C   UNL     1       0.937   3.376  19.500  0.00  0.00    +0.000 A 
ATOM     21  C   UNL     1       0.707   3.080  20.791  0.00  0.00    +0.000 A 
ATOM     22  C   UNL     1       1.835   2.725  21.639  0.00  0.00    +0.000 A 
ATOM     23  C   UNL     1       3.093   2.684  21.155  0.00  0.00    +0.000 A 
ATOM     24  C   UNL     1       3.340   2.999  19.790  0.00  0.00    +0.000 A 
ATOM     25  N   UNL     1       4.455   3.053  19.088  0.00  0.00    +0.000 NA
ENDBRANCH  16  17
ENDBRANCH   1  16
TORSDOF 9
ENDMDL
MODEL 9
REMARK VINA RESULT:      -7.2      1.566      2.183
REMARK  Name = 
REMARK  9 active torsions:
REMARK  status: ('A' for Active; 'I' for Inactive)
REMARK    1  A    between atoms: P_2  and  O_3
REMARK    2  A    between atoms: P_2  and  O_4
REMARK    3  A    between atoms: P_2  and  C_5
REMARK    4  A    between atoms: C_5  and  O_6
REMARK    5  A    between atoms: C_5  and  C_7
REMARK    6  A    between atoms: C_5  and  P_17
REMARK    7  A    between atoms: C_7  and  C_8
REMARK    8  A    between atoms: P_17  and  O_19
REMARK    9  A    between atoms: P_17  and  O_20
REMARK                            x       y       z     vdW  Elec       q    Type
REMARK                         _______ _______ _______ _____ _____    ______ ____
ROOT
ATOM      1  C   UNL     1       5.760   4.973  16.918  0.00  0.00    +0.000 C 
ENDROOT
BRANCH   1   3
ATOM      2  O   UNL     1       7.722   5.422  14.205  0.00  0.00    +0.000 OA
ATOM      3  P   UNL     1       6.822   5.216  15.448  0.00  0.00    +0.000 P 
BRANCH   3   4
ATOM      4  O   UNL     1       5.548   5.846  14.607  0.00  0.00    +0.000 OA
ATOM      5  H   UNL     1       5.638   6.821  14.645  0.00  0.00    +0.000 HD
ENDBRANCH   3   4
BRANCH   3   6
ATOM      6  O   UNL     1       6.536   3.654  15.009  0.00  0.00    +0.000 OA
ATOM      7  H   UNL     1       6.550   3.120  15.832  0.00  0.00    +0.000 HD
ENDBRANCH   3   6
ENDBRANCH   1   3
BRANCH   1   8
ATOM      8  O   UNL     1       4.841   6.072  17.131  0.00  0.00    +0.000 OA
ATOM      9  H   UNL     1       4.967   6.682  16.379  0.00  0.00    +0.000 HD
ENDBRANCH   1   8
BRANCH   1  10
ATOM     10  P   UNL     1       7.183   5.232  18.127  0.00  0.00    +0.000 P 
ATOM     11  O   UNL     1       6.781   5.179  19.563  0.00  0.00    +0.000 OA
BRANCH  10  12
ATOM     12  O   UNL     1       8.247   4.097  17.711  0.00  0.00    +0.000 OA
ATOM     13  H   UNL     1       9.002   4.053  18.348  0.00  0.00    +0.000 HD
ENDBRANCH  10  12
BRANCH  10  14
ATOM     14  O   UNL     1       8.056   6.527  17.758  0.00  0.00    +0.000 OA
ATOM     15  H   UNL     1       7.544   7.334  17.978  0.00  0.00    +0.000 HD
ENDBRANCH  10  14
ENDBRANCH   1  10
BRANCH   1  16
ATOM     16  C   UNL     1       5.137   3.586  17.025  0.00  0.00    +0.000 C 
BRANCH  16  17
ATOM     17  C   UNL     1       4.200   3.410  18.169  0.00  0.00    +0.000 A 
ATOM     18  C   UNL     1       4.427   2.840  19.402  0.00  0.00    +0.000 A 
ATOM     19  N   UNL     1       3.224   2.868  20.055  0.00  0.00    +0.000 N 
ATOM     20  C   UNL     1       2.890   2.426  21.333  0.00  0.00    +0.000 A 
ATOM     21  C   UNL     1       1.628   2.572  21.775  0.00  0.00    +0.000 A 
ATOM     22  C   UNL     1       0.645   3.184  20.895  0.00  0.00    +0.000 A 
ATOM     23  C   UNL     1       0.974   3.608  19.658  0.00  0.00    +0.000 A 
ATOM     24  C   UNL     1       2.308   3.453  19.186  0.00  0.00    +0.000 A 
ATOM     25  N   UNL     1       2.873   3.758  18.034  0.00  0.00    +0.000 NA
ENDBRANCH  16  17
ENDBRANCH   1  16
TORSDOF 9
ENDMDL
