MODEL 1
REMARK VINA RESULT:      -8.2      0.000      0.000
REMARK  Name = 
REMARK  3 active torsions:
REMARK  status: ('A' for Active; 'I' for Inactive)
REMARK    1  A    between atoms: C_2  and  C_4
REMARK    2  A    between atoms: C_8  and  N_9
REMARK    3  A    between atoms: N_12  and  C_13
REMARK                            x       y       z     vdW  Elec       q    Type
REMARK                         _______ _______ _______ _____ _____    ______ ____
ROOT
ATOM      1  N   UNL     1       5.504   3.014  16.429  0.00  0.00    +0.000 N 
ATOM      2  C   UNL     1       4.585   3.496  17.355  0.00  0.00    +0.000 C 
ATOM      3  O   UNL     1       4.307   4.689  17.462  0.00  0.00    +0.000 OA
ATOM      4  N   UNL     1       4.035   2.486  18.125  0.00  0.00    +0.000 N 
ATOM      5  H   UNL     1       5.163   2.223  15.891  0.00  0.00    +0.000 HD
ATOM      6  H   UNL     1       4.578   1.634  18.185  0.00  0.00    +0.000 HD
ENDROOT
BRANCH   4   7
ATOM      7  C   UNL     1       3.001   2.667  19.077  0.00  0.00    +0.000 A 
ATOM      8  C   UNL     1       1.655   2.803  18.719  0.00  0.00    +0.000 A 
ATOM      9  C   UNL     1       0.667   2.995  19.688  0.00  0.00    +0.000 A 
ATOM     10  C   UNL     1       1.014   3.043  21.033  0.00  0.00    +0.000 A 
ATOM     11  C   UNL     1       2.346   2.893  21.406  0.00  0.00    +0.000 A 
ATOM     12  C   UNL     1       3.337   2.698  20.434  0.00  0.00    +0.000 A 
ENDBRANCH   4   7
BRANCH   1  17
ATOM     13  C   UNL     1       7.114   4.952  16.103  0.00  0.00    +0.000 A 
ATOM     14  N   UNL     1       7.656   5.694  15.047  0.00  0.00    +0.000 NA
ATOM     15  N   UNL     1       7.193   5.298  13.874  0.00  0.00    +0.000 NA
ATOM     16  S   UNL     1       6.111   4.030  13.998  0.00  0.00    +0.000 S 
ATOM     17  C   UNL     1       6.244   3.949  15.708  0.00  0.00    +0.000 A 
BRANCH  13  19
ATOM     18  N   UNL     1       7.489   6.524  17.842  0.00  0.00    +0.000 N 
ATOM     19  C   UNL     1       7.533   5.207  17.470  0.00  0.00    +0.000 C 
ATOM     20  O   UNL     1       7.921   4.331  18.236  0.00  0.00    +0.000 OA
ATOM     21  H   UNL     1       7.851   6.794  18.745  0.00  0.00    +0.000 HD
ATOM     22  H   UNL     1       7.240   7.242  17.173  0.00  0.00    +0.000 HD
ENDBRANCH  13  19
ENDBRANCH   1  17
TORSDOF 3
ENDMDL
MODEL 2
REMARK VINA RESULT:      -8.1      0.045      1.134
REMARK  Name = 
REMARK  3 active torsions:
REMARK  status: ('A' for Active; 'I' for Inactive)
REMARK    1  A    between atoms: C_2  and  C_4
REMARK    2  A    between atoms: C_8  and  N_9
REMARK    3  A    between atoms: N_12  and  C_13
REMARK                            x       y       z     vdW  Elec       q    Type
REMARK                         _______ _______ _______ _____ _____    ______ ____
ROOT
ATOM      1  N   UNL     1       5.493   3.011  16.433  0.00  0.00    +0.000 N 
ATOM      2  C   UNL     1       4.599   3.496  17.381  0.00  0.00    +0.000 C 
ATOM      3  O   UNL     1       4.342   4.691  17.509  0.00  0.00    +0.000 OA
ATOM      4  N   UNL     1       4.046   2.485  18.148  0.00  0.00    +0.000 N 
ATOM      5  H   UNL     1       5.130   2.232  15.891  0.00  0.00    +0.000 HD
ATOM      6  H   UNL     1       4.576   1.624  18.188  0.00  0.00    +0.000 HD
ENDROOT
BRANCH   4   7
ATOM      7  C   UNL     1       3.033   2.669  19.121  0.00  0.00    +0.000 A 
ATOM      8  C   UNL     1       3.302   2.740  20.493  0.00  0.00    +0.000 A 
ATOM      9  C   UNL     1       2.273   2.908  21.422  0.00  0.00    +0.000 A 
ATOM     10  C   UNL     1       0.956   3.016  20.988  0.00  0.00    +0.000 A 
ATOM     11  C   UNL     1       0.674   2.964  19.626  0.00  0.00    +0.000 A 
ATOM     12  C   UNL     1       1.708   2.799  18.694  0.00  0.00    +0.000 A 
ENDBRANCH   4   7
BRANCH   1  17
ATOM     13  C   UNL     1       7.113   4.941  16.104  0.00  0.00    +0.000 A 
ATOM     14  N   UNL     1       7.654   5.682  15.046  0.00  0.00    +0.000 NA
ATOM     15  N   UNL     1       7.182   5.292  13.875  0.00  0.00    +0.000 NA
ATOM     16  S   UNL     1       6.093   4.030  14.002  0.00  0.00    +0.000 S 
ATOM     17  C   UNL     1       6.235   3.944  15.710  0.00  0.00    +0.000 A 
BRANCH  13  19
ATOM     18  N   UNL     1       7.494   6.504  17.850  0.00  0.00    +0.000 N 
ATOM     19  C   UNL     1       7.541   5.189  17.469  0.00  0.00    +0.000 C 
ATOM     20  O   UNL     1       7.939   4.310  18.227  0.00  0.00    +0.000 OA
ATOM     21  H   UNL     1       7.861   6.770  18.752  0.00  0.00    +0.000 HD
ATOM     22  H   UNL     1       7.237   7.225  17.186  0.00  0.00    +0.000 HD
ENDBRANCH  13  19
ENDBRANCH   1  17
TORSDOF 3
ENDMDL
MODEL 3
REMARK VINA RESULT:      -7.4      1.702      2.010
REMARK  Name = 
REMARK  3 active torsions:
REMARK  status: ('A' for Active; 'I' for Inactive)
REMARK    1  A    between atoms: C_2  and  C_4
REMARK    2  A    between atoms: C_8  and  N_9
REMARK    3  A    between atoms: N_12  and  C_13
REMARK                            x       y       z     vdW  Elec       q    Type
REMARK                         _______ _______ _______ _____ _____    ______ ____
ROOT
ATOM      1  N   UNL     1       4.425   5.838  16.734  0.00  0.00    +0.000 N 
ATOM      2  C   UNL     1       4.115   4.871  17.685  0.00  0.00    +0.000 C 
ATOM      3  O   UNL     1       4.872   3.946  17.969  0.00  0.00    +0.000 OA
ATOM      4  N   UNL     1       2.872   5.078  18.259  0.00  0.00    +0.000 N 
ATOM      5  H   UNL     1       4.271   6.789  17.055  0.00  0.00    +0.000 HD
ATOM      6  H   UNL     1       2.225   5.635  17.716  0.00  0.00    +0.000 HD
ENDROOT
BRANCH   4   7
ATOM      7  C   UNL     1       2.336   4.313  19.324  0.00  0.00    +0.000 A 
ATOM      8  C   UNL     1       2.705   4.511  20.660  0.00  0.00    +0.000 A 
ATOM      9  C   UNL     1       2.164   3.725  21.681  0.00  0.00    +0.000 A 
ATOM     10  C   UNL     1       1.238   2.734  21.378  0.00  0.00    +0.000 A 
ATOM     11  C   UNL     1       0.849   2.536  20.056  0.00  0.00    +0.000 A 
ATOM     12  C   UNL     1       1.389   3.326  19.032  0.00  0.00    +0.000 A 
ENDBRANCH   4   7
BRANCH   1  17
ATOM     13  C   UNL     1       6.884   6.072  16.140  0.00  0.00    +0.000 A 
ATOM     14  N   UNL     1       7.756   5.665  15.123  0.00  0.00    +0.000 NA
ATOM     15  N   UNL     1       7.136   4.975  14.183  0.00  0.00    +0.000 NA
ATOM     16  S   UNL     1       5.503   4.786  14.489  0.00  0.00    +0.000 S 
ATOM     17  C   UNL     1       5.577   5.646  15.972  0.00  0.00    +0.000 A 
BRANCH  13  19
ATOM     18  N   UNL     1       7.464   6.072  18.442  0.00  0.00    +0.000 N 
ATOM     19  C   UNL     1       7.386   6.805  17.288  0.00  0.00    +0.000 C 
ATOM     20  O   UNL     1       7.696   7.992  17.254  0.00  0.00    +0.000 OA
ATOM     21  H   UNL     1       7.716   6.532  19.304  0.00  0.00    +0.000 HD
ATOM     22  H   UNL     1       7.131   5.116  18.469  0.00  0.00    +0.000 HD
ENDBRANCH  13  19
ENDBRANCH   1  17
TORSDOF 3
ENDMDL
MODEL 4
REMARK VINA RESULT:      -7.3      1.667      1.679
REMARK  Name = 
REMARK  3 active torsions:
REMARK  status: ('A' for Active; 'I' for Inactive)
REMARK    1  A    between atoms: C_2  and  C_4
REMARK    2  A    between atoms: C_8  and  N_9
REMARK    3  A    between atoms: N_12  and  C_13
REMARK                            x       y       z     vdW  Elec       q    Type
REMARK                         _______ _______ _______ _____ _____    ______ ____
ROOT
ATOM      1  N   UNL     1       4.400   5.749  16.654  0.00  0.00    +0.000 N 
ATOM      2  C   UNL     1       4.100   4.792  17.617  0.00  0.00    +0.000 C 
ATOM      3  O   UNL     1       4.873   3.888  17.925  0.00  0.00    +0.000 OA
ATOM      4  N   UNL     1       2.846   4.981  18.173  0.00  0.00    +0.000 N 
ATOM      5  H   UNL     1       4.222   6.703  16.958  0.00  0.00    +0.000 HD
ATOM      6  H   UNL     1       2.194   5.515  17.614  0.00  0.00    +0.000 HD
ENDROOT
BRANCH   4   7
ATOM      7  C   UNL     1       2.314   4.222  19.244  0.00  0.00    +0.000 A 
ATOM      8  C   UNL     1       1.423   3.160  19.052  0.00  0.00    +0.000 A 
ATOM      9  C   UNL     1       0.908   2.445  20.137  0.00  0.00    +0.000 A 
ATOM     10  C   UNL     1       1.288   2.780  21.432  0.00  0.00    +0.000 A 
ATOM     11  C   UNL     1       2.186   3.823  21.638  0.00  0.00    +0.000 A 
ATOM     12  C   UNL     1       2.704   4.538  20.550  0.00  0.00    +0.000 A 
ENDBRANCH   4   7
BRANCH   1  17
ATOM     13  C   UNL     1       6.868   5.999  16.103  0.00  0.00    +0.000 A 
ATOM     14  N   UNL     1       7.758   5.607  15.096  0.00  0.00    +0.000 NA
ATOM     15  N   UNL     1       7.155   4.926  14.137  0.00  0.00    +0.000 NA
ATOM     16  S   UNL     1       5.519   4.728  14.414  0.00  0.00    +0.000 S 
ATOM     17  C   UNL     1       5.565   5.571  15.909  0.00  0.00    +0.000 A 
BRANCH  13  19
ATOM     18  N   UNL     1       7.431   5.967  18.409  0.00  0.00    +0.000 N 
ATOM     19  C   UNL     1       7.348   6.719  17.268  0.00  0.00    +0.000 C 
ATOM     20  O   UNL     1       7.638   7.912  17.258  0.00  0.00    +0.000 OA
ATOM     21  H   UNL     1       7.669   6.416  19.282  0.00  0.00    +0.000 HD
ATOM     22  H   UNL     1       7.115   5.005  18.417  0.00  0.00    +0.000 HD
ENDBRANCH  13  19
ENDBRANCH   1  17
TORSDOF 3
ENDMDL
MODEL 5
REMARK VINA RESULT:      -7.3      1.181      1.335
REMARK  Name = 
REMARK  3 active torsions:
REMARK  status: ('A' for Active; 'I' for Inactive)
REMARK    1  A    between atoms: C_2  and  C_4
REMARK    2  A    between atoms: C_8  and  N_9
REMARK    3  A    between atoms: N_12  and  C_13
REMARK                            x       y       z     vdW  Elec       q    Type
REMARK                         _______ _______ _______ _____ _____    ______ ____
ROOT
ATOM      1  N   UNL     1       6.180   3.678  17.889  0.00  0.00    +0.000 N 
ATOM      2  C   UNL     1       4.890   3.902  18.357  0.00  0.00    +0.000 C 
ATOM      3  O   UNL     1       4.212   4.868  18.012  0.00  0.00    +0.000 OA
ATOM      4  N   UNL     1       4.473   2.923  19.242  0.00  0.00    +0.000 N 
ATOM      5  H   UNL     1       6.334   2.729  17.558  0.00  0.00    +0.000 HD
ATOM      6  H   UNL     1       5.210   2.402  19.699  0.00  0.00    +0.000 HD
ENDROOT
BRANCH   4   7
ATOM      7  C   UNL     1       3.174   2.837  19.800  0.00  0.00    +0.000 A 
ATOM      8  C   UNL     1       2.015   2.772  19.017  0.00  0.00    +0.000 A 
ATOM      9  C   UNL     1       0.750   2.702  19.606  0.00  0.00    +0.000 A 
ATOM     10  C   UNL     1       0.629   2.688  20.991  0.00  0.00    +0.000 A 
ATOM     11  C   UNL     1       1.773   2.736  21.782  0.00  0.00    +0.000 A 
ATOM     12  C   UNL     1       3.042   2.803  21.191  0.00  0.00    +0.000 A 
ENDBRANCH   4   7
BRANCH   1  17
ATOM     13  C   UNL     1       7.433   5.846  17.461  0.00  0.00    +0.000 A 
ATOM     14  N   UNL     1       7.876   6.599  16.367  0.00  0.00    +0.000 NA
ATOM     15  N   UNL     1       7.535   6.047  15.215  0.00  0.00    +0.000 NA
ATOM     16  S   UNL     1       6.690   4.617  15.406  0.00  0.00    +0.000 S 
ATOM     17  C   UNL     1       6.770   4.679  17.119  0.00  0.00    +0.000 A 
BRANCH  13  19
ATOM     18  N   UNL     1       8.433   7.447  18.901  0.00  0.00    +0.000 N 
ATOM     19  C   UNL     1       7.748   6.265  18.815  0.00  0.00    +0.000 C 
ATOM     20  O   UNL     1       7.455   5.614  19.813  0.00  0.00    +0.000 OA
ATOM     21  H   UNL     1       8.769   7.760  19.800  0.00  0.00    +0.000 HD
ATOM     22  H   UNL     1       8.734   7.931  18.063  0.00  0.00    +0.000 HD
ENDBRANCH  13  19
ENDBRANCH   1  17
TORSDOF 3
ENDMDL
MODEL 6
REMARK VINA RESULT:      -7.3      1.614      2.604
REMARK  Name = 
REMARK  3 active torsions:
REMARK  status: ('A' for Active; 'I' for Inactive)
REMARK    1  A    between atoms: C_2  and  C_4
REMARK    2  A    between atoms: C_8  and  N_9
REMARK    3  A    between atoms: N_12  and  C_13
REMARK                            x       y       z     vdW  Elec       q    Type
REMARK                         _______ _______ _______ _____ _____    ______ ____
ROOT
ATOM      1  N   UNL     1       5.452   3.093  16.282  0.00  0.00    +0.000 N 
ATOM      2  C   UNL     1       4.603   3.536  17.292  0.00  0.00    +0.000 C 
ATOM      3  O   UNL     1       4.436   4.726  17.550  0.00  0.00    +0.000 OA
ATOM      4  N   UNL     1       3.985   2.490  17.955  0.00  0.00    +0.000 N 
ATOM      5  H   UNL     1       5.027   2.406  15.666  0.00  0.00    +0.000 HD
ATOM      6  H   UNL     1       4.451   1.594  17.894  0.00  0.00    +0.000 HD
ENDROOT
BRANCH   4   7
ATOM      7  C   UNL     1       2.997   2.641  18.959  0.00  0.00    +0.000 A 
ATOM      8  C   UNL     1       1.635   2.784  18.667  0.00  0.00    +0.000 A 
ATOM      9  C   UNL     1       0.693   2.945  19.686  0.00  0.00    +0.000 A 
ATOM     10  C   UNL     1       1.102   2.956  21.015  0.00  0.00    +0.000 A 
ATOM     11  C   UNL     1       2.450   2.798  21.321  0.00  0.00    +0.000 A 
ATOM     12  C   UNL     1       3.395   2.634  20.299  0.00  0.00    +0.000 A 
ENDBRANCH   4   7
BRANCH   1  17
ATOM     13  C   UNL     1       6.504   4.309  14.315  0.00  0.00    +0.000 A 
ATOM     14  N   UNL     1       7.397   5.365  14.096  0.00  0.00    +0.000 NA
ATOM     15  N   UNL     1       7.848   5.877  15.228  0.00  0.00    +0.000 NA
ATOM     16  S   UNL     1       7.215   5.121  16.579  0.00  0.00    +0.000 S 
ATOM     17  C   UNL     1       6.253   4.043  15.651  0.00  0.00    +0.000 A 
BRANCH  13  19
ATOM     18  N   UNL     1       6.729   3.043  12.320  0.00  0.00    +0.000 N 
ATOM     19  C   UNL     1       5.864   3.644  13.194  0.00  0.00    +0.000 C 
ATOM     20  O   UNL     1       4.650   3.633  13.015  0.00  0.00    +0.000 OA
ATOM     21  H   UNL     1       6.368   2.639  11.468  0.00  0.00    +0.000 HD
ATOM     22  H   UNL     1       7.730   3.129  12.443  0.00  0.00    +0.000 HD
ENDBRANCH  13  19
ENDBRANCH   1  17
TORSDOF 3
ENDMDL
MODEL 7
REMARK VINA RESULT:      -7.3      1.750      2.976
REMARK  Name = 
REMARK  3 active torsions:
REMARK  status: ('A' for Active; 'I' for Inactive)
REMARK    1  A    between atoms: C_2  and  C_4
REMARK    2  A    between atoms: C_8  and  N_9
REMARK    3  A    between atoms: N_12  and  C_13
REMARK                            x       y       z     vdW  Elec       q    Type
REMARK                         _______ _______ _______ _____ _____    ______ ____
ROOT
ATOM      1  N   UNL     1       5.480   2.998  16.036  0.00  0.00    +0.000 N 
ATOM      2  C   UNL     1       4.627   3.478  17.023  0.00  0.00    +0.000 C 
ATOM      3  O   UNL     1       4.420   4.676  17.204  0.00  0.00    +0.000 OA
ATOM      4  N   UNL     1       4.052   2.458  17.762  0.00  0.00    +0.000 N 
ATOM      5  H   UNL     1       5.075   2.257  15.471  0.00  0.00    +0.000 HD
ATOM      6  H   UNL     1       4.549   1.577  17.755  0.00  0.00    +0.000 HD
ENDROOT
BRANCH   4   7
ATOM      7  C   UNL     1       3.069   2.642  18.766  0.00  0.00    +0.000 A 
ATOM      8  C   UNL     1       3.387   2.801  20.120  0.00  0.00    +0.000 A 
ATOM      9  C   UNL     1       2.387   2.965  21.081  0.00  0.00    +0.000 A 
ATOM     10  C   UNL     1       1.051   2.980  20.697  0.00  0.00    +0.000 A 
ATOM     11  C   UNL     1       0.720   2.839  19.353  0.00  0.00    +0.000 A 
ATOM     12  C   UNL     1       1.723   2.677  18.388  0.00  0.00    +0.000 A 
ENDBRANCH   4   7
BRANCH   1  17
ATOM     13  C   UNL     1       6.417   4.158  13.978  0.00  0.00    +0.000 A 
ATOM     14  N   UNL     1       7.292   5.209  13.678  0.00  0.00    +0.000 NA
ATOM     15  N   UNL     1       7.803   5.756  14.768  0.00  0.00    +0.000 NA
ATOM     16  S   UNL     1       7.248   5.040  16.173  0.00  0.00    +0.000 S 
ATOM     17  C   UNL     1       6.242   3.931  15.333  0.00  0.00    +0.000 A 
BRANCH  13  19
ATOM     18  N   UNL     1       6.489   2.560  12.223  0.00  0.00    +0.000 N 
ATOM     19  C   UNL     1       5.720   3.457  12.914  0.00  0.00    +0.000 C 
ATOM     20  O   UNL     1       4.543   3.657  12.627  0.00  0.00    +0.000 OA
ATOM     21  H   UNL     1       6.103   2.101  11.411  0.00  0.00    +0.000 HD
ATOM     22  H   UNL     1       7.477   2.466  12.424  0.00  0.00    +0.000 HD
ENDBRANCH  13  19
ENDBRANCH   1  17
TORSDOF 3
ENDMDL
MODEL 8
REMARK VINA RESULT:      -7.2      1.804      2.370
REMARK  Name = 
REMARK  3 active torsions:
REMARK  status: ('A' for Active; 'I' for Inactive)
REMARK    1  A    between atoms: C_2  and  C_4
REMARK    2  A    between atoms: C_8  and  N_9
REMARK    3  A    between atoms: N_12  and  C_13
REMARK                            x       y       z     vdW  Elec       q    Type
REMARK                         _______ _______ _______ _____ _____    ______ ____
ROOT
ATOM      1  N   UNL     1       6.312   4.030  18.163  0.00  0.00    +0.000 N 
ATOM      2  C   UNL     1       4.975   4.151  18.528  0.00  0.00    +0.000 C 
ATOM      3  O   UNL     1       4.281   5.117  18.216  0.00  0.00    +0.000 OA
ATOM      4  N   UNL     1       4.533   3.070  19.271  0.00  0.00    +0.000 N 
ATOM      5  H   UNL     1       6.543   3.128  17.758  0.00  0.00    +0.000 HD
ATOM      6  H   UNL     1       5.252   2.538  19.743  0.00  0.00    +0.000 HD
ENDROOT
BRANCH   4   7
ATOM      7  C   UNL     1       3.195   2.873  19.694  0.00  0.00    +0.000 A 
ATOM      8  C   UNL     1       2.146   2.623  18.802  0.00  0.00    +0.000 A 
ATOM      9  C   UNL     1       0.837   2.448  19.258  0.00  0.00    +0.000 A 
ATOM     10  C   UNL     1       0.562   2.513  20.619  0.00  0.00    +0.000 A 
ATOM     11  C   UNL     1       1.598   2.745  21.520  0.00  0.00    +0.000 A 
ATOM     12  C   UNL     1       2.911   2.917  21.063  0.00  0.00    +0.000 A 
ENDBRANCH   4   7
BRANCH   1  17
ATOM     13  C   UNL     1       7.172   5.430  16.225  0.00  0.00    +0.000 A 
ATOM     14  N   UNL     1       7.819   6.656  16.028  0.00  0.00    +0.000 NA
ATOM     15  N   UNL     1       8.083   7.267  17.170  0.00  0.00    +0.000 NA
ATOM     16  S   UNL     1       7.561   6.404  18.503  0.00  0.00    +0.000 S 
ATOM     17  C   UNL     1       6.915   5.129  17.552  0.00  0.00    +0.000 A 
BRANCH  13  19
ATOM     18  N   UNL     1       7.176   5.101  13.874  0.00  0.00    +0.000 N 
ATOM     19  C   UNL     1       6.757   4.628  15.089  0.00  0.00    +0.000 C 
ATOM     20  O   UNL     1       6.067   3.618  15.186  0.00  0.00    +0.000 OA
ATOM     21  H   UNL     1       6.852   4.652  13.030  0.00  0.00    +0.000 HD
ATOM     22  H   UNL     1       7.679   5.978  13.808  0.00  0.00    +0.000 HD
ENDBRANCH  13  19
ENDBRANCH   1  17
TORSDOF 3
ENDMDL
MODEL 9
REMARK VINA RESULT:      -7.2      1.076      1.431
REMARK  Name = 
REMARK  3 active torsions:
REMARK  status: ('A' for Active; 'I' for Inactive)
REMARK    1  A    between atoms: C_2  and  C_4
REMARK    2  A    between atoms: C_8  and  N_9
REMARK    3  A    between atoms: N_12  and  C_13
REMARK                            x       y       z     vdW  Elec       q    Type
REMARK                         _______ _______ _______ _____ _____    ______ ____
ROOT
ATOM      1  N   UNL     1       6.060   3.820  17.454  0.00  0.00    +0.000 N 
ATOM      2  C   UNL     1       4.704   4.011  17.700  0.00  0.00    +0.000 C 
ATOM      3  O   UNL     1       3.983   4.693  16.975  0.00  0.00    +0.000 OA
ATOM      4  N   UNL     1       4.278   3.350  18.839  0.00  0.00    +0.000 N 
ATOM      5  H   UNL     1       6.349   2.847  17.501  0.00  0.00    +0.000 HD
ATOM      6  H   UNL     1       4.999   3.129  19.514  0.00  0.00    +0.000 HD
ENDROOT
BRANCH   4   7
ATOM      7  C   UNL     1       2.934   3.283  19.280  0.00  0.00    +0.000 A 
ATOM      8  C   UNL     1       2.424   4.107  20.290  0.00  0.00    +0.000 A 
ATOM      9  C   UNL     1       1.095   4.000  20.707  0.00  0.00    +0.000 A 
ATOM     10  C   UNL     1       0.254   3.068  20.110  0.00  0.00    +0.000 A 
ATOM     11  C   UNL     1       0.741   2.252  19.094  0.00  0.00    +0.000 A 
ATOM     12  C   UNL     1       2.074   2.362  18.673  0.00  0.00    +0.000 A 
ENDBRANCH   4   7
BRANCH   1  17
ATOM     13  C   UNL     1       7.280   5.793  16.418  0.00  0.00    +0.000 A 
ATOM     14  N   UNL     1       7.720   6.202  15.153  0.00  0.00    +0.000 NA
ATOM     15  N   UNL     1       7.399   5.332  14.211  0.00  0.00    +0.000 NA
ATOM     16  S   UNL     1       6.577   4.004  14.807  0.00  0.00    +0.000 S 
ATOM     17  C   UNL     1       6.640   4.565  16.428  0.00  0.00    +0.000 A 
BRANCH  13  19
ATOM     18  N   UNL     1       7.619   7.943  17.364  0.00  0.00    +0.000 N 
ATOM     19  C   UNL     1       7.576   6.594  17.592  0.00  0.00    +0.000 C 
ATOM     20  O   UNL     1       7.796   6.117  18.701  0.00  0.00    +0.000 OA
ATOM     21  H   UNL     1       7.908   8.561  18.109  0.00  0.00    +0.000 HD
ATOM     22  H   UNL     1       7.511   8.312  16.427  0.00  0.00    +0.000 HD
ENDBRANCH  13  19
ENDBRANCH   1  17
TORSDOF 3
ENDMDL
