MODEL 1
REMARK VINA RESULT:      -7.1      0.000      0.000
REMARK  Name = 
REMARK  7 active torsions:
REMARK  status: ('A' for Active; 'I' for Inactive)
REMARK    1  A    between atoms: C_2  and  C_3
REMARK    2  A    between atoms: C_3  and  C_4
REMARK    3  A    between atoms: C_4  and  N_5
REMARK    4  A    between atoms: N_10  and  C_11
REMARK    5  A    between atoms: C_11  and  C_12
REMARK    6  A    between atoms: C_12  and  C_13
REMARK    7  A    between atoms: C_12  and  N_18
REMARK                            x       y       z     vdW  Elec       q    Type
REMARK                         _______ _______ _______ _____ _____    ______ ____
ROOT
ATOM      1  C   UNL     1       4.656   4.808  19.795  0.00  0.00    +0.000 C 
ENDROOT
BRANCH   1   4
ATOM      2  O   UNL     1       7.398   5.323  20.264  0.00  0.00    +0.000 OA
ATOM      3  C   UNL     1       6.931   5.561  19.159  0.00  0.00    +0.000 C 
ATOM      4  N   UNL     1       5.608   5.360  18.843  0.00  0.00    +0.000 N 
ATOM      5  H   UNL     1       5.295   5.537  17.896  0.00  0.00    +0.000 HD
BRANCH   3   6
ATOM      6  C   UNL     1       7.737   6.141  18.030  0.00  0.00    +0.000 C 
BRANCH   6   7
ATOM      7  C   UNL     1       6.805   6.733  16.986  0.00  0.00    +0.000 C 
BRANCH   7   8
ATOM      8  N   UNL     1       6.563   5.817  15.889  0.00  0.00    +0.000 N 
ATOM      9  C   UNL     1       5.365   5.272  15.526  0.00  0.00    +0.000 A 
ATOM     10  C   UNL     1       5.628   4.477  14.435  0.00  0.00    +0.000 A 
ATOM     11  C   UNL     1       7.009   4.610  14.220  0.00  0.00    +0.000 A 
ATOM     12  N   UNL     1       7.586   5.431  15.101  0.00  0.00    +0.000 NA
ENDBRANCH   7   8
ENDBRANCH   6   7
ENDBRANCH   3   6
ENDBRANCH   1   4
BRANCH   1  13
ATOM     13  C   UNL     1       3.151   4.967  19.397  0.00  0.00    +0.000 C 
BRANCH  13  14
ATOM     14  C   UNL     1       2.808   6.408  19.028  0.00  0.00    +0.000 A 
ATOM     15  C   UNL     1       3.111   7.126  17.885  0.00  0.00    +0.000 A 
ATOM     16  C   UNL     1       2.492   8.413  17.864  0.00  0.00    +0.000 A 
ATOM     17  C   UNL     1       1.775   8.659  19.010  0.00  0.00    +0.000 A 
ATOM     18  S   UNL     1       1.943   7.398  20.144  0.00  0.00    +0.000 S 
ENDBRANCH  13  14
BRANCH  13  19
ATOM     19  N   UNL     1       2.781   3.957  18.368  0.00  0.00    +0.000 NA
ATOM     20  C   UNL     1       1.372   3.848  17.997  0.00  0.00    +0.000 C 
ATOM     21  C   UNL     1       0.808   2.725  18.844  0.00  0.00    +0.000 C 
ATOM     22  C   UNL     1       1.983   1.780  19.027  0.00  0.00    +0.000 C 
ATOM     23  C   UNL     1       3.226   2.589  18.657  0.00  0.00    +0.000 C 
ENDBRANCH  13  19
ENDBRANCH   1  13
TORSDOF 7
ENDMDL
MODEL 2
REMARK VINA RESULT:      -7.0      1.969      2.433
REMARK  Name = 
REMARK  7 active torsions:
REMARK  status: ('A' for Active; 'I' for Inactive)
REMARK    1  A    between atoms: C_2  and  C_3
REMARK    2  A    between atoms: C_3  and  C_4
REMARK    3  A    between atoms: C_4  and  N_5
REMARK    4  A    between atoms: N_10  and  C_11
REMARK    5  A    between atoms: C_11  and  C_12
REMARK    6  A    between atoms: C_12  and  C_13
REMARK    7  A    between atoms: C_12  and  N_18
REMARK                            x       y       z     vdW  Elec       q    Type
REMARK                         _______ _______ _______ _____ _____    ______ ____
ROOT
ATOM      1  C   UNL     1       2.387   4.946  17.937  0.00  0.00    +0.000 C 
ENDROOT
BRANCH   1   4
ATOM      2  O   UNL     1       4.555   6.134  16.562  0.00  0.00    +0.000 OA
ATOM      3  C   UNL     1       4.619   4.950  16.858  0.00  0.00    +0.000 C 
ATOM      4  N   UNL     1       3.609   4.282  17.511  0.00  0.00    +0.000 N 
ATOM      5  H   UNL     1       3.744   3.311  17.765  0.00  0.00    +0.000 HD
BRANCH   3   6
ATOM      6  C   UNL     1       5.789   4.074  16.507  0.00  0.00    +0.000 C 
BRANCH   6   7
ATOM      7  C   UNL     1       6.899   4.917  15.901  0.00  0.00    +0.000 C 
BRANCH   7   8
ATOM      8  N   UNL     1       6.995   4.741  14.465  0.00  0.00    +0.000 N 
ATOM      9  C   UNL     1       6.305   3.844  13.702  0.00  0.00    +0.000 A 
ATOM     10  C   UNL     1       6.722   4.051  12.408  0.00  0.00    +0.000 A 
ATOM     11  C   UNL     1       7.662   5.091  12.497  0.00  0.00    +0.000 A 
ATOM     12  N   UNL     1       7.830   5.521  13.750  0.00  0.00    +0.000 NA
ENDBRANCH   7   8
ENDBRANCH   6   7
ENDBRANCH   3   6
ENDBRANCH   1   4
BRANCH   1  13
ATOM     13  C   UNL     1       2.472   5.663  19.326  0.00  0.00    +0.000 C 
BRANCH  13  14
ATOM     14  C   UNL     1       2.110   7.143  19.226  0.00  0.00    +0.000 A 
ATOM     15  C   UNL     1       2.219   8.012  18.155  0.00  0.00    +0.000 A 
ATOM     16  C   UNL     1       1.645   9.291  18.424  0.00  0.00    +0.000 A 
ATOM     17  C   UNL     1       1.158   9.378  19.706  0.00  0.00    +0.000 A 
ATOM     18  S   UNL     1       1.494   7.972  20.607  0.00  0.00    +0.000 S 
ENDBRANCH  13  14
BRANCH  13  19
ATOM     19  N   UNL     1       1.702   4.902  20.348  0.00  0.00    +0.000 NA
ATOM     20  C   UNL     1       2.450   4.280  21.438  0.00  0.00    +0.000 C 
ATOM     21  C   UNL     1       2.687   2.846  21.009  0.00  0.00    +0.000 C 
ATOM     22  C   UNL     1       1.469   2.510  20.167  0.00  0.00    +0.000 C 
ATOM     23  C   UNL     1       0.831   3.852  19.809  0.00  0.00    +0.000 C 
ENDBRANCH  13  19
ENDBRANCH   1  13
TORSDOF 7
ENDMDL
MODEL 3
REMARK VINA RESULT:      -6.9      0.780      1.028
REMARK  Name = 
REMARK  7 active torsions:
REMARK  status: ('A' for Active; 'I' for Inactive)
REMARK    1  A    between atoms: C_2  and  C_3
REMARK    2  A    between atoms: C_3  and  C_4
REMARK    3  A    between atoms: C_4  and  N_5
REMARK    4  A    between atoms: N_10  and  C_11
REMARK    5  A    between atoms: C_11  and  C_12
REMARK    6  A    between atoms: C_12  and  C_13
REMARK    7  A    between atoms: C_12  and  N_18
REMARK                            x       y       z     vdW  Elec       q    Type
REMARK                         _______ _______ _______ _____ _____    ______ ____
ROOT
ATOM      1  C   UNL     1       4.541   4.852  19.870  0.00  0.00    +0.000 C 
ENDROOT
BRANCH   1   4
ATOM      2  O   UNL     1       7.351   5.118  20.065  0.00  0.00    +0.000 OA
ATOM      3  C   UNL     1       6.768   5.660  19.138  0.00  0.00    +0.000 C 
ATOM      4  N   UNL     1       5.404   5.603  18.970  0.00  0.00    +0.000 N 
ATOM      5  H   UNL     1       4.988   6.038  18.156  0.00  0.00    +0.000 HD
BRANCH   3   6
ATOM      6  C   UNL     1       7.465   6.491  18.097  0.00  0.00    +0.000 C 
BRANCH   6   7
ATOM      7  C   UNL     1       6.477   6.896  17.015  0.00  0.00    +0.000 C 
BRANCH   7   8
ATOM      8  N   UNL     1       6.378   5.900  15.967  0.00  0.00    +0.000 N 
ATOM      9  C   UNL     1       5.240   5.297  15.515  0.00  0.00    +0.000 A 
ATOM     10  C   UNL     1       5.640   4.437  14.519  0.00  0.00    +0.000 A 
ATOM     11  C   UNL     1       7.033   4.595  14.447  0.00  0.00    +0.000 A 
ATOM     12  N   UNL     1       7.490   5.491  15.325  0.00  0.00    +0.000 NA
ENDBRANCH   7   8
ENDBRANCH   6   7
ENDBRANCH   3   6
ENDBRANCH   1   4
BRANCH   1  13
ATOM     13  C   UNL     1       3.019   4.886  19.512  0.00  0.00    +0.000 C 
BRANCH  13  14
ATOM     14  C   UNL     1       2.468   6.309  19.497  0.00  0.00    +0.000 A 
ATOM     15  C   UNL     1       1.853   7.032  20.504  0.00  0.00    +0.000 A 
ATOM     16  C   UNL     1       1.600   8.388  20.133  0.00  0.00    +0.000 A 
ATOM     17  C   UNL     1       1.984   8.648  18.840  0.00  0.00    +0.000 A 
ATOM     18  S   UNL     1       2.536   7.243  18.049  0.00  0.00    +0.000 S 
ENDBRANCH  13  14
BRANCH  13  19
ATOM     19  N   UNL     1       2.764   4.108  18.268  0.00  0.00    +0.000 NA
ATOM     20  C   UNL     1       1.414   3.595  18.051  0.00  0.00    +0.000 C 
ATOM     21  C   UNL     1       1.428   2.168  18.561  0.00  0.00    +0.000 C 
ATOM     22  C   UNL     1       2.848   1.700  18.297  0.00  0.00    +0.000 C 
ATOM     23  C   UNL     1       3.665   2.969  18.057  0.00  0.00    +0.000 C 
ENDBRANCH  13  19
ENDBRANCH   1  13
TORSDOF 7
ENDMDL
MODEL 4
REMARK VINA RESULT:      -6.9      1.554      2.030
REMARK  Name = 
REMARK  7 active torsions:
REMARK  status: ('A' for Active; 'I' for Inactive)
REMARK    1  A    between atoms: C_2  and  C_3
REMARK    2  A    between atoms: C_3  and  C_4
REMARK    3  A    between atoms: C_4  and  N_5
REMARK    4  A    between atoms: N_10  and  C_11
REMARK    5  A    between atoms: C_11  and  C_12
REMARK    6  A    between atoms: C_12  and  C_13
REMARK    7  A    between atoms: C_12  and  N_18
REMARK                            x       y       z     vdW  Elec       q    Type
REMARK                         _______ _______ _______ _____ _____    ______ ____
ROOT
ATOM      1  C   UNL     1       3.746   6.522  17.856  0.00  0.00    +0.000 C 
ENDROOT
BRANCH   1   4
ATOM      2  O   UNL     1       6.074   7.616  16.679  0.00  0.00    +0.000 OA
ATOM      3  C   UNL     1       6.187   6.675  17.450  0.00  0.00    +0.000 C 
ATOM      4  N   UNL     1       5.113   6.065  18.056  0.00  0.00    +0.000 N 
ATOM      5  H   UNL     1       5.280   5.317  18.719  0.00  0.00    +0.000 HD
BRANCH   3   6
ATOM      6  C   UNL     1       7.507   6.043  17.792  0.00  0.00    +0.000 C 
BRANCH   6   7
ATOM      7  C   UNL     1       7.524   4.599  17.318  0.00  0.00    +0.000 C 
BRANCH   7   8
ATOM      8  N   UNL     1       7.084   4.472  15.943  0.00  0.00    +0.000 N 
ATOM      9  C   UNL     1       6.064   3.693  15.478  0.00  0.00    +0.000 A 
ATOM     10  C   UNL     1       6.018   3.903  14.120  0.00  0.00    +0.000 A 
ATOM     11  C   UNL     1       7.048   4.822  13.865  0.00  0.00    +0.000 A 
ATOM     12  N   UNL     1       7.700   5.178  14.974  0.00  0.00    +0.000 NA
ENDBRANCH   7   8
ENDBRANCH   6   7
ENDBRANCH   3   6
ENDBRANCH   1   4
BRANCH   1  13
ATOM     13  C   UNL     1       2.855   6.531  19.143  0.00  0.00    +0.000 C 
BRANCH  13  14
ATOM     14  C   UNL     1       2.083   7.839  19.291  0.00  0.00    +0.000 A 
ATOM     15  C   UNL     1       1.846   8.839  18.364  0.00  0.00    +0.000 A 
ATOM     16  C   UNL     1       0.961   9.846  18.856  0.00  0.00    +0.000 A 
ATOM     17  C   UNL     1       0.585   9.612  20.157  0.00  0.00    +0.000 A 
ATOM     18  S   UNL     1       1.384   8.257  20.812  0.00  0.00    +0.000 S 
ENDBRANCH  13  14
BRANCH  13  19
ATOM     19  N   UNL     1       2.015   5.303  19.197  0.00  0.00    +0.000 NA
ATOM     20  C   UNL     1       2.306   4.325  20.242  0.00  0.00    +0.000 C 
ATOM     21  C   UNL     1       3.212   3.293  19.601  0.00  0.00    +0.000 C 
ATOM     22  C   UNL     1       2.764   3.265  18.150  0.00  0.00    +0.000 C 
ATOM     23  C   UNL     1       1.951   4.543  17.944  0.00  0.00    +0.000 C 
ENDBRANCH  13  19
ENDBRANCH   1  13
TORSDOF 7
ENDMDL
MODEL 5
REMARK VINA RESULT:      -6.8      3.592      6.230
REMARK  Name = 
REMARK  7 active torsions:
REMARK  status: ('A' for Active; 'I' for Inactive)
REMARK    1  A    between atoms: C_2  and  C_3
REMARK    2  A    between atoms: C_3  and  C_4
REMARK    3  A    between atoms: C_4  and  N_5
REMARK    4  A    between atoms: N_10  and  C_11
REMARK    5  A    between atoms: C_11  and  C_12
REMARK    6  A    between atoms: C_12  and  C_13
REMARK    7  A    between atoms: C_12  and  N_18
REMARK                            x       y       z     vdW  Elec       q    Type
REMARK                         _______ _______ _______ _____ _____    ______ ____
ROOT
ATOM      1  C   UNL     1       3.237   5.825  19.026  0.00  0.00    +0.000 C 
ENDROOT
BRANCH   1   4
ATOM      2  O   UNL     1       1.828   8.066  20.026  0.00  0.00    +0.000 OA
ATOM      3  C   UNL     1       2.103   8.021  18.835  0.00  0.00    +0.000 C 
ATOM      4  N   UNL     1       2.768   6.967  18.255  0.00  0.00    +0.000 N 
ATOM      5  H   UNL     1       3.003   7.013  17.271  0.00  0.00    +0.000 HD
BRANCH   3   6
ATOM      6  C   UNL     1       1.707   9.092  17.857  0.00  0.00    +0.000 C 
BRANCH   6   7
ATOM      7  C   UNL     1       1.309  10.352  18.608  0.00  0.00    +0.000 C 
BRANCH   7   8
ATOM      8  N   UNL     1      -0.095  10.668  18.436  0.00  0.00    +0.000 N 
ATOM      9  C   UNL     1      -1.017   9.948  17.733  0.00  0.00    +0.000 A 
ATOM     10  C   UNL     1      -2.204  10.630  17.858  0.00  0.00    +0.000 A 
ATOM     11  C   UNL     1      -1.894  11.745  18.653  0.00  0.00    +0.000 A 
ATOM     12  N   UNL     1      -0.609  11.772  19.014  0.00  0.00    +0.000 NA
ENDBRANCH   7   8
ENDBRANCH   6   7
ENDBRANCH   3   6
ENDBRANCH   1   4
BRANCH   1  13
ATOM     13  C   UNL     1       3.404   4.499  18.213  0.00  0.00    +0.000 C 
BRANCH  13  14
ATOM     14  C   UNL     1       4.758   4.427  17.511  0.00  0.00    +0.000 A 
ATOM     15  C   UNL     1       5.069   4.019  16.226  0.00  0.00    +0.000 A 
ATOM     16  C   UNL     1       6.444   4.227  15.901  0.00  0.00    +0.000 A 
ATOM     17  C   UNL     1       7.152   4.742  16.960  0.00  0.00    +0.000 A 
ATOM     18  S   UNL     1       6.192   4.863  18.363  0.00  0.00    +0.000 S 
ENDBRANCH  13  14
BRANCH  13  19
ATOM     19  N   UNL     1       3.085   3.324  19.070  0.00  0.00    +0.000 NA
ATOM     20  C   UNL     1       2.326   2.231  18.470  0.00  0.00    +0.000 C 
ATOM     21  C   UNL     1       0.877   2.487  18.833  0.00  0.00    +0.000 C 
ATOM     22  C   UNL     1       0.955   3.171  20.186  0.00  0.00    +0.000 C 
ATOM     23  C   UNL     1       2.401   3.645  20.327  0.00  0.00    +0.000 C 
ENDBRANCH  13  19
ENDBRANCH   1  13
TORSDOF 7
ENDMDL
MODEL 6
REMARK VINA RESULT:      -6.8      3.043      5.979
REMARK  Name = 
REMARK  7 active torsions:
REMARK  status: ('A' for Active; 'I' for Inactive)
REMARK    1  A    between atoms: C_2  and  C_3
REMARK    2  A    between atoms: C_3  and  C_4
REMARK    3  A    between atoms: C_4  and  N_5
REMARK    4  A    between atoms: N_10  and  C_11
REMARK    5  A    between atoms: C_11  and  C_12
REMARK    6  A    between atoms: C_12  and  C_13
REMARK    7  A    between atoms: C_12  and  N_18
REMARK                            x       y       z     vdW  Elec       q    Type
REMARK                         _______ _______ _______ _____ _____    ______ ____
ROOT
ATOM      1  C   UNL     1       3.447   5.811  19.412  0.00  0.00    +0.000 C 
ENDROOT
BRANCH   1   4
ATOM      2  O   UNL     1       3.765   7.736  17.363  0.00  0.00    +0.000 OA
ATOM      3  C   UNL     1       2.719   7.711  17.994  0.00  0.00    +0.000 C 
ATOM      4  N   UNL     1       2.479   6.824  19.019  0.00  0.00    +0.000 N 
ATOM      5  H   UNL     1       1.574   6.828  19.472  0.00  0.00    +0.000 HD
BRANCH   3   6
ATOM      6  C   UNL     1       1.588   8.672  17.756  0.00  0.00    +0.000 C 
BRANCH   6   7
ATOM      7  C   UNL     1       1.828   9.952  18.540  0.00  0.00    +0.000 C 
BRANCH   7   8
ATOM      8  N   UNL     1       0.925  10.079  19.667  0.00  0.00    +0.000 N 
ATOM      9  C   UNL     1       0.152  11.159  19.980  0.00  0.00    +0.000 A 
ATOM     10  C   UNL     1      -0.533  10.815  21.121  0.00  0.00    +0.000 A 
ATOM     11  C   UNL     1      -0.105   9.511  21.416  0.00  0.00    +0.000 A 
ATOM     12  N   UNL     1       0.782   9.053  20.529  0.00  0.00    +0.000 NA
ENDBRANCH   7   8
ENDBRANCH   6   7
ENDBRANCH   3   6
ENDBRANCH   1   4
BRANCH   1  13
ATOM     13  C   UNL     1       3.448   4.517  18.532  0.00  0.00    +0.000 C 
BRANCH  13  14
ATOM     14  C   UNL     1       4.715   4.401  17.690  0.00  0.00    +0.000 A 
ATOM     15  C   UNL     1       4.879   3.946  16.393  0.00  0.00    +0.000 A 
ATOM     16  C   UNL     1       6.213   4.121  15.914  0.00  0.00    +0.000 A 
ATOM     17  C   UNL     1       7.038   4.659  16.871  0.00  0.00    +0.000 A 
ATOM     18  S   UNL     1       6.240   4.842  18.365  0.00  0.00    +0.000 S 
ENDBRANCH  13  14
BRANCH  13  19
ATOM     19  N   UNL     1       3.146   3.324  19.369  0.00  0.00    +0.000 NA
ATOM     20  C   UNL     1       2.351   2.255  18.769  0.00  0.00    +0.000 C 
ATOM     21  C   UNL     1       0.920   2.518  19.191  0.00  0.00    +0.000 C 
ATOM     22  C   UNL     1       1.055   3.165  20.558  0.00  0.00    +0.000 C 
ATOM     23  C   UNL     1       2.511   3.619  20.659  0.00  0.00    +0.000 C 
ENDBRANCH  13  19
ENDBRANCH   1  13
TORSDOF 7
ENDMDL
MODEL 7
REMARK VINA RESULT:      -6.8      3.488      6.495
REMARK  Name = 
REMARK  7 active torsions:
REMARK  status: ('A' for Active; 'I' for Inactive)
REMARK    1  A    between atoms: C_2  and  C_3
REMARK    2  A    between atoms: C_3  and  C_4
REMARK    3  A    between atoms: C_4  and  N_5
REMARK    4  A    between atoms: N_10  and  C_11
REMARK    5  A    between atoms: C_11  and  C_12
REMARK    6  A    between atoms: C_12  and  C_13
REMARK    7  A    between atoms: C_12  and  N_18
REMARK                            x       y       z     vdW  Elec       q    Type
REMARK                         _______ _______ _______ _____ _____    ______ ____
ROOT
ATOM      1  C   UNL     1       3.740   5.441  19.762  0.00  0.00    +0.000 C 
ENDROOT
BRANCH   1   4
ATOM      2  O   UNL     1       3.091   7.633  18.095  0.00  0.00    +0.000 OA
ATOM      3  C   UNL     1       2.488   7.491  19.149  0.00  0.00    +0.000 C 
ATOM      4  N   UNL     1       2.745   6.468  20.032  0.00  0.00    +0.000 N 
ATOM      5  H   UNL     1       2.179   6.383  20.868  0.00  0.00    +0.000 HD
BRANCH   3   6
ATOM      6  C   UNL     1       1.425   8.442  19.626  0.00  0.00    +0.000 C 
BRANCH   6   7
ATOM      7  C   UNL     1       1.173   8.228  21.110  0.00  0.00    +0.000 C 
BRANCH   7   8
ATOM      8  N   UNL     1       0.354   9.279  21.681  0.00  0.00    +0.000 N 
ATOM      9  C   UNL     1      -0.071   9.375  22.974  0.00  0.00    +0.000 A 
ATOM     10  C   UNL     1      -0.809  10.533  23.043  0.00  0.00    +0.000 A 
ATOM     11  C   UNL     1      -0.770  11.061  21.743  0.00  0.00    +0.000 A 
ATOM     12  N   UNL     1      -0.057  10.303  20.906  0.00  0.00    +0.000 NA
ENDBRANCH   7   8
ENDBRANCH   6   7
ENDBRANCH   3   6
ENDBRANCH   1   4
BRANCH   1  13
ATOM     13  C   UNL     1       3.418   4.510  18.546  0.00  0.00    +0.000 C 
BRANCH  13  14
ATOM     14  C   UNL     1       4.613   4.366  17.607  0.00  0.00    +0.000 A 
ATOM     15  C   UNL     1       4.666   3.898  16.305  0.00  0.00    +0.000 A 
ATOM     16  C   UNL     1       5.961   4.047  15.721  0.00  0.00    +0.000 A 
ATOM     17  C   UNL     1       6.868   4.577  16.605  0.00  0.00    +0.000 A 
ATOM     18  S   UNL     1       6.193   4.785  18.156  0.00  0.00    +0.000 S 
ENDBRANCH  13  14
BRANCH  13  19
ATOM     19  N   UNL     1       2.840   3.222  19.020  0.00  0.00    +0.000 NA
ATOM     20  C   UNL     1       1.415   2.994  18.797  0.00  0.00    +0.000 C 
ATOM     21  C   UNL     1       0.726   3.409  20.081  0.00  0.00    +0.000 C 
ATOM     22  C   UNL     1       1.744   3.093  21.162  0.00  0.00    +0.000 C 
ATOM     23  C   UNL     1       3.078   2.923  20.436  0.00  0.00    +0.000 C 
ENDBRANCH  13  19
ENDBRANCH   1  13
TORSDOF 7
ENDMDL
MODEL 8
REMARK VINA RESULT:      -6.7      3.494      7.094
REMARK  Name = 
REMARK  7 active torsions:
REMARK  status: ('A' for Active; 'I' for Inactive)
REMARK    1  A    between atoms: C_2  and  C_3
REMARK    2  A    between atoms: C_3  and  C_4
REMARK    3  A    between atoms: C_4  and  N_5
REMARK    4  A    between atoms: N_10  and  C_11
REMARK    5  A    between atoms: C_11  and  C_12
REMARK    6  A    between atoms: C_12  and  C_13
REMARK    7  A    between atoms: C_12  and  N_18
REMARK                            x       y       z     vdW  Elec       q    Type
REMARK                         _______ _______ _______ _____ _____    ______ ____
ROOT
ATOM      1  C   UNL     1       3.390   7.510  17.737  0.00  0.00    +0.000 C 
ENDROOT
BRANCH   1   4
ATOM      2  O   UNL     1       2.454  10.167  17.483  0.00  0.00    +0.000 OA
ATOM      3  C   UNL     1       1.786   9.362  18.115  0.00  0.00    +0.000 C 
ATOM      4  N   UNL     1       2.167   8.055  18.307  0.00  0.00    +0.000 N 
ATOM      5  H   UNL     1       1.546   7.428  18.805  0.00  0.00    +0.000 HD
BRANCH   3   6
ATOM      6  C   UNL     1       0.492   9.716  18.793  0.00  0.00    +0.000 C 
BRANCH   6   7
ATOM      7  C   UNL     1       0.737  10.795  19.835  0.00  0.00    +0.000 C 
BRANCH   7   8
ATOM      8  N   UNL     1       0.145  10.461  21.116  0.00  0.00    +0.000 N 
ATOM      9  C   UNL     1      -0.457  11.320  21.989  0.00  0.00    +0.000 A 
ATOM     10  C   UNL     1      -0.866  10.551  23.053  0.00  0.00    +0.000 A 
ATOM     11  C   UNL     1      -0.465   9.246  22.726  0.00  0.00    +0.000 A 
ATOM     12  N   UNL     1       0.148   9.183  21.542  0.00  0.00    +0.000 NA
ENDBRANCH   7   8
ENDBRANCH   6   7
ENDBRANCH   3   6
ENDBRANCH   1   4
BRANCH   1  13
ATOM     13  C   UNL     1       3.920   6.208  18.425  0.00  0.00    +0.000 C 
BRANCH  13  14
ATOM     14  C   UNL     1       2.799   5.210  18.698  0.00  0.00    +0.000 A 
ATOM     15  C   UNL     1       2.081   4.421  17.817  0.00  0.00    +0.000 A 
ATOM     16  C   UNL     1       1.200   3.515  18.483  0.00  0.00    +0.000 A 
ATOM     17  C   UNL     1       1.235   3.670  19.847  0.00  0.00    +0.000 A 
ATOM     18  S   UNL     1       2.232   4.973  20.310  0.00  0.00    +0.000 S 
ENDBRANCH  13  14
BRANCH  13  19
ATOM     19  N   UNL     1       5.074   5.655  17.663  0.00  0.00    +0.000 NA
ATOM     20  C   UNL     1       6.051   4.854  18.396  0.00  0.00    +0.000 C 
ATOM     21  C   UNL     1       7.167   5.809  18.771  0.00  0.00    +0.000 C 
ATOM     22  C   UNL     1       7.186   6.814  17.634  0.00  0.00    +0.000 C 
ATOM     23  C   UNL     1       5.850   6.647  16.911  0.00  0.00    +0.000 C 
ENDBRANCH  13  19
ENDBRANCH   1  13
TORSDOF 7
ENDMDL
MODEL 9
REMARK VINA RESULT:      -6.7      3.803      7.002
REMARK  Name = 
REMARK  7 active torsions:
REMARK  status: ('A' for Active; 'I' for Inactive)
REMARK    1  A    between atoms: C_2  and  C_3
REMARK    2  A    between atoms: C_3  and  C_4
REMARK    3  A    between atoms: C_4  and  N_5
REMARK    4  A    between atoms: N_10  and  C_11
REMARK    5  A    between atoms: C_11  and  C_12
REMARK    6  A    between atoms: C_12  and  C_13
REMARK    7  A    between atoms: C_12  and  N_18
REMARK                            x       y       z     vdW  Elec       q    Type
REMARK                         _______ _______ _______ _____ _____    ______ ____
ROOT
ATOM      1  C   UNL     1       3.119   7.161  18.057  0.00  0.00    +0.000 C 
ENDROOT
BRANCH   1   4
ATOM      2  O   UNL     1       2.067   9.705  17.407  0.00  0.00    +0.000 OA
ATOM      3  C   UNL     1       1.670   9.141  18.416  0.00  0.00    +0.000 C 
ATOM      4  N   UNL     1       2.136   7.912  18.823  0.00  0.00    +0.000 N 
ATOM      5  H   UNL     1       1.734   7.480  19.646  0.00  0.00    +0.000 HD
BRANCH   3   6
ATOM      6  C   UNL     1       0.661   9.741  19.355  0.00  0.00    +0.000 C 
BRANCH   6   7
ATOM      7  C   UNL     1       0.082  11.007  18.745  0.00  0.00    +0.000 C 
BRANCH   7   8
ATOM      8  N   UNL     1      -1.271  10.811  18.264  0.00  0.00    +0.000 N 
ATOM      9  C   UNL     1      -2.388  11.488  18.660  0.00  0.00    +0.000 A 
ATOM     10  C   UNL     1      -3.426  10.963  17.928  0.00  0.00    +0.000 A 
ATOM     11  C   UNL     1      -2.834   9.979  17.122  0.00  0.00    +0.000 A 
ATOM     12  N   UNL     1      -1.517   9.884  17.317  0.00  0.00    +0.000 NA
ENDBRANCH   7   8
ENDBRANCH   6   7
ENDBRANCH   3   6
ENDBRANCH   1   4
BRANCH   1  13
ATOM     13  C   UNL     1       3.803   5.984  18.829  0.00  0.00    +0.000 C 
BRANCH  13  14
ATOM     14  C   UNL     1       2.783   4.978  19.354  0.00  0.00    +0.000 A 
ATOM     15  C   UNL     1       2.326   4.770  20.645  0.00  0.00    +0.000 A 
ATOM     16  C   UNL     1       1.264   3.817  20.705  0.00  0.00    +0.000 A 
ATOM     17  C   UNL     1       0.973   3.291  19.470  0.00  0.00    +0.000 A 
ATOM     18  S   UNL     1       2.046   3.855  18.273  0.00  0.00    +0.000 S 
ENDBRANCH  13  14
BRANCH  13  19
ATOM     19  N   UNL     1       4.893   5.392  18.006  0.00  0.00    +0.000 NA
ATOM     20  C   UNL     1       5.952   4.665  18.702  0.00  0.00    +0.000 C 
ATOM     21  C   UNL     1       7.076   5.662  18.898  0.00  0.00    +0.000 C 
ATOM     22  C   UNL     1       6.967   6.578  17.692  0.00  0.00    +0.000 C 
ATOM     23  C   UNL     1       5.574   6.335  17.112  0.00  0.00    +0.000 C 
ENDBRANCH  13  19
ENDBRANCH   1  13
TORSDOF 7
ENDMDL
