MODEL 1
REMARK VINA RESULT:      -8.8      0.000      0.000
REMARK  Name = 
REMARK  7 active torsions:
REMARK  status: ('A' for Active; 'I' for Inactive)
REMARK    1  A    between atoms: C_2  and  C_4
REMARK    2  A    between atoms: C_9  and  O_10
REMARK    3  A    between atoms: O_10  and  C_11
REMARK    4  A    between atoms: C_11  and  C_12
REMARK    5  A    between atoms: C_14  and  C_15
REMARK    6  A    between atoms: C_18  and  O_19
REMARK    7  A    between atoms: O_19  and  C_20
REMARK                            x       y       z     vdW  Elec       q    Type
REMARK                         _______ _______ _______ _____ _____    ______ ____
ROOT
ATOM      1  C   UNL     1       7.520   7.595  17.575  0.00  0.00    +0.000 A 
ATOM      2  N   UNL     1       6.335   7.228  18.036  0.00  0.00    +0.000 NA
ATOM      3  C   UNL     1       5.899   6.261  17.134  0.00  0.00    +0.000 A 
ATOM      4  C   UNL     1       6.885   6.057  16.181  0.00  0.00    +0.000 A 
ATOM      5 CL   UNL     1       6.999   4.914  14.901  0.00  0.00    +0.000 Cl
ATOM      6  O   UNL     1       7.907   6.925  16.449  0.00  0.00    +0.000 OA
ENDROOT
BRANCH   3   7
ATOM      7  C   UNL     1       4.631   5.541  17.272  0.00  0.00    +0.000 A 
ATOM      8  C   UNL     1       4.467   4.228  16.813  0.00  0.00    +0.000 A 
ATOM      9  C   UNL     1       3.268   3.532  17.027  0.00  0.00    +0.000 A 
ATOM     10  C   UNL     1       2.194   4.129  17.687  0.00  0.00    +0.000 A 
ATOM     11  C   UNL     1       2.314   5.463  18.072  0.00  0.00    +0.000 A 
ATOM     12  C   UNL     1       3.525   6.158  17.877  0.00  0.00    +0.000 A 
BRANCH  10  13
ATOM     13  O   UNL     1       1.095   3.341  17.808  0.00  0.00    +0.000 OA
BRANCH  13  14
ATOM     14  C   UNL     1       0.879   2.583  18.989  0.00  0.00    +0.000 C 
ATOM     15  F   UNL     1       0.355   3.284  20.016  0.00  0.00    +0.000 F 
ATOM     16  F   UNL     1       0.057   1.549  18.706  0.00  0.00    +0.000 F 
ATOM     17  F   UNL     1       2.064   2.074  19.398  0.00  0.00    +0.000 F 
ENDBRANCH  13  14
ENDBRANCH  10  13
ENDBRANCH   3   7
BRANCH   1  18
ATOM     18  C   UNL     1       8.558   8.500  18.167  0.00  0.00    +0.000 C 
BRANCH  18  19
ATOM     19  O   UNL     1       8.139   9.859  18.003  0.00  0.00    +0.000 OA
BRANCH  19  25
ATOM     20  C   UNL     1       9.589  13.196  18.456  0.00  0.00    +0.000 A 
ATOM     21  C   UNL     1      10.401  12.996  19.576  0.00  0.00    +0.000 A 
ATOM     22  F   UNL     1      11.140  13.986  20.096  0.00  0.00    +0.000 F 
ATOM     23  C   UNL     1      10.472  11.748  20.194  0.00  0.00    +0.000 A 
ATOM     24  C   UNL     1       9.730  10.670  19.705  0.00  0.00    +0.000 A 
ATOM     25  C   UNL     1       8.913  10.837  18.585  0.00  0.00    +0.000 A 
ATOM     26  C   UNL     1       8.855  12.104  17.973  0.00  0.00    +0.000 A 
ATOM     27  F   UNL     1       8.064  12.246  16.894  0.00  0.00    +0.000 F 
BRANCH  20  29
ATOM     28  N   UNL     1       8.330  15.196  17.809  0.00  0.00    +0.000 N 
ATOM     29  C   UNL     1       9.531  14.543  17.828  0.00  0.00    +0.000 C 
ATOM     30  O   UNL     1      10.513  15.083  17.334  0.00  0.00    +0.000 OA
ATOM     31  H   UNL     1       8.299  16.114  17.385  0.00  0.00    +0.000 HD
ATOM     32  H   UNL     1       7.479  14.813  18.201  0.00  0.00    +0.000 HD
ENDBRANCH  20  29
ENDBRANCH  19  25
ENDBRANCH  18  19
ENDBRANCH   1  18
TORSDOF 7
ENDMDL
MODEL 2
REMARK VINA RESULT:      -8.7      6.582      8.185
REMARK  Name = 
REMARK  7 active torsions:
REMARK  status: ('A' for Active; 'I' for Inactive)
REMARK    1  A    between atoms: C_2  and  C_4
REMARK    2  A    between atoms: C_9  and  O_10
REMARK    3  A    between atoms: O_10  and  C_11
REMARK    4  A    between atoms: C_11  and  C_12
REMARK    5  A    between atoms: C_14  and  C_15
REMARK    6  A    between atoms: C_18  and  O_19
REMARK    7  A    between atoms: O_19  and  C_20
REMARK                            x       y       z     vdW  Elec       q    Type
REMARK                         _______ _______ _______ _____ _____    ______ ____
ROOT
ATOM      1  C   UNL     1       2.474   6.399  19.498  0.00  0.00    +0.000 A 
ATOM      2  N   UNL     1       3.452   6.502  18.612  0.00  0.00    +0.000 NA
ATOM      3  C   UNL     1       3.510   5.246  18.015  0.00  0.00    +0.000 A 
ATOM      4  C   UNL     1       2.512   4.447  18.550  0.00  0.00    +0.000 A 
ATOM      5 CL   UNL     1       1.990   2.861  18.135  0.00  0.00    +0.000 Cl
ATOM      6  O   UNL     1       1.868   5.175  19.512  0.00  0.00    +0.000 OA
ENDROOT
BRANCH   3   7
ATOM      7  C   UNL     1       4.438   4.908  16.934  0.00  0.00    +0.000 A 
ATOM      8  C   UNL     1       4.825   3.587  16.670  0.00  0.00    +0.000 A 
ATOM      9  C   UNL     1       5.652   3.280  15.580  0.00  0.00    +0.000 A 
ATOM     10  C   UNL     1       6.131   4.280  14.733  0.00  0.00    +0.000 A 
ATOM     11  C   UNL     1       5.825   5.605  15.035  0.00  0.00    +0.000 A 
ATOM     12  C   UNL     1       4.977   5.915  16.117  0.00  0.00    +0.000 A 
BRANCH  10  13
ATOM     13  O   UNL     1       6.933   3.835  13.730  0.00  0.00    +0.000 OA
BRANCH  13  14
ATOM     14  C   UNL     1       6.415   3.659  12.419  0.00  0.00    +0.000 C 
ATOM     15  F   UNL     1       5.075   3.775  12.327  0.00  0.00    +0.000 F 
ATOM     16  F   UNL     1       6.987   4.562  11.594  0.00  0.00    +0.000 F 
ATOM     17  F   UNL     1       6.755   2.423  11.986  0.00  0.00    +0.000 F 
ENDBRANCH  13  14
ENDBRANCH  10  13
ENDBRANCH   3   7
BRANCH   1  18
ATOM     18  C   UNL     1       1.831   7.440  20.364  0.00  0.00    +0.000 C 
BRANCH  18  19
ATOM     19  O   UNL     1       1.655   8.638  19.599  0.00  0.00    +0.000 OA
BRANCH  19  25
ATOM     20  C   UNL     1      -1.004  11.157  19.431  0.00  0.00    +0.000 A 
ATOM     21  C   UNL     1      -1.145  11.501  20.778  0.00  0.00    +0.000 A 
ATOM     22  F   UNL     1      -2.034  12.420  21.181  0.00  0.00    +0.000 F 
ATOM     23  C   UNL     1      -0.359  10.895  21.757  0.00  0.00    +0.000 A 
ATOM     24  C   UNL     1       0.588   9.929  21.410  0.00  0.00    +0.000 A 
ATOM     25  C   UNL     1       0.757   9.567  20.072  0.00  0.00    +0.000 A 
ATOM     26  C   UNL     1      -0.044  10.192  19.097  0.00  0.00    +0.000 A 
ATOM     27  F   UNL     1       0.133   9.832  17.813  0.00  0.00    +0.000 F 
BRANCH  20  29
ATOM     28  N   UNL     1      -1.272  12.657  17.512  0.00  0.00    +0.000 N 
ATOM     29  C   UNL     1      -1.865  11.818  18.415  0.00  0.00    +0.000 C 
ATOM     30  O   UNL     1      -3.075  11.638  18.357  0.00  0.00    +0.000 OA
ATOM     31  H   UNL     1      -1.863  13.099  16.820  0.00  0.00    +0.000 HD
ATOM     32  H   UNL     1      -0.278  12.850  17.497  0.00  0.00    +0.000 HD
ENDBRANCH  20  29
ENDBRANCH  19  25
ENDBRANCH  18  19
ENDBRANCH   1  18
TORSDOF 7
ENDMDL
MODEL 3
REMARK VINA RESULT:      -8.6      1.283      1.502
REMARK  Name = 
REMARK  7 active torsions:
REMARK  status: ('A' for Active; 'I' for Inactive)
REMARK    1  A    between atoms: C_2  and  C_4
REMARK    2  A    between atoms: C_9  and  O_10
REMARK    3  A    between atoms: O_10  and  C_11
REMARK    4  A    between atoms: C_11  and  C_12
REMARK    5  A    between atoms: C_14  and  C_15
REMARK    6  A    between atoms: C_18  and  O_19
REMARK    7  A    between atoms: O_19  and  C_20
REMARK                            x       y       z     vdW  Elec       q    Type
REMARK                         _______ _______ _______ _____ _____    ______ ____
ROOT
ATOM      1  C   UNL     1       7.775   8.111  17.636  0.00  0.00    +0.000 A 
ATOM      2  N   UNL     1       6.586   7.701  17.222  0.00  0.00    +0.000 NA
ATOM      3  C   UNL     1       6.374   6.509  17.908  0.00  0.00    +0.000 A 
ATOM      4  C   UNL     1       7.448   6.279  18.755  0.00  0.00    +0.000 A 
ATOM      5 CL   UNL     1       7.710   5.064  19.944  0.00  0.00    +0.000 Cl
ATOM      6  O   UNL     1       8.351   7.288  18.563  0.00  0.00    +0.000 OA
ENDROOT
BRANCH   3   7
ATOM      7  C   UNL     1       5.152   5.712  17.786  0.00  0.00    +0.000 A 
ATOM      8  C   UNL     1       5.176   4.362  17.411  0.00  0.00    +0.000 A 
ATOM      9  C   UNL     1       4.000   3.600  17.377  0.00  0.00    +0.000 A 
ATOM     10  C   UNL     1       2.765   4.163  17.699  0.00  0.00    +0.000 A 
ATOM     11  C   UNL     1       2.715   5.525  17.990  0.00  0.00    +0.000 A 
ATOM     12  C   UNL     1       3.898   6.289  18.044  0.00  0.00    +0.000 A 
BRANCH  10  13
ATOM     13  O   UNL     1       1.713   3.309  17.607  0.00  0.00    +0.000 OA
BRANCH  13  14
ATOM     14  C   UNL     1       1.204   2.667  18.767  0.00  0.00    +0.000 C 
ATOM     15  F   UNL     1       2.118   1.956  19.460  0.00  0.00    +0.000 F 
ATOM     16  F   UNL     1       0.665   3.596  19.586  0.00  0.00    +0.000 F 
ATOM     17  F   UNL     1       0.218   1.819  18.393  0.00  0.00    +0.000 F 
ENDBRANCH  13  14
ENDBRANCH  10  13
ENDBRANCH   3   7
BRANCH   1  18
ATOM     18  C   UNL     1       8.509   9.391  17.376  0.00  0.00    +0.000 C 
BRANCH  18  19
ATOM     19  O   UNL     1       8.238  10.309  18.442  0.00  0.00    +0.000 OA
BRANCH  19  25
ATOM     20  C   UNL     1      10.324  13.320  18.311  0.00  0.00    +0.000 A 
ATOM     21  C   UNL     1      11.220  13.083  19.357  0.00  0.00    +0.000 A 
ATOM     22  F   UNL     1      12.188  13.957  19.667  0.00  0.00    +0.000 F 
ATOM     23  C   UNL     1      11.136  11.919  20.120  0.00  0.00    +0.000 A 
ATOM     24  C   UNL     1      10.152  10.964  19.853  0.00  0.00    +0.000 A 
ATOM     25  C   UNL     1       9.246  11.170  18.810  0.00  0.00    +0.000 A 
ATOM     26  C   UNL     1       9.347  12.350  18.049  0.00  0.00    +0.000 A 
ATOM     27  F   UNL     1       8.467  12.530  17.049  0.00  0.00    +0.000 F 
BRANCH  20  29
ATOM     28  N   UNL     1       9.415  15.481  17.597  0.00  0.00    +0.000 N 
ATOM     29  C   UNL     1      10.438  14.577  17.524  0.00  0.00    +0.000 C 
ATOM     30  O   UNL     1      11.408  14.829  16.819  0.00  0.00    +0.000 OA
ATOM     31  H   UNL     1       9.501  16.336  17.064  0.00  0.00    +0.000 HD
ATOM     32  H   UNL     1       8.585  15.341  18.162  0.00  0.00    +0.000 HD
ENDBRANCH  20  29
ENDBRANCH  19  25
ENDBRANCH  18  19
ENDBRANCH   1  18
TORSDOF 7
ENDMDL
MODEL 4
REMARK VINA RESULT:      -8.5      6.572      8.346
REMARK  Name = 
REMARK  7 active torsions:
REMARK  status: ('A' for Active; 'I' for Inactive)
REMARK    1  A    between atoms: C_2  and  C_4
REMARK    2  A    between atoms: C_9  and  O_10
REMARK    3  A    between atoms: O_10  and  C_11
REMARK    4  A    between atoms: C_11  and  C_12
REMARK    5  A    between atoms: C_14  and  C_15
REMARK    6  A    between atoms: C_18  and  O_19
REMARK    7  A    between atoms: O_19  and  C_20
REMARK                            x       y       z     vdW  Elec       q    Type
REMARK                         _______ _______ _______ _____ _____    ______ ____
ROOT
ATOM      1  C   UNL     1       2.521   7.065  19.316  0.00  0.00    +0.000 A 
ATOM      2  N   UNL     1       3.115   7.027  18.135  0.00  0.00    +0.000 NA
ATOM      3  C   UNL     1       3.777   5.803  18.121  0.00  0.00    +0.000 A 
ATOM      4  C   UNL     1       3.503   5.130  19.302  0.00  0.00    +0.000 A 
ATOM      5 CL   UNL     1       3.910   3.540  19.817  0.00  0.00    +0.000 Cl
ATOM      6  O   UNL     1       2.723   5.945  20.073  0.00  0.00    +0.000 OA
ENDROOT
BRANCH   3   7
ATOM      7  C   UNL     1       4.549   5.314  16.977  0.00  0.00    +0.000 A 
ATOM      8  C   UNL     1       4.898   3.965  16.834  0.00  0.00    +0.000 A 
ATOM      9  C   UNL     1       5.569   3.508  15.691  0.00  0.00    +0.000 A 
ATOM     10  C   UNL     1       5.928   4.385  14.666  0.00  0.00    +0.000 A 
ATOM     11  C   UNL     1       5.664   5.742  14.834  0.00  0.00    +0.000 A 
ATOM     12  C   UNL     1       4.971   6.201  15.973  0.00  0.00    +0.000 A 
BRANCH  10  13
ATOM     13  O   UNL     1       6.586   3.803  13.629  0.00  0.00    +0.000 OA
BRANCH  13  14
ATOM     14  C   UNL     1       5.902   3.500  12.422  0.00  0.00    +0.000 C 
ATOM     15  F   UNL     1       4.582   3.779  12.441  0.00  0.00    +0.000 F 
ATOM     16  F   UNL     1       6.476   4.183  11.407  0.00  0.00    +0.000 F 
ATOM     17  F   UNL     1       6.042   2.179  12.167  0.00  0.00    +0.000 F 
ENDBRANCH  13  14
ENDBRANCH  10  13
ENDBRANCH   3   7
BRANCH   1  18
ATOM     18  C   UNL     1       1.548   8.054  19.886  0.00  0.00    +0.000 C 
BRANCH  18  19
ATOM     19  O   UNL     1       1.582   9.248  19.097  0.00  0.00    +0.000 OA
BRANCH  19  25
ATOM     20  C   UNL     1      -1.541  11.012  18.337  0.00  0.00    +0.000 A 
ATOM     21  C   UNL     1      -1.617  11.912  19.404  0.00  0.00    +0.000 A 
ATOM     22  F   UNL     1      -2.633  12.780  19.522  0.00  0.00    +0.000 F 
ATOM     23  C   UNL     1      -0.632  11.939  20.389  0.00  0.00    +0.000 A 
ATOM     24  C   UNL     1       0.455  11.063  20.330  0.00  0.00    +0.000 A 
ATOM     25  C   UNL     1       0.563  10.156  19.274  0.00  0.00    +0.000 A 
ATOM     26  C   UNL     1      -0.441  10.145  18.287  0.00  0.00    +0.000 A 
ATOM     27  F   UNL     1      -0.320   9.265  17.277  0.00  0.00    +0.000 F 
BRANCH  20  29
ATOM     28  N   UNL     1      -2.371  11.626  16.116  0.00  0.00    +0.000 N 
ATOM     29  C   UNL     1      -2.615  11.006  17.309  0.00  0.00    +0.000 C 
ATOM     30  O   UNL     1      -3.700  10.469  17.492  0.00  0.00    +0.000 OA
ATOM     31  H   UNL     1      -3.103  11.614  15.418  0.00  0.00    +0.000 HD
ATOM     32  H   UNL     1      -1.496  12.087  15.893  0.00  0.00    +0.000 HD
ENDBRANCH  20  29
ENDBRANCH  19  25
ENDBRANCH  18  19
ENDBRANCH   1  18
TORSDOF 7
ENDMDL
MODEL 5
REMARK VINA RESULT:      -8.5      6.560      8.153
REMARK  Name = 
REMARK  7 active torsions:
REMARK  status: ('A' for Active; 'I' for Inactive)
REMARK    1  A    between atoms: C_2  and  C_4
REMARK    2  A    between atoms: C_9  and  O_10
REMARK    3  A    between atoms: O_10  and  C_11
REMARK    4  A    between atoms: C_11  and  C_12
REMARK    5  A    between atoms: C_14  and  C_15
REMARK    6  A    between atoms: C_18  and  O_19
REMARK    7  A    between atoms: O_19  and  C_20
REMARK                            x       y       z     vdW  Elec       q    Type
REMARK                         _______ _______ _______ _____ _____    ______ ____
ROOT
ATOM      1  C   UNL     1       2.795   6.517  19.567  0.00  0.00    +0.000 A 
ATOM      2  N   UNL     1       3.308   6.573  18.348  0.00  0.00    +0.000 NA
ATOM      3  C   UNL     1       3.972   5.359  18.198  0.00  0.00    +0.000 A 
ATOM      4  C   UNL     1       3.782   4.597  19.341  0.00  0.00    +0.000 A 
ATOM      5 CL   UNL     1       4.230   2.976  19.705  0.00  0.00    +0.000 Cl
ATOM      6  O   UNL     1       3.052   5.345  20.222  0.00  0.00    +0.000 OA
ENDROOT
BRANCH   3   7
ATOM      7  C   UNL     1       4.667   4.964  16.971  0.00  0.00    +0.000 A 
ATOM      8  C   UNL     1       5.255   5.903  16.112  0.00  0.00    +0.000 A 
ATOM      9  C   UNL     1       5.982   5.496  14.985  0.00  0.00    +0.000 A 
ATOM     10  C   UNL     1       6.131   4.144  14.670  0.00  0.00    +0.000 A 
ATOM     11  C   UNL     1       5.479   3.205  15.467  0.00  0.00    +0.000 A 
ATOM     12  C   UNL     1       4.765   3.610  16.612  0.00  0.00    +0.000 A 
BRANCH  10  13
ATOM     13  O   UNL     1       6.847   3.902  13.543  0.00  0.00    +0.000 OA
BRANCH  13  14
ATOM     14  C   UNL     1       6.188   3.599  12.321  0.00  0.00    +0.000 C 
ATOM     15  F   UNL     1       4.844   3.703  12.371  0.00  0.00    +0.000 F 
ATOM     16  F   UNL     1       6.652   4.421  11.355  0.00  0.00    +0.000 F 
ATOM     17  F   UNL     1       6.492   2.329  11.971  0.00  0.00    +0.000 F 
ENDBRANCH  13  14
ENDBRANCH  10  13
ENDBRANCH   3   7
BRANCH   1  18
ATOM     18  C   UNL     1       1.859   7.451  20.273  0.00  0.00    +0.000 C 
BRANCH  18  19
ATOM     19  O   UNL     1       1.667   8.618  19.465  0.00  0.00    +0.000 OA
BRANCH  19  25
ATOM     20  C   UNL     1      -1.014  11.104  19.200  0.00  0.00    +0.000 A 
ATOM     21  C   UNL     1      -1.173  11.484  20.535  0.00  0.00    +0.000 A 
ATOM     22  F   UNL     1      -2.075  12.404  20.903  0.00  0.00    +0.000 F 
ATOM     23  C   UNL     1      -0.391  10.914  21.539  0.00  0.00    +0.000 A 
ATOM     24  C   UNL     1       0.569   9.947  21.229  0.00  0.00    +0.000 A 
ATOM     25  C   UNL     1       0.755   9.550  19.903  0.00  0.00    +0.000 A 
ATOM     26  C   UNL     1      -0.042  10.139  18.902  0.00  0.00    +0.000 A 
ATOM     27  F   UNL     1       0.152   9.745  17.631  0.00  0.00    +0.000 F 
BRANCH  20  29
ATOM     28  N   UNL     1      -1.284  12.571  17.257  0.00  0.00    +0.000 N 
ATOM     29  C   UNL     1      -1.872  11.727  18.157  0.00  0.00    +0.000 C 
ATOM     30  O   UNL     1      -3.074  11.512  18.076  0.00  0.00    +0.000 OA
ATOM     31  H   UNL     1      -1.871  12.987  16.547  0.00  0.00    +0.000 HD
ATOM     32  H   UNL     1      -0.295  12.793  17.260  0.00  0.00    +0.000 HD
ENDBRANCH  20  29
ENDBRANCH  19  25
ENDBRANCH  18  19
ENDBRANCH   1  18
TORSDOF 7
ENDMDL
MODEL 6
REMARK VINA RESULT:      -8.5      6.210      9.312
REMARK  Name = 
REMARK  7 active torsions:
REMARK  status: ('A' for Active; 'I' for Inactive)
REMARK    1  A    between atoms: C_2  and  C_4
REMARK    2  A    between atoms: C_9  and  O_10
REMARK    3  A    between atoms: O_10  and  C_11
REMARK    4  A    between atoms: C_11  and  C_12
REMARK    5  A    between atoms: C_14  and  C_15
REMARK    6  A    between atoms: C_18  and  O_19
REMARK    7  A    between atoms: O_19  and  C_20
REMARK                            x       y       z     vdW  Elec       q    Type
REMARK                         _______ _______ _______ _____ _____    ______ ____
ROOT
ATOM      1  C   UNL     1       1.766   6.473  20.503  0.00  0.00    +0.000 A 
ATOM      2  N   UNL     1       1.001   7.169  21.329  0.00  0.00    +0.000 NA
ATOM      3  C   UNL     1       0.924   8.430  20.746  0.00  0.00    +0.000 A 
ATOM      4  C   UNL     1       1.623   8.417  19.549  0.00  0.00    +0.000 A 
ATOM      5 CL   UNL     1       1.783   9.611  18.321  0.00  0.00    +0.000 Cl
ATOM      6  O   UNL     1       2.180   7.176  19.407  0.00  0.00    +0.000 OA
ENDROOT
BRANCH   3   7
ATOM      7  C   UNL     1       0.139   9.532  21.306  0.00  0.00    +0.000 A 
ATOM      8  C   UNL     1      -0.180   9.604  22.668  0.00  0.00    +0.000 A 
ATOM      9  C   UNL     1      -0.865  10.708  23.194  0.00  0.00    +0.000 A 
ATOM     10  C   UNL     1      -1.268  11.765  22.376  0.00  0.00    +0.000 A 
ATOM     11  C   UNL     1      -1.033  11.666  21.006  0.00  0.00    +0.000 A 
ATOM     12  C   UNL     1      -0.326  10.567  20.478  0.00  0.00    +0.000 A 
BRANCH  10  13
ATOM     13  O   UNL     1      -1.934  12.757  23.021  0.00  0.00    +0.000 OA
BRANCH  13  14
ATOM     14  C   UNL     1      -3.341  12.683  23.198  0.00  0.00    +0.000 C 
ATOM     15  F   UNL     1      -4.027  12.332  22.090  0.00  0.00    +0.000 F 
ATOM     16  F   UNL     1      -3.616  11.795  24.178  0.00  0.00    +0.000 F 
ATOM     17  F   UNL     1      -3.790  13.895  23.595  0.00  0.00    +0.000 F 
ENDBRANCH  13  14
ENDBRANCH  10  13
ENDBRANCH   3   7
BRANCH   1  18
ATOM     18  C   UNL     1       2.117   5.016  20.495  0.00  0.00    +0.000 C 
BRANCH  18  19
ATOM     19  O   UNL     1       3.528   4.877  20.287  0.00  0.00    +0.000 OA
BRANCH  19  25
ATOM     20  C   UNL     1       5.835   4.612  17.451  0.00  0.00    +0.000 A 
ATOM     21  C   UNL     1       5.051   3.927  16.519  0.00  0.00    +0.000 A 
ATOM     22  F   UNL     1       5.516   3.613  15.301  0.00  0.00    +0.000 F 
ATOM     23  C   UNL     1       3.746   3.543  16.826  0.00  0.00    +0.000 A 
ATOM     24  C   UNL     1       3.196   3.835  18.076  0.00  0.00    +0.000 A 
ATOM     25  C   UNL     1       3.952   4.524  19.027  0.00  0.00    +0.000 A 
ATOM     26  C   UNL     1       5.267   4.905  18.698  0.00  0.00    +0.000 A 
ATOM     27  F   UNL     1       5.980   5.569  19.626  0.00  0.00    +0.000 F 
BRANCH  20  29
ATOM     28  N   UNL     1       7.449   6.275  16.657  0.00  0.00    +0.000 N 
ATOM     29  C   UNL     1       7.225   4.998  17.091  0.00  0.00    +0.000 C 
ATOM     30  O   UNL     1       8.168   4.220  17.170  0.00  0.00    +0.000 OA
ATOM     31  H   UNL     1       8.398   6.533  16.420  0.00  0.00    +0.000 HD
ATOM     32  H   UNL     1       6.720   6.973  16.570  0.00  0.00    +0.000 HD
ENDBRANCH  20  29
ENDBRANCH  19  25
ENDBRANCH  18  19
ENDBRANCH   1  18
TORSDOF 7
ENDMDL
MODEL 7
REMARK VINA RESULT:      -8.4      1.311      1.438
REMARK  Name = 
REMARK  7 active torsions:
REMARK  status: ('A' for Active; 'I' for Inactive)
REMARK    1  A    between atoms: C_2  and  C_4
REMARK    2  A    between atoms: C_9  and  O_10
REMARK    3  A    between atoms: O_10  and  C_11
REMARK    4  A    between atoms: C_11  and  C_12
REMARK    5  A    between atoms: C_14  and  C_15
REMARK    6  A    between atoms: C_18  and  O_19
REMARK    7  A    between atoms: O_19  and  C_20
REMARK                            x       y       z     vdW  Elec       q    Type
REMARK                         _______ _______ _______ _____ _____    ______ ____
ROOT
ATOM      1  C   UNL     1       7.618   7.687  17.283  0.00  0.00    +0.000 A 
ATOM      2  N   UNL     1       6.632   7.287  18.070  0.00  0.00    +0.000 NA
ATOM      3  C   UNL     1       6.195   6.096  17.497  0.00  0.00    +0.000 A 
ATOM      4  C   UNL     1       6.988   5.808  16.396  0.00  0.00    +0.000 A 
ATOM      5 CL   UNL     1       7.036   4.431  15.367  0.00  0.00    +0.000 Cl
ATOM      6  O   UNL     1       7.878   6.835  16.247  0.00  0.00    +0.000 OA
ENDROOT
BRANCH   3   7
ATOM      7  C   UNL     1       5.125   5.272  18.063  0.00  0.00    +0.000 A 
ATOM      8  C   UNL     1       5.389   4.170  18.887  0.00  0.00    +0.000 A 
ATOM      9  C   UNL     1       4.346   3.444  19.480  0.00  0.00    +0.000 A 
ATOM     10  C   UNL     1       3.011   3.784  19.255  0.00  0.00    +0.000 A 
ATOM     11  C   UNL     1       2.734   4.823  18.370  0.00  0.00    +0.000 A 
ATOM     12  C   UNL     1       3.780   5.567  17.789  0.00  0.00    +0.000 A 
BRANCH  10  13
ATOM     13  O   UNL     1       2.111   2.983  19.883  0.00  0.00    +0.000 OA
BRANCH  13  14
ATOM     14  C   UNL     1       1.296   3.496  20.927  0.00  0.00    +0.000 C 
ATOM     15  F   UNL     1       0.217   4.187  20.505  0.00  0.00    +0.000 F 
ATOM     16  F   UNL     1       0.879   2.473  21.704  0.00  0.00    +0.000 F 
ATOM     17  F   UNL     1       2.045   4.323  21.691  0.00  0.00    +0.000 F 
ENDBRANCH  13  14
ENDBRANCH  10  13
ENDBRANCH   3   7
BRANCH   1  18
ATOM     18  C   UNL     1       8.583   8.824  17.432  0.00  0.00    +0.000 C 
BRANCH  18  19
ATOM     19  O   UNL     1       8.038   9.780  18.349  0.00  0.00    +0.000 OA
BRANCH  19  25
ATOM     20  C   UNL     1       9.694  13.045  18.561  0.00  0.00    +0.000 A 
ATOM     21  C   UNL     1      10.537  12.856  19.660  0.00  0.00    +0.000 A 
ATOM     22  F   UNL     1      11.351  13.828  20.097  0.00  0.00    +0.000 F 
ATOM     23  C   UNL     1      10.560  11.642  20.344  0.00  0.00    +0.000 A 
ATOM     24  C   UNL     1       9.738  10.586  19.944  0.00  0.00    +0.000 A 
ATOM     25  C   UNL     1       8.889  10.740  18.847  0.00  0.00    +0.000 A 
ATOM     26  C   UNL     1       8.881  11.973  18.167  0.00  0.00    +0.000 A 
ATOM     27  F   UNL     1       8.057  12.104  17.111  0.00  0.00    +0.000 F 
BRANCH  20  29
ATOM     28  N   UNL     1      10.645  14.585  16.911  0.00  0.00    +0.000 N 
ATOM     29  C   UNL     1       9.689  14.356  17.861  0.00  0.00    +0.000 C 
ATOM     30  O   UNL     1       8.867  15.230  18.103  0.00  0.00    +0.000 OA
ATOM     31  H   UNL     1      10.633  15.476  16.434  0.00  0.00    +0.000 HD
ATOM     32  H   UNL     1      11.354  13.907  16.656  0.00  0.00    +0.000 HD
ENDBRANCH  20  29
ENDBRANCH  19  25
ENDBRANCH  18  19
ENDBRANCH   1  18
TORSDOF 7
ENDMDL
MODEL 8
REMARK VINA RESULT:      -8.4      6.282      9.373
REMARK  Name = 
REMARK  7 active torsions:
REMARK  status: ('A' for Active; 'I' for Inactive)
REMARK    1  A    between atoms: C_2  and  C_4
REMARK    2  A    between atoms: C_9  and  O_10
REMARK    3  A    between atoms: O_10  and  C_11
REMARK    4  A    between atoms: C_11  and  C_12
REMARK    5  A    between atoms: C_14  and  C_15
REMARK    6  A    between atoms: C_18  and  O_19
REMARK    7  A    between atoms: O_19  and  C_20
REMARK                            x       y       z     vdW  Elec       q    Type
REMARK                         _______ _______ _______ _____ _____    ______ ____
ROOT
ATOM      1  C   UNL     1       1.834   6.540  20.419  0.00  0.00    +0.000 A 
ATOM      2  N   UNL     1       1.203   7.259  21.333  0.00  0.00    +0.000 NA
ATOM      3  C   UNL     1       1.122   8.532  20.775  0.00  0.00    +0.000 A 
ATOM      4  C   UNL     1       1.679   8.503  19.505  0.00  0.00    +0.000 A 
ATOM      5 CL   UNL     1       1.757   9.705  18.278  0.00  0.00    +0.000 Cl
ATOM      6  O   UNL     1       2.154   7.239  19.289  0.00  0.00    +0.000 OA
ENDROOT
BRANCH   3   7
ATOM      7  C   UNL     1       0.461   9.662  21.431  0.00  0.00    +0.000 A 
ATOM      8  C   UNL     1       0.582  10.975  20.956  0.00  0.00    +0.000 A 
ATOM      9  C   UNL     1      -0.124  12.028  21.554  0.00  0.00    +0.000 A 
ATOM     10  C   UNL     1      -0.956  11.808  22.653  0.00  0.00    +0.000 A 
ATOM     11  C   UNL     1      -1.018  10.523  23.188  0.00  0.00    +0.000 A 
ATOM     12  C   UNL     1      -0.326   9.459  22.576  0.00  0.00    +0.000 A 
BRANCH  10  13
ATOM     13  O   UNL     1      -1.562  12.923  23.135  0.00  0.00    +0.000 OA
BRANCH  13  14
ATOM     14  C   UNL     1      -2.834  13.321  22.644  0.00  0.00    +0.000 C 
ATOM     15  F   UNL     1      -3.531  12.339  22.036  0.00  0.00    +0.000 F 
ATOM     16  F   UNL     1      -3.570  13.806  23.667  0.00  0.00    +0.000 F 
ATOM     17  F   UNL     1      -2.657  14.319  21.748  0.00  0.00    +0.000 F 
ENDBRANCH  13  14
ENDBRANCH  10  13
ENDBRANCH   3   7
BRANCH   1  18
ATOM     18  C   UNL     1       2.110   5.068  20.358  0.00  0.00    +0.000 C 
BRANCH  18  19
ATOM     19  O   UNL     1       3.517   4.865  20.183  0.00  0.00    +0.000 OA
BRANCH  19  25
ATOM     20  C   UNL     1       5.872   4.561  17.390  0.00  0.00    +0.000 A 
ATOM     21  C   UNL     1       5.088   3.906  16.436  0.00  0.00    +0.000 A 
ATOM     22  F   UNL     1       5.569   3.591  15.225  0.00  0.00    +0.000 F 
ATOM     23  C   UNL     1       3.768   3.555  16.715  0.00  0.00    +0.000 A 
ATOM     24  C   UNL     1       3.201   3.852  17.957  0.00  0.00    +0.000 A 
ATOM     25  C   UNL     1       3.957   4.511  18.929  0.00  0.00    +0.000 A 
ATOM     26  C   UNL     1       5.288   4.859  18.629  0.00  0.00    +0.000 A 
ATOM     27  F   UNL     1       6.000   5.495  19.577  0.00  0.00    +0.000 F 
BRANCH  20  29
ATOM     28  N   UNL     1       7.509   6.049  16.336  0.00  0.00    +0.000 N 
ATOM     29  C   UNL     1       7.279   4.913  17.061  0.00  0.00    +0.000 C 
ATOM     30  O   UNL     1       8.230   4.228  17.415  0.00  0.00    +0.000 OA
ATOM     31  H   UNL     1       8.468   6.286  16.121  0.00  0.00    +0.000 HD
ATOM     32  H   UNL     1       6.772   6.665  16.013  0.00  0.00    +0.000 HD
ENDBRANCH  20  29
ENDBRANCH  19  25
ENDBRANCH  18  19
ENDBRANCH   1  18
TORSDOF 7
ENDMDL
MODEL 9
REMARK VINA RESULT:      -8.4      6.862     10.530
REMARK  Name = 
REMARK  7 active torsions:
REMARK  status: ('A' for Active; 'I' for Inactive)
REMARK    1  A    between atoms: C_2  and  C_4
REMARK    2  A    between atoms: C_9  and  O_10
REMARK    3  A    between atoms: O_10  and  C_11
REMARK    4  A    between atoms: C_11  and  C_12
REMARK    5  A    between atoms: C_14  and  C_15
REMARK    6  A    between atoms: C_18  and  O_19
REMARK    7  A    between atoms: O_19  and  C_20
REMARK                            x       y       z     vdW  Elec       q    Type
REMARK                         _______ _______ _______ _____ _____    ______ ____
ROOT
ATOM      1  C   UNL     1       1.713   8.647  18.674  0.00  0.00    +0.000 A 
ATOM      2  N   UNL     1       1.497   9.155  19.876  0.00  0.00    +0.000 NA
ATOM      3  C   UNL     1       0.423  10.022  19.697  0.00  0.00    +0.000 A 
ATOM      4  C   UNL     1       0.006   9.955  18.375  0.00  0.00    +0.000 A 
ATOM      5 CL   UNL     1      -1.337  10.674  17.577  0.00  0.00    +0.000 Cl
ATOM      6  O   UNL     1       0.844   9.097  17.719  0.00  0.00    +0.000 OA
ENDROOT
BRANCH   3   7
ATOM      7  C   UNL     1      -0.189  10.788  20.785  0.00  0.00    +0.000 A 
ATOM      8  C   UNL     1      -0.485  12.152  20.662  0.00  0.00    +0.000 A 
ATOM      9  C   UNL     1      -1.142  12.844  21.688  0.00  0.00    +0.000 A 
ATOM     10  C   UNL     1      -1.507  12.204  22.873  0.00  0.00    +0.000 A 
ATOM     11  C   UNL     1      -1.142  10.870  23.043  0.00  0.00    +0.000 A 
ATOM     12  C   UNL     1      -0.500  10.166  22.004  0.00  0.00    +0.000 A 
BRANCH  10  13
ATOM     13  O   UNL     1      -2.123  13.004  23.782  0.00  0.00    +0.000 OA
BRANCH  13  14
ATOM     14  C   UNL     1      -3.538  13.004  23.900  0.00  0.00    +0.000 C 
ATOM     15  F   UNL     1      -4.197  13.055  22.724  0.00  0.00    +0.000 F 
ATOM     16  F   UNL     1      -3.925  11.895  24.567  0.00  0.00    +0.000 F 
ATOM     17  F   UNL     1      -3.909  14.080  24.630  0.00  0.00    +0.000 F 
ENDBRANCH  13  14
ENDBRANCH  10  13
ENDBRANCH   3   7
BRANCH   1  18
ATOM     18  C   UNL     1       2.640   7.556  18.229  0.00  0.00    +0.000 C 
BRANCH  18  19
ATOM     19  O   UNL     1       3.232   6.949  19.383  0.00  0.00    +0.000 OA
BRANCH  19  25
ATOM     20  C   UNL     1       3.304   3.317  19.881  0.00  0.00    +0.000 A 
ATOM     21  C   UNL     1       2.043   3.089  20.439  0.00  0.00    +0.000 A 
ATOM     22  F   UNL     1       1.638   1.858  20.783  0.00  0.00    +0.000 F 
ATOM     23  C   UNL     1       1.157   4.142  20.659  0.00  0.00    +0.000 A 
ATOM     24  C   UNL     1       1.513   5.451  20.325  0.00  0.00    +0.000 A 
ATOM     25  C   UNL     1       2.763   5.711  19.761  0.00  0.00    +0.000 A 
ATOM     26  C   UNL     1       3.645   4.634  19.544  0.00  0.00    +0.000 A 
ATOM     27  F   UNL     1       4.844   4.904  18.999  0.00  0.00    +0.000 F 
BRANCH  20  29
ATOM     28  N   UNL     1       4.095   1.439  18.522  0.00  0.00    +0.000 N 
ATOM     29  C   UNL     1       4.227   2.170  19.669  0.00  0.00    +0.000 C 
ATOM     30  O   UNL     1       5.093   1.862  20.477  0.00  0.00    +0.000 OA
ATOM     31  H   UNL     1       4.729   0.664  18.381  0.00  0.00    +0.000 HD
ATOM     32  H   UNL     1       3.405   1.637  17.808  0.00  0.00    +0.000 HD
ENDBRANCH  20  29
ENDBRANCH  19  25
ENDBRANCH  18  19
ENDBRANCH   1  18
TORSDOF 7
ENDMDL
