MODEL 1
REMARK VINA RESULT:      -6.1      0.000      0.000
REMARK  Name = 
REMARK  12 active torsions:
REMARK  status: ('A' for Active; 'I' for Inactive)
REMARK    1  A    between atoms: C_1  and  C_2
REMARK    2  A    between atoms: C_2  and  C_3
REMARK    3  A    between atoms: C_3  and  C_4
REMARK    4  A    between atoms: C_4  and  C_5
REMARK    5  A    between atoms: C_5  and  C_6
REMARK    6  A    between atoms: C_6  and  C_7
REMARK    7  A    between atoms: C_7  and  C_8
REMARK    8  A    between atoms: C_8  and  O_9
REMARK    9  A    between atoms: O_9  and  C_10
REMARK   10  A    between atoms: C_10  and  C_12
REMARK   11  A    between atoms: C_16  and  O_17
REMARK   12  A    between atoms: C_18  and  O_19
REMARK                            x       y       z     vdW  Elec       q    Type
REMARK                         _______ _______ _______ _____ _____    ______ ____
ROOT
ATOM      1  C   UNL     1       3.355   2.163  17.879  0.00  0.00    +0.000 C 
ATOM      2  O   UNL     1       3.789   1.048  18.146  0.00  0.00    +0.000 OA
ENDROOT
BRANCH   1   3
ATOM      3  C   UNL     1       4.228   3.345  17.787  0.00  0.00    +0.000 A 
ATOM      4  C   UNL     1       4.142   4.166  16.650  0.00  0.00    +0.000 A 
ATOM      5  C   UNL     1       4.913   5.331  16.561  0.00  0.00    +0.000 A 
ATOM      6  C   UNL     1       5.767   5.688  17.607  0.00  0.00    +0.000 A 
ATOM      7  C   UNL     1       5.847   4.874  18.729  0.00  0.00    +0.000 A 
ATOM      8  C   UNL     1       5.084   3.709  18.825  0.00  0.00    +0.000 A 
BRANCH   7   9
ATOM      9  O   UNL     1       6.660   5.176  19.790  0.00  0.00    +0.000 OA
ATOM     10  H   UNL     1       6.218   5.857  20.323  0.00  0.00    +0.000 HD
ENDBRANCH   7   9
BRANCH   8  11
ATOM     11  O   UNL     1       5.180   2.974  19.974  0.00  0.00    +0.000 OA
ATOM     12  H   UNL     1       4.435   3.261  20.530  0.00  0.00    +0.000 HD
ENDBRANCH   8  11
ENDBRANCH   1   3
BRANCH   1  13
ATOM     13  O   UNL     1       2.058   2.489  17.684  0.00  0.00    +0.000 OA
BRANCH  13  14
ATOM     14  C   UNL     1       1.181   2.153  18.758  0.00  0.00    +0.000 C 
BRANCH  14  15
ATOM     15  C   UNL     1       0.668   3.410  19.455  0.00  0.00    +0.000 C 
BRANCH  15  16
ATOM     16  C   UNL     1       1.602   3.812  20.593  0.00  0.00    +0.000 C 
BRANCH  16  17
ATOM     17  C   UNL     1       1.846   5.319  20.610  0.00  0.00    +0.000 C 
BRANCH  17  18
ATOM     18  C   UNL     1       2.043   5.866  19.196  0.00  0.00    +0.000 C 
BRANCH  18  19
ATOM     19  C   UNL     1       2.821   7.182  19.218  0.00  0.00    +0.000 C 
BRANCH  19  21
ATOM     20  C   UNL     1       1.538   8.982  18.016  0.00  0.00    +0.000 C 
ATOM     21  C   UNL     1       2.654   7.955  17.911  0.00  0.00    +0.000 C 
ENDBRANCH  19  21
ENDBRANCH  18  19
ENDBRANCH  17  18
ENDBRANCH  16  17
ENDBRANCH  15  16
ENDBRANCH  14  15
ENDBRANCH  13  14
ENDBRANCH   1  13
TORSDOF 11
ENDMDL
MODEL 2
REMARK VINA RESULT:      -5.9      1.783      3.662
REMARK  Name = 
REMARK  12 active torsions:
REMARK  status: ('A' for Active; 'I' for Inactive)
REMARK    1  A    between atoms: C_1  and  C_2
REMARK    2  A    between atoms: C_2  and  C_3
REMARK    3  A    between atoms: C_3  and  C_4
REMARK    4  A    between atoms: C_4  and  C_5
REMARK    5  A    between atoms: C_5  and  C_6
REMARK    6  A    between atoms: C_6  and  C_7
REMARK    7  A    between atoms: C_7  and  C_8
REMARK    8  A    between atoms: C_8  and  O_9
REMARK    9  A    between atoms: O_9  and  C_10
REMARK   10  A    between atoms: C_10  and  C_12
REMARK   11  A    between atoms: C_16  and  O_17
REMARK   12  A    between atoms: C_18  and  O_19
REMARK                            x       y       z     vdW  Elec       q    Type
REMARK                         _______ _______ _______ _____ _____    ______ ____
ROOT
ATOM      1  C   UNL     1       4.764   5.153  17.024  0.00  0.00    +0.000 C 
ATOM      2  O   UNL     1       4.675   4.884  15.831  0.00  0.00    +0.000 OA
ENDROOT
BRANCH   1   3
ATOM      3  C   UNL     1       5.976   5.756  17.606  0.00  0.00    +0.000 A 
ATOM      4  C   UNL     1       6.523   6.899  16.999  0.00  0.00    +0.000 A 
ATOM      5  C   UNL     1       7.637   7.531  17.564  0.00  0.00    +0.000 A 
ATOM      6  C   UNL     1       8.205   7.034  18.739  0.00  0.00    +0.000 A 
ATOM      7  C   UNL     1       7.658   5.905  19.335  0.00  0.00    +0.000 A 
ATOM      8  C   UNL     1       6.549   5.266  18.777  0.00  0.00    +0.000 A 
BRANCH   7   9
ATOM      9  O   UNL     1       8.166   5.375  20.492  0.00  0.00    +0.000 OA
ATOM     10  H   UNL     1       7.462   5.383  21.161  0.00  0.00    +0.000 HD
ENDBRANCH   7   9
BRANCH   8  11
ATOM     11  O   UNL     1       6.037   4.183  19.436  0.00  0.00    +0.000 OA
ATOM     12  H   UNL     1       6.739   3.509  19.414  0.00  0.00    +0.000 HD
ENDBRANCH   8  11
ENDBRANCH   1   3
BRANCH   1  13
ATOM     13  O   UNL     1       3.830   4.908  17.971  0.00  0.00    +0.000 OA
BRANCH  13  14
ATOM     14  C   UNL     1       2.827   5.913  18.105  0.00  0.00    +0.000 C 
BRANCH  14  15
ATOM     15  C   UNL     1       2.816   6.486  19.519  0.00  0.00    +0.000 C 
BRANCH  15  16
ATOM     16  C   UNL     1       1.767   5.782  20.376  0.00  0.00    +0.000 C 
BRANCH  16  17
ATOM     17  C   UNL     1       2.307   4.481  20.964  0.00  0.00    +0.000 C 
BRANCH  17  18
ATOM     18  C   UNL     1       1.235   3.390  20.977  0.00  0.00    +0.000 C 
BRANCH  18  19
ATOM     19  C   UNL     1       1.040   2.794  19.584  0.00  0.00    +0.000 C 
BRANCH  19  21
ATOM     20  C   UNL     1       2.434   2.087  17.612  0.00  0.00    +0.000 C 
ATOM     21  C   UNL     1       2.279   2.027  19.123  0.00  0.00    +0.000 C 
ENDBRANCH  19  21
ENDBRANCH  18  19
ENDBRANCH  17  18
ENDBRANCH  16  17
ENDBRANCH  15  16
ENDBRANCH  14  15
ENDBRANCH  13  14
ENDBRANCH   1  13
TORSDOF 11
ENDMDL
MODEL 3
REMARK VINA RESULT:      -5.8      2.682      5.802
REMARK  Name = 
REMARK  12 active torsions:
REMARK  status: ('A' for Active; 'I' for Inactive)
REMARK    1  A    between atoms: C_1  and  C_2
REMARK    2  A    between atoms: C_2  and  C_3
REMARK    3  A    between atoms: C_3  and  C_4
REMARK    4  A    between atoms: C_4  and  C_5
REMARK    5  A    between atoms: C_5  and  C_6
REMARK    6  A    between atoms: C_6  and  C_7
REMARK    7  A    between atoms: C_7  and  C_8
REMARK    8  A    between atoms: C_8  and  O_9
REMARK    9  A    between atoms: O_9  and  C_10
REMARK   10  A    between atoms: C_10  and  C_12
REMARK   11  A    between atoms: C_16  and  O_17
REMARK   12  A    between atoms: C_18  and  O_19
REMARK                            x       y       z     vdW  Elec       q    Type
REMARK                         _______ _______ _______ _____ _____    ______ ____
ROOT
ATOM      1  C   UNL     1       5.336   5.210  18.737  0.00  0.00    +0.000 C 
ATOM      2  O   UNL     1       6.188   4.806  19.521  0.00  0.00    +0.000 OA
ENDROOT
BRANCH   1   3
ATOM      3  C   UNL     1       4.040   4.532  18.566  0.00  0.00    +0.000 A 
ATOM      4  C   UNL     1       2.943   5.272  18.096  0.00  0.00    +0.000 A 
ATOM      5  C   UNL     1       1.715   4.642  17.863  0.00  0.00    +0.000 A 
ATOM      6  C   UNL     1       1.575   3.271  18.091  0.00  0.00    +0.000 A 
ATOM      7  C   UNL     1       2.664   2.544  18.555  0.00  0.00    +0.000 A 
ATOM      8  C   UNL     1       3.892   3.165  18.792  0.00  0.00    +0.000 A 
BRANCH   7   9
ATOM      9  O   UNL     1       2.592   1.195  18.789  0.00  0.00    +0.000 OA
ATOM     10  H   UNL     1       1.783   1.022  19.298  0.00  0.00    +0.000 HD
ENDBRANCH   7   9
BRANCH   8  11
ATOM     11  O   UNL     1       4.934   2.383  19.210  0.00  0.00    +0.000 OA
ATOM     12  H   UNL     1       5.308   1.993  18.401  0.00  0.00    +0.000 HD
ENDBRANCH   8  11
ENDBRANCH   1   3
BRANCH   1  13
ATOM     13  O   UNL     1       5.456   6.265  17.900  0.00  0.00    +0.000 OA
BRANCH  13  14
ATOM     14  C   UNL     1       6.347   6.068  16.803  0.00  0.00    +0.000 C 
BRANCH  14  15
ATOM     15  C   UNL     1       5.576   5.940  15.492  0.00  0.00    +0.000 C 
BRANCH  15  16
ATOM     16  C   UNL     1       5.186   4.487  15.238  0.00  0.00    +0.000 C 
BRANCH  16  17
ATOM     17  C   UNL     1       6.267   3.747  14.454  0.00  0.00    +0.000 C 
BRANCH  17  18
ATOM     18  C   UNL     1       6.409   4.307  13.038  0.00  0.00    +0.000 C 
BRANCH  18  19
ATOM     19  C   UNL     1       6.167   3.220  11.990  0.00  0.00    +0.000 C 
BRANCH  19  21
ATOM     20  C   UNL     1       3.972   3.729  10.871  0.00  0.00    +0.000 C 
ATOM     21  C   UNL     1       4.687   2.856  11.890  0.00  0.00    +0.000 C 
ENDBRANCH  19  21
ENDBRANCH  18  19
ENDBRANCH  17  18
ENDBRANCH  16  17
ENDBRANCH  15  16
ENDBRANCH  14  15
ENDBRANCH  13  14
ENDBRANCH   1  13
TORSDOF 11
ENDMDL
MODEL 4
REMARK VINA RESULT:      -5.8      2.913      6.150
REMARK  Name = 
REMARK  12 active torsions:
REMARK  status: ('A' for Active; 'I' for Inactive)
REMARK    1  A    between atoms: C_1  and  C_2
REMARK    2  A    between atoms: C_2  and  C_3
REMARK    3  A    between atoms: C_3  and  C_4
REMARK    4  A    between atoms: C_4  and  C_5
REMARK    5  A    between atoms: C_5  and  C_6
REMARK    6  A    between atoms: C_6  and  C_7
REMARK    7  A    between atoms: C_7  and  C_8
REMARK    8  A    between atoms: C_8  and  O_9
REMARK    9  A    between atoms: O_9  and  C_10
REMARK   10  A    between atoms: C_10  and  C_12
REMARK   11  A    between atoms: C_16  and  O_17
REMARK   12  A    between atoms: C_18  and  O_19
REMARK                            x       y       z     vdW  Elec       q    Type
REMARK                         _______ _______ _______ _____ _____    ______ ____
ROOT
ATOM      1  C   UNL     1       5.854   4.679  18.887  0.00  0.00    +0.000 C 
ATOM      2  O   UNL     1       6.232   5.347  19.843  0.00  0.00    +0.000 OA
ENDROOT
BRANCH   1   3
ATOM      3  C   UNL     1       4.440   4.315  18.692  0.00  0.00    +0.000 A 
ATOM      4  C   UNL     1       3.548   5.290  18.216  0.00  0.00    +0.000 A 
ATOM      5  C   UNL     1       2.212   4.959  17.960  0.00  0.00    +0.000 A 
ATOM      6  C   UNL     1       1.761   3.654  18.170  0.00  0.00    +0.000 A 
ATOM      7  C   UNL     1       2.648   2.694  18.639  0.00  0.00    +0.000 A 
ATOM      8  C   UNL     1       3.981   3.016  18.899  0.00  0.00    +0.000 A 
BRANCH   7   9
ATOM      9  O   UNL     1       2.266   1.396  18.856  0.00  0.00    +0.000 OA
ATOM     10  H   UNL     1       1.985   1.019  18.006  0.00  0.00    +0.000 HD
ENDBRANCH   7   9
BRANCH   8  11
ATOM     11  O   UNL     1       4.811   2.014  19.321  0.00  0.00    +0.000 OA
ATOM     12  H   UNL     1       5.714   2.365  19.222  0.00  0.00    +0.000 HD
ENDBRANCH   8  11
ENDBRANCH   1   3
BRANCH   1  13
ATOM     13  O   UNL     1       6.639   4.146  17.924  0.00  0.00    +0.000 OA
BRANCH  13  14
ATOM     14  C   UNL     1       7.399   5.090  17.171  0.00  0.00    +0.000 C 
BRANCH  14  15
ATOM     15  C   UNL     1       7.124   4.942  15.677  0.00  0.00    +0.000 C 
BRANCH  15  16
ATOM     16  C   UNL     1       5.767   4.284  15.443  0.00  0.00    +0.000 C 
BRANCH  16  17
ATOM     17  C   UNL     1       5.557   3.946  13.970  0.00  0.00    +0.000 C 
BRANCH  17  18
ATOM     18  C   UNL     1       6.741   4.406  13.119  0.00  0.00    +0.000 C 
BRANCH  18  19
ATOM     19  C   UNL     1       6.901   3.530  11.877  0.00  0.00    +0.000 C 
BRANCH  19  21
ATOM     20  C   UNL     1       6.294   1.225  11.072  0.00  0.00    +0.000 C 
ATOM     21  C   UNL     1       5.804   2.470  11.794  0.00  0.00    +0.000 C 
ENDBRANCH  19  21
ENDBRANCH  18  19
ENDBRANCH  17  18
ENDBRANCH  16  17
ENDBRANCH  15  16
ENDBRANCH  14  15
ENDBRANCH  13  14
ENDBRANCH   1  13
TORSDOF 11
ENDMDL
MODEL 5
REMARK VINA RESULT:      -5.8      2.826      6.195
REMARK  Name = 
REMARK  12 active torsions:
REMARK  status: ('A' for Active; 'I' for Inactive)
REMARK    1  A    between atoms: C_1  and  C_2
REMARK    2  A    between atoms: C_2  and  C_3
REMARK    3  A    between atoms: C_3  and  C_4
REMARK    4  A    between atoms: C_4  and  C_5
REMARK    5  A    between atoms: C_5  and  C_6
REMARK    6  A    between atoms: C_6  and  C_7
REMARK    7  A    between atoms: C_7  and  C_8
REMARK    8  A    between atoms: C_8  and  O_9
REMARK    9  A    between atoms: O_9  and  C_10
REMARK   10  A    between atoms: C_10  and  C_12
REMARK   11  A    between atoms: C_16  and  O_17
REMARK   12  A    between atoms: C_18  and  O_19
REMARK                            x       y       z     vdW  Elec       q    Type
REMARK                         _______ _______ _______ _____ _____    ______ ____
ROOT
ATOM      1  C   UNL     1       4.954   5.099  18.956  0.00  0.00    +0.000 C 
ATOM      2  O   UNL     1       6.032   4.657  19.339  0.00  0.00    +0.000 OA
ENDROOT
BRANCH   1   3
ATOM      3  C   UNL     1       3.672   4.484  19.337  0.00  0.00    +0.000 A 
ATOM      4  C   UNL     1       2.752   5.239  20.083  0.00  0.00    +0.000 A 
ATOM      5  C   UNL     1       1.499   4.704  20.407  0.00  0.00    +0.000 A 
ATOM      6  C   UNL     1       1.154   3.419  19.983  0.00  0.00    +0.000 A 
ATOM      7  C   UNL     1       2.068   2.678  19.244  0.00  0.00    +0.000 A 
ATOM      8  C   UNL     1       3.320   3.202  18.919  0.00  0.00    +0.000 A 
BRANCH   7   9
ATOM      9  O   UNL     1       1.784   1.415  18.793  0.00  0.00    +0.000 OA
ATOM     10  H   UNL     1       2.625   0.954  18.642  0.00  0.00    +0.000 HD
ENDBRANCH   7   9
BRANCH   8  11
ATOM     11  O   UNL     1       4.156   2.435  18.156  0.00  0.00    +0.000 OA
ATOM     12  H   UNL     1       3.956   2.671  17.233  0.00  0.00    +0.000 HD
ENDBRANCH   8  11
ENDBRANCH   1   3
BRANCH   1  13
ATOM     13  O   UNL     1       4.772   6.145  18.119  0.00  0.00    +0.000 OA
BRANCH  13  14
ATOM     14  C   UNL     1       5.688   6.213  17.027  0.00  0.00    +0.000 C 
BRANCH  14  15
ATOM     15  C   UNL     1       5.380   5.137  15.990  0.00  0.00    +0.000 C 
BRANCH  15  16
ATOM     16  C   UNL     1       6.669   4.517  15.459  0.00  0.00    +0.000 C 
BRANCH  16  17
ATOM     17  C   UNL     1       6.630   4.355  13.942  0.00  0.00    +0.000 C 
BRANCH  17  18
ATOM     18  C   UNL     1       5.274   3.822  13.476  0.00  0.00    +0.000 C 
BRANCH  18  19
ATOM     19  C   UNL     1       5.349   3.313  12.037  0.00  0.00    +0.000 C 
BRANCH  19  21
ATOM     20  C   UNL     1       6.549   1.319  11.080  0.00  0.00    +0.000 C 
ATOM     21  C   UNL     1       6.707   2.683  11.734  0.00  0.00    +0.000 C 
ENDBRANCH  19  21
ENDBRANCH  18  19
ENDBRANCH  17  18
ENDBRANCH  16  17
ENDBRANCH  15  16
ENDBRANCH  14  15
ENDBRANCH  13  14
ENDBRANCH   1  13
TORSDOF 11
ENDMDL
MODEL 6
REMARK VINA RESULT:      -5.7      3.124      6.504
REMARK  Name = 
REMARK  12 active torsions:
REMARK  status: ('A' for Active; 'I' for Inactive)
REMARK    1  A    between atoms: C_1  and  C_2
REMARK    2  A    between atoms: C_2  and  C_3
REMARK    3  A    between atoms: C_3  and  C_4
REMARK    4  A    between atoms: C_4  and  C_5
REMARK    5  A    between atoms: C_5  and  C_6
REMARK    6  A    between atoms: C_6  and  C_7
REMARK    7  A    between atoms: C_7  and  C_8
REMARK    8  A    between atoms: C_8  and  O_9
REMARK    9  A    between atoms: O_9  and  C_10
REMARK   10  A    between atoms: C_10  and  C_12
REMARK   11  A    between atoms: C_16  and  O_17
REMARK   12  A    between atoms: C_18  and  O_19
REMARK                            x       y       z     vdW  Elec       q    Type
REMARK                         _______ _______ _______ _____ _____    ______ ____
ROOT
ATOM      1  C   UNL     1       3.964   5.279  17.754  0.00  0.00    +0.000 C 
ATOM      2  O   UNL     1       4.020   6.482  17.520  0.00  0.00    +0.000 OA
ENDROOT
BRANCH   1   3
ATOM      3  C   UNL     1       2.938   4.697  18.635  0.00  0.00    +0.000 A 
ATOM      4  C   UNL     1       2.774   5.223  19.927  0.00  0.00    +0.000 A 
ATOM      5  C   UNL     1       1.766   4.733  20.765  0.00  0.00    +0.000 A 
ATOM      6  C   UNL     1       0.911   3.723  20.318  0.00  0.00    +0.000 A 
ATOM      7  C   UNL     1       1.077   3.208  19.039  0.00  0.00    +0.000 A 
ATOM      8  C   UNL     1       2.082   3.689  18.197  0.00  0.00    +0.000 A 
BRANCH   7   9
ATOM      9  O   UNL     1       0.265   2.223  18.541  0.00  0.00    +0.000 OA
ATOM     10  H   UNL     1      -0.580   2.629  18.288  0.00  0.00    +0.000 HD
ENDBRANCH   7   9
BRANCH   8  11
ATOM     11  O   UNL     1       2.164   3.165  16.937  0.00  0.00    +0.000 OA
ATOM     12  H   UNL     1       1.829   3.861  16.344  0.00  0.00    +0.000 HD
ENDBRANCH   8  11
ENDBRANCH   1   3
BRANCH   1  13
ATOM     13  O   UNL     1       4.824   4.338  17.305  0.00  0.00    +0.000 OA
BRANCH  13  14
ATOM     14  C   UNL     1       6.199   4.588  17.589  0.00  0.00    +0.000 C 
BRANCH  14  15
ATOM     15  C   UNL     1       6.988   4.816  16.303  0.00  0.00    +0.000 C 
BRANCH  15  16
ATOM     16  C   UNL     1       6.362   4.043  15.145  0.00  0.00    +0.000 C 
BRANCH  16  17
ATOM     17  C   UNL     1       6.538   4.781  13.820  0.00  0.00    +0.000 C 
BRANCH  17  18
ATOM     18  C   UNL     1       6.771   3.804  12.667  0.00  0.00    +0.000 C 
BRANCH  18  19
ATOM     19  C   UNL     1       5.450   3.236  12.151  0.00  0.00    +0.000 C 
BRANCH  19  21
ATOM     20  C   UNL     1       7.130   1.715  11.057  0.00  0.00    +0.000 C 
ATOM     21  C   UNL     1       5.661   1.930  11.385  0.00  0.00    +0.000 C 
ENDBRANCH  19  21
ENDBRANCH  18  19
ENDBRANCH  17  18
ENDBRANCH  16  17
ENDBRANCH  15  16
ENDBRANCH  14  15
ENDBRANCH  13  14
ENDBRANCH   1  13
TORSDOF 11
ENDMDL
MODEL 7
REMARK VINA RESULT:      -5.7      2.468      5.922
REMARK  Name = 
REMARK  12 active torsions:
REMARK  status: ('A' for Active; 'I' for Inactive)
REMARK    1  A    between atoms: C_1  and  C_2
REMARK    2  A    between atoms: C_2  and  C_3
REMARK    3  A    between atoms: C_3  and  C_4
REMARK    4  A    between atoms: C_4  and  C_5
REMARK    5  A    between atoms: C_5  and  C_6
REMARK    6  A    between atoms: C_6  and  C_7
REMARK    7  A    between atoms: C_7  and  C_8
REMARK    8  A    between atoms: C_8  and  O_9
REMARK    9  A    between atoms: O_9  and  C_10
REMARK   10  A    between atoms: C_10  and  C_12
REMARK   11  A    between atoms: C_16  and  O_17
REMARK   12  A    between atoms: C_18  and  O_19
REMARK                            x       y       z     vdW  Elec       q    Type
REMARK                         _______ _______ _______ _____ _____    ______ ____
ROOT
ATOM      1  C   UNL     1       2.933   6.005  18.610  0.00  0.00    +0.000 C 
ATOM      2  O   UNL     1       2.674   7.149  18.966  0.00  0.00    +0.000 OA
ENDROOT
BRANCH   1   3
ATOM      3  C   UNL     1       2.353   4.825  19.274  0.00  0.00    +0.000 A 
ATOM      4  C   UNL     1       2.481   4.698  20.667  0.00  0.00    +0.000 A 
ATOM      5  C   UNL     1       1.887   3.621  21.335  0.00  0.00    +0.000 A 
ATOM      6  C   UNL     1       1.156   2.670  20.620  0.00  0.00    +0.000 A 
ATOM      7  C   UNL     1       1.031   2.801  19.242  0.00  0.00    +0.000 A 
ATOM      8  C   UNL     1       1.623   3.871  18.568  0.00  0.00    +0.000 A 
BRANCH   7   9
ATOM      9  O   UNL     1       0.320   1.905  18.488  0.00  0.00    +0.000 OA
ATOM     10  H   UNL     1       0.948   1.411  17.937  0.00  0.00    +0.000 HD
ENDBRANCH   7   9
BRANCH   8  11
ATOM     11  O   UNL     1       1.428   3.962  17.218  0.00  0.00    +0.000 OA
ATOM     12  H   UNL     1       1.032   3.113  16.954  0.00  0.00    +0.000 HD
ENDBRANCH   8  11
ENDBRANCH   1   3
BRANCH   1  13
ATOM     13  O   UNL     1       3.792   5.648  17.629  0.00  0.00    +0.000 OA
BRANCH  13  14
ATOM     14  C   UNL     1       5.163   5.945  17.888  0.00  0.00    +0.000 C 
BRANCH  14  15
ATOM     15  C   UNL     1       5.949   4.672  18.188  0.00  0.00    +0.000 C 
BRANCH  15  16
ATOM     16  C   UNL     1       7.254   4.647  17.397  0.00  0.00    +0.000 C 
BRANCH  16  17
ATOM     17  C   UNL     1       7.026   5.004  15.931  0.00  0.00    +0.000 C 
BRANCH  17  18
ATOM     18  C   UNL     1       6.447   3.820  15.154  0.00  0.00    +0.000 C 
BRANCH  18  19
ATOM     19  C   UNL     1       5.490   4.294  14.061  0.00  0.00    +0.000 C 
BRANCH  19  21
ATOM     20  C   UNL     1       6.974   3.871  12.074  0.00  0.00    +0.000 C 
ATOM     21  C   UNL     1       5.674   3.498  12.770  0.00  0.00    +0.000 C 
ENDBRANCH  19  21
ENDBRANCH  18  19
ENDBRANCH  17  18
ENDBRANCH  16  17
ENDBRANCH  15  16
ENDBRANCH  14  15
ENDBRANCH  13  14
ENDBRANCH   1  13
TORSDOF 11
ENDMDL
MODEL 8
REMARK VINA RESULT:      -5.7      3.319      5.953
REMARK  Name = 
REMARK  12 active torsions:
REMARK  status: ('A' for Active; 'I' for Inactive)
REMARK    1  A    between atoms: C_1  and  C_2
REMARK    2  A    between atoms: C_2  and  C_3
REMARK    3  A    between atoms: C_3  and  C_4
REMARK    4  A    between atoms: C_4  and  C_5
REMARK    5  A    between atoms: C_5  and  C_6
REMARK    6  A    between atoms: C_6  and  C_7
REMARK    7  A    between atoms: C_7  and  C_8
REMARK    8  A    between atoms: C_8  and  O_9
REMARK    9  A    between atoms: O_9  and  C_10
REMARK   10  A    between atoms: C_10  and  C_12
REMARK   11  A    between atoms: C_16  and  O_17
REMARK   12  A    between atoms: C_18  and  O_19
REMARK                            x       y       z     vdW  Elec       q    Type
REMARK                         _______ _______ _______ _____ _____    ______ ____
ROOT
ATOM      1  C   UNL     1       4.227   5.519  17.777  0.00  0.00    +0.000 C 
ATOM      2  O   UNL     1       3.299   5.780  18.534  0.00  0.00    +0.000 OA
ENDROOT
BRANCH   1   3
ATOM      3  C   UNL     1       5.611   5.942  18.055  0.00  0.00    +0.000 A 
ATOM      4  C   UNL     1       6.187   6.945  17.258  0.00  0.00    +0.000 A 
ATOM      5  C   UNL     1       7.477   7.412  17.536  0.00  0.00    +0.000 A 
ATOM      6  C   UNL     1       8.195   6.889  18.613  0.00  0.00    +0.000 A 
ATOM      7  C   UNL     1       7.619   5.899  19.399  0.00  0.00    +0.000 A 
ATOM      8  C   UNL     1       6.334   5.425  19.127  0.00  0.00    +0.000 A 
BRANCH   7   9
ATOM      9  O   UNL     1       8.271   5.354  20.475  0.00  0.00    +0.000 OA
ATOM     10  H   UNL     1       7.925   5.772  21.279  0.00  0.00    +0.000 HD
ENDBRANCH   7   9
BRANCH   8  11
ATOM     11  O   UNL     1       5.812   4.478  19.964  0.00  0.00    +0.000 OA
ATOM     12  H   UNL     1       6.373   4.495  20.759  0.00  0.00    +0.000 HD
ENDBRANCH   8  11
ENDBRANCH   1   3
BRANCH   1  13
ATOM     13  O   UNL     1       4.135   4.874  16.593  0.00  0.00    +0.000 OA
BRANCH  13  14
ATOM     14  C   UNL     1       4.796   3.612  16.538  0.00  0.00    +0.000 C 
BRANCH  14  15
ATOM     15  C   UNL     1       6.008   3.671  15.612  0.00  0.00    +0.000 C 
BRANCH  15  16
ATOM     16  C   UNL     1       5.690   4.487  14.363  0.00  0.00    +0.000 C 
BRANCH  16  17
ATOM     17  C   UNL     1       6.930   4.692  13.497  0.00  0.00    +0.000 C 
BRANCH  17  18
ATOM     18  C   UNL     1       6.871   3.838  12.230  0.00  0.00    +0.000 C 
BRANCH  18  19
ATOM     19  C   UNL     1       5.502   3.175  12.077  0.00  0.00    +0.000 C 
BRANCH  19  21
ATOM     20  C   UNL     1       7.041   1.439  11.102  0.00  0.00    +0.000 C 
ATOM     21  C   UNL     1       5.595   1.872  11.284  0.00  0.00    +0.000 C 
ENDBRANCH  19  21
ENDBRANCH  18  19
ENDBRANCH  17  18
ENDBRANCH  16  17
ENDBRANCH  15  16
ENDBRANCH  14  15
ENDBRANCH  13  14
ENDBRANCH   1  13
TORSDOF 11
ENDMDL
MODEL 9
REMARK VINA RESULT:      -5.7      3.321      6.163
REMARK  Name = 
REMARK  12 active torsions:
REMARK  status: ('A' for Active; 'I' for Inactive)
REMARK    1  A    between atoms: C_1  and  C_2
REMARK    2  A    between atoms: C_2  and  C_3
REMARK    3  A    between atoms: C_3  and  C_4
REMARK    4  A    between atoms: C_4  and  C_5
REMARK    5  A    between atoms: C_5  and  C_6
REMARK    6  A    between atoms: C_6  and  C_7
REMARK    7  A    between atoms: C_7  and  C_8
REMARK    8  A    between atoms: C_8  and  O_9
REMARK    9  A    between atoms: O_9  and  C_10
REMARK   10  A    between atoms: C_10  and  C_12
REMARK   11  A    between atoms: C_16  and  O_17
REMARK   12  A    between atoms: C_18  and  O_19
REMARK                            x       y       z     vdW  Elec       q    Type
REMARK                         _______ _______ _______ _____ _____    ______ ____
ROOT
ATOM      1  C   UNL     1       4.448   5.301  18.088  0.00  0.00    +0.000 C 
ATOM      2  O   UNL     1       4.202   6.498  17.985  0.00  0.00    +0.000 OA
ENDROOT
BRANCH   1   3
ATOM      3  C   UNL     1       3.402   4.306  18.378  0.00  0.00    +0.000 A 
ATOM      4  C   UNL     1       3.254   3.206  17.517  0.00  0.00    +0.000 A 
ATOM      5  C   UNL     1       2.312   2.210  17.801  0.00  0.00    +0.000 A 
ATOM      6  C   UNL     1       1.518   2.301  18.946  0.00  0.00    +0.000 A 
ATOM      7  C   UNL     1       1.670   3.391  19.795  0.00  0.00    +0.000 A 
ATOM      8  C   UNL     1       2.606   4.389  19.518  0.00  0.00    +0.000 A 
BRANCH   7   9
ATOM      9  O   UNL     1       0.927   3.531  20.937  0.00  0.00    +0.000 OA
ATOM     10  H   UNL     1       1.502   3.901  21.626  0.00  0.00    +0.000 HD
ENDBRANCH   7   9
BRANCH   8  11
ATOM     11  O   UNL     1       2.731   5.414  20.415  0.00  0.00    +0.000 OA
ATOM     12  H   UNL     1       3.685   5.601  20.464  0.00  0.00    +0.000 HD
ENDBRANCH   8  11
ENDBRANCH   1   3
BRANCH   1  13
ATOM     13  O   UNL     1       5.669   4.727  18.007  0.00  0.00    +0.000 OA
BRANCH  13  14
ATOM     14  C   UNL     1       6.419   5.063  16.841  0.00  0.00    +0.000 C 
BRANCH  14  15
ATOM     15  C   UNL     1       6.166   4.056  15.722  0.00  0.00    +0.000 C 
BRANCH  15  16
ATOM     16  C   UNL     1       6.487   4.672  14.363  0.00  0.00    +0.000 C 
BRANCH  16  17
ATOM     17  C   UNL     1       6.281   3.668  13.232  0.00  0.00    +0.000 C 
BRANCH  17  18
ATOM     18  C   UNL     1       4.885   3.801  12.619  0.00  0.00    +0.000 C 
BRANCH  18  19
ATOM     19  C   UNL     1       4.762   2.964  11.346  0.00  0.00    +0.000 C 
BRANCH  19  21
ATOM     20  C   UNL     1       3.142   4.166   9.841  0.00  0.00    +0.000 C 
ATOM     21  C   UNL     1       3.338   2.995  10.791  0.00  0.00    +0.000 C 
ENDBRANCH  19  21
ENDBRANCH  18  19
ENDBRANCH  17  18
ENDBRANCH  16  17
ENDBRANCH  15  16
ENDBRANCH  14  15
ENDBRANCH  13  14
ENDBRANCH   1  13
TORSDOF 11
ENDMDL
