MODEL 1
REMARK VINA RESULT:      -9.5      0.000      0.000
REMARK  Name = 
REMARK  4 active torsions:
REMARK  status: ('A' for Active; 'I' for Inactive)
REMARK    1  A    between atoms: N_1  and  C_2
REMARK    2  A    between atoms: C_9  and  C_10
REMARK    3  A    between atoms: CA_12  and  C_13
REMARK    4  A    between atoms: C_13  and  O_14
REMARK                            x       y       z     vdW  Elec       q    Type
REMARK                         _______ _______ _______ _____ _____    ______ ____
ROOT
ATOM      1  C   UNL     1       2.741   6.388  19.702  0.00  0.00    +0.000 A 
ATOM      2  N   UNL     1       1.978   5.340  20.228  0.00  0.00    +0.000 N 
ATOM      3  CA  UNL     1       2.064   4.036  19.745  0.00  0.00    +0.000 A 
ATOM      4  C   UNL     1       2.710   3.797  18.577  0.00  0.00    +0.000 A 
ATOM      5  C   UNL     1       3.362   4.960  17.895  0.00  0.00    +0.000 A 
ATOM      6  C   UNL     1       4.437   4.736  17.114  0.00  0.00    +0.000 A 
ATOM      7  C   UNL     1       4.980   5.525  16.003  0.00  0.00    +0.000 A 
ATOM      8  C   UNL     1       6.315   5.455  15.805  0.00  0.00    +0.000 A 
ATOM      9  C   UNL     1       7.124   4.593  16.671  0.00  0.00    +0.000 A 
ATOM     10  C   UNL     1       6.726   4.338  17.934  0.00  0.00    +0.000 A 
ATOM     11  C   UNL     1       5.415   4.943  18.246  0.00  0.00    +0.000 A 
ATOM     12  N   UNL     1       5.028   5.730  19.201  0.00  0.00    +0.000 NA
ATOM     13  C   UNL     1       3.726   6.084  18.818  0.00  0.00    +0.000 A 
ATOM     14  H   UNL     1       1.205   5.593  20.843  0.00  0.00    +0.000 HD
ENDROOT
BRANCH   1  22
ATOM     15  C   UNL     1      -0.719  11.045  21.893  0.00  0.00    +0.000 C 
ATOM     16  C   UNL     1      -0.820  11.741  20.762  0.00  0.00    +0.000 C 
ATOM     17  C   UNL     1      -0.194  11.308  19.517  0.00  0.00    +0.000 C 
ATOM     18  O   UNL     1      -0.298  11.963  18.493  0.00  0.00    +0.000 OA
ATOM     19  C   UNL     1       0.580  10.061  19.507  0.00  0.00    +0.000 A 
ATOM     20  C   UNL     1       1.163   9.576  18.335  0.00  0.00    +0.000 A 
ATOM     21  C   UNL     1       1.901   8.392  18.377  0.00  0.00    +0.000 A 
ATOM     22  C   UNL     1       2.044   7.707  19.588  0.00  0.00    +0.000 A 
ATOM     23  N   UNL     1       1.468   8.171  20.731  0.00  0.00    +0.000 NA
ATOM     24  C   UNL     1       0.746   9.331  20.669  0.00  0.00    +0.000 A 
ATOM     25  C   UNL     1       0.123   9.786  21.936  0.00  0.00    +0.000 C 
ATOM     26  O   UNL     1       0.282   9.197  22.996  0.00  0.00    +0.000 OA
BRANCH  15  27
ATOM     27  N   UNL     1      -1.329  11.396  23.084  0.00  0.00    +0.000 N 
ATOM     28  H   UNL     1      -0.802  11.157  23.923  0.00  0.00    +0.000 HD
ATOM     29  H   UNL     1      -2.304  11.056  23.110  0.00  0.00    +0.000 HD
ENDBRANCH  15  27
ENDBRANCH   1  22
BRANCH   3  30
ATOM     30  C   UNL     1       1.590   2.930  20.659  0.00  0.00    +0.000 C 
BRANCH  30  31
ATOM     31  O   UNL     1       2.209   3.057  21.941  0.00  0.00    +0.000 OA
ATOM     32  H   UNL     1       2.169   2.170  22.349  0.00  0.00    +0.000 HD
ENDBRANCH  30  31
ENDBRANCH   3  30
TORSDOF 4
ENDMDL
MODEL 2
REMARK VINA RESULT:      -9.1      1.947      3.702
REMARK  Name = 
REMARK  4 active torsions:
REMARK  status: ('A' for Active; 'I' for Inactive)
REMARK    1  A    between atoms: N_1  and  C_2
REMARK    2  A    between atoms: C_9  and  C_10
REMARK    3  A    between atoms: CA_12  and  C_13
REMARK    4  A    between atoms: C_13  and  O_14
REMARK                            x       y       z     vdW  Elec       q    Type
REMARK                         _______ _______ _______ _____ _____    ______ ____
ROOT
ATOM      1  C   UNL     1       2.653   7.269  18.090  0.00  0.00    +0.000 A 
ATOM      2  N   UNL     1       3.902   7.337  17.464  0.00  0.00    +0.000 N 
ATOM      3  CA  UNL     1       4.884   6.364  17.643  0.00  0.00    +0.000 A 
ATOM      4  C   UNL     1       4.743   5.449  18.634  0.00  0.00    +0.000 A 
ATOM      5  C   UNL     1       3.489   5.497  19.450  0.00  0.00    +0.000 A 
ATOM      6  C   UNL     1       3.034   4.359  20.010  0.00  0.00    +0.000 A 
ATOM      7  C   UNL     1       2.168   4.160  21.178  0.00  0.00    +0.000 A 
ATOM      8  C   UNL     1       1.384   3.059  21.171  0.00  0.00    +0.000 A 
ATOM      9  C   UNL     1       1.461   2.132  20.038  0.00  0.00    +0.000 A 
ATOM     10  C   UNL     1       1.814   2.582  18.817  0.00  0.00    +0.000 A 
ATOM     11  C   UNL     1       2.164   4.018  18.824  0.00  0.00    +0.000 A 
ATOM     12  N   UNL     1       1.735   5.018  18.121  0.00  0.00    +0.000 NA
ATOM     13  C   UNL     1       2.325   6.127  18.745  0.00  0.00    +0.000 A 
ATOM     14  H   UNL     1       4.156   8.224  17.028  0.00  0.00    +0.000 HD
ENDROOT
BRANCH   1  22
ATOM     15  C   UNL     1      -0.540  10.805  22.060  0.00  0.00    +0.000 C 
ATOM     16  C   UNL     1      -0.470  11.947  21.380  0.00  0.00    +0.000 C 
ATOM     17  C   UNL     1       0.224  12.056  20.101  0.00  0.00    +0.000 C 
ATOM     18  O   UNL     1       0.276  13.114  19.495  0.00  0.00    +0.000 OA
ATOM     19  C   UNL     1       0.874  10.865  19.542  0.00  0.00    +0.000 A 
ATOM     20  C   UNL     1       1.514  10.900  18.302  0.00  0.00    +0.000 A 
ATOM     21  C   UNL     1       2.131   9.745  17.817  0.00  0.00    +0.000 A 
ATOM     22  C   UNL     1       2.097   8.571  18.575  0.00  0.00    +0.000 A 
ATOM     23  N   UNL     1       1.465   8.530  19.780  0.00  0.00    +0.000 NA
ATOM     24  C   UNL     1       0.863   9.670  20.238  0.00  0.00    +0.000 A 
ATOM     25  C   UNL     1       0.172   9.570  21.545  0.00  0.00    +0.000 C 
ATOM     26  O   UNL     1       0.176   8.547  22.216  0.00  0.00    +0.000 OA
BRANCH  15  27
ATOM     27  N   UNL     1      -1.221  10.646  23.254  0.00  0.00    +0.000 N 
ATOM     28  H   UNL     1      -1.777   9.795  23.322  0.00  0.00    +0.000 HD
ATOM     29  H   UNL     1      -1.758  11.498  23.485  0.00  0.00    +0.000 HD
ENDBRANCH  15  27
ENDBRANCH   1  22
BRANCH   3  30
ATOM     30  C   UNL     1       5.963   6.271  16.590  0.00  0.00    +0.000 C 
BRANCH  30  31
ATOM     31  O   UNL     1       5.427   6.615  15.310  0.00  0.00    +0.000 OA
ATOM     32  H   UNL     1       6.083   7.207  14.894  0.00  0.00    +0.000 HD
ENDBRANCH  30  31
ENDBRANCH   3  30
TORSDOF 4
ENDMDL
MODEL 3
REMARK VINA RESULT:      -9.0      1.770      2.457
REMARK  Name = 
REMARK  4 active torsions:
REMARK  status: ('A' for Active; 'I' for Inactive)
REMARK    1  A    between atoms: N_1  and  C_2
REMARK    2  A    between atoms: C_9  and  C_10
REMARK    3  A    between atoms: CA_12  and  C_13
REMARK    4  A    between atoms: C_13  and  O_14
REMARK                            x       y       z     vdW  Elec       q    Type
REMARK                         _______ _______ _______ _____ _____    ______ ____
ROOT
ATOM      1  C   UNL     1       2.348   5.951  19.848  0.00  0.00    +0.000 A 
ATOM      2  N   UNL     1       1.486   4.853  19.777  0.00  0.00    +0.000 N 
ATOM      3  CA  UNL     1       1.623   3.854  18.815  0.00  0.00    +0.000 A 
ATOM      4  C   UNL     1       2.451   4.054  17.759  0.00  0.00    +0.000 A 
ATOM      5  C   UNL     1       3.232   5.330  17.722  0.00  0.00    +0.000 A 
ATOM      6  C   UNL     1       4.418   5.348  17.082  0.00  0.00    +0.000 A 
ATOM      7  C   UNL     1       5.155   6.469  16.489  0.00  0.00    +0.000 A 
ATOM      8  C   UNL     1       6.503   6.368  16.474  0.00  0.00    +0.000 A 
ATOM      9  C   UNL     1       7.137   5.161  17.012  0.00  0.00    +0.000 A 
ATOM     10  C   UNL     1       6.528   4.451  17.983  0.00  0.00    +0.000 A 
ATOM     11  C   UNL     1       5.196   4.991  18.326  0.00  0.00    +0.000 A 
ATOM     12  N   UNL     1       4.672   5.354  19.454  0.00  0.00    +0.000 NA
ATOM     13  C   UNL     1       3.460   5.947  19.070  0.00  0.00    +0.000 A 
ATOM     14  H   UNL     1       0.626   4.901  20.324  0.00  0.00    +0.000 HD
ENDROOT
BRANCH   1  22
ATOM     15  C   UNL     1       1.092  11.946  18.869  0.00  0.00    +0.000 C 
ATOM     16  C   UNL     1       0.427  12.177  19.999  0.00  0.00    +0.000 C 
ATOM     17  C   UNL     1       0.199  11.140  21.000  0.00  0.00    +0.000 C 
ATOM     18  O   UNL     1      -0.415  11.374  22.028  0.00  0.00    +0.000 OA
ATOM     19  C   UNL     1       0.717   9.788  20.754  0.00  0.00    +0.000 A 
ATOM     20  C   UNL     1       0.566   8.769  21.695  0.00  0.00    +0.000 A 
ATOM     21  C   UNL     1       1.064   7.496  21.412  0.00  0.00    +0.000 A 
ATOM     22  C   UNL     1       1.708   7.259  20.193  0.00  0.00    +0.000 A 
ATOM     23  N   UNL     1       1.866   8.254  19.277  0.00  0.00    +0.000 NA
ATOM     24  C   UNL     1       1.375   9.495  19.574  0.00  0.00    +0.000 A 
ATOM     25  C   UNL     1       1.588  10.548  18.552  0.00  0.00    +0.000 C 
ATOM     26  O   UNL     1       2.123  10.323  17.475  0.00  0.00    +0.000 OA
BRANCH  15  27
ATOM     27  N   UNL     1       1.367  12.907  17.913  0.00  0.00    +0.000 N 
ATOM     28  H   UNL     1       1.258  13.870  18.228  0.00  0.00    +0.000 HD
ATOM     29  H   UNL     1       0.856  12.709  17.038  0.00  0.00    +0.000 HD
ENDBRANCH  15  27
ENDBRANCH   1  22
BRANCH   3  30
ATOM     30  C   UNL     1       0.980   2.519  19.109  0.00  0.00    +0.000 C 
BRANCH  30  31
ATOM     31  O   UNL     1       1.833   1.459  18.670  0.00  0.00    +0.000 OA
ATOM     32  H   UNL     1       2.579   1.887  18.207  0.00  0.00    +0.000 HD
ENDBRANCH  30  31
ENDBRANCH   3  30
TORSDOF 4
ENDMDL
MODEL 4
REMARK VINA RESULT:      -7.9      2.525      4.286
REMARK  Name = 
REMARK  4 active torsions:
REMARK  status: ('A' for Active; 'I' for Inactive)
REMARK    1  A    between atoms: N_1  and  C_2
REMARK    2  A    between atoms: C_9  and  C_10
REMARK    3  A    between atoms: CA_12  and  C_13
REMARK    4  A    between atoms: C_13  and  O_14
REMARK                            x       y       z     vdW  Elec       q    Type
REMARK                         _______ _______ _______ _____ _____    ______ ____
ROOT
ATOM      1  C   UNL     1       2.470   7.310  18.384  0.00  0.00    +0.000 A 
ATOM      2  N   UNL     1       3.684   7.589  17.748  0.00  0.00    +0.000 N 
ATOM      3  CA  UNL     1       4.730   6.670  17.696  0.00  0.00    +0.000 A 
ATOM      4  C   UNL     1       4.690   5.567  18.484  0.00  0.00    +0.000 A 
ATOM      5  C   UNL     1       3.471   5.363  19.330  0.00  0.00    +0.000 A 
ATOM      6  C   UNL     1       3.112   4.107  19.661  0.00  0.00    +0.000 A 
ATOM      7  C   UNL     1       2.312   3.619  20.789  0.00  0.00    +0.000 A 
ATOM      8  C   UNL     1       1.598   2.490  20.582  0.00  0.00    +0.000 A 
ATOM      9  C   UNL     1       1.683   1.817  19.283  0.00  0.00    +0.000 A 
ATOM     10  C   UNL     1       1.954   2.526  18.169  0.00  0.00    +0.000 A 
ATOM     11  C   UNL     1       2.215   3.951  18.457  0.00  0.00    +0.000 A 
ATOM     12  N   UNL     1       1.694   5.041  17.984  0.00  0.00    +0.000 NA
ATOM     13  C   UNL     1       2.241   6.040  18.803  0.00  0.00    +0.000 A 
ATOM     14  H   UNL     1       3.863   8.561  17.495  0.00  0.00    +0.000 HD
ENDROOT
BRANCH   1  22
ATOM     15  C   UNL     1       1.322  13.318  19.414  0.00  0.00    +0.000 C 
ATOM     16  C   UNL     1       0.666  13.181  20.564  0.00  0.00    +0.000 C 
ATOM     17  C   UNL     1       0.423  11.879  21.177  0.00  0.00    +0.000 C 
ATOM     18  O   UNL     1      -0.182  11.777  22.232  0.00  0.00    +0.000 OA
ATOM     19  C   UNL     1       0.915  10.672  20.501  0.00  0.00    +0.000 A 
ATOM     20  C   UNL     1       0.749   9.406  21.063  0.00  0.00    +0.000 A 
ATOM     21  C   UNL     1       1.222   8.285  20.377  0.00  0.00    +0.000 A 
ATOM     22  C   UNL     1       1.856   8.446  19.141  0.00  0.00    +0.000 A 
ATOM     23  N   UNL     1       2.028   9.681  18.594  0.00  0.00    +0.000 NA
ATOM     24  C   UNL     1       1.562  10.767  19.283  0.00  0.00    +0.000 A 
ATOM     25  C   UNL     1       1.789  12.091  18.656  0.00  0.00    +0.000 C 
ATOM     26  O   UNL     1       2.316  12.219  17.559  0.00  0.00    +0.000 OA
BRANCH  15  27
ATOM     27  N   UNL     1       1.610  14.533  18.818  0.00  0.00    +0.000 N 
ATOM     28  H   UNL     1       2.595  14.683  18.604  0.00  0.00    +0.000 HD
ATOM     29  H   UNL     1       1.191  15.311  19.352  0.00  0.00    +0.000 HD
ENDBRANCH  15  27
ENDBRANCH   1  22
BRANCH   3  30
ATOM     30  C   UNL     1       5.767   6.865  16.615  0.00  0.00    +0.000 C 
BRANCH  30  31
ATOM     31  O   UNL     1       5.158   6.741  15.327  0.00  0.00    +0.000 OA
ATOM     32  H   UNL     1       5.517   7.472  14.788  0.00  0.00    +0.000 HD
ENDBRANCH  30  31
ENDBRANCH   3  30
TORSDOF 4
ENDMDL
MODEL 5
REMARK VINA RESULT:      -7.8      2.966      8.071
REMARK  Name = 
REMARK  4 active torsions:
REMARK  status: ('A' for Active; 'I' for Inactive)
REMARK    1  A    between atoms: N_1  and  C_2
REMARK    2  A    between atoms: C_9  and  C_10
REMARK    3  A    between atoms: CA_12  and  C_13
REMARK    4  A    between atoms: C_13  and  O_14
REMARK                            x       y       z     vdW  Elec       q    Type
REMARK                         _______ _______ _______ _____ _____    ______ ____
ROOT
ATOM      1  C   UNL     1       1.557   9.650  17.930  0.00  0.00    +0.000 A 
ATOM      2  N   UNL     1       0.222   9.496  17.541  0.00  0.00    +0.000 N 
ATOM      3  CA  UNL     1      -0.770  10.412  17.889  0.00  0.00    +0.000 A 
ATOM      4  C   UNL     1      -0.509  11.352  18.832  0.00  0.00    +0.000 A 
ATOM      5  C   UNL     1       0.872  11.393  19.407  0.00  0.00    +0.000 A 
ATOM      6  C   UNL     1       1.349  12.566  19.868  0.00  0.00    +0.000 A 
ATOM      7  C   UNL     1       2.397  12.837  20.858  0.00  0.00    +0.000 A 
ATOM      8  C   UNL     1       3.097  13.983  20.702  0.00  0.00    +0.000 A 
ATOM      9  C   UNL     1       2.760  14.883  19.596  0.00  0.00    +0.000 A 
ATOM     10  C   UNL     1       2.221  14.392  18.462  0.00  0.00    +0.000 A 
ATOM     11  C   UNL     1       1.968  12.938  18.542  0.00  0.00    +0.000 A 
ATOM     12  N   UNL     1       2.324  11.952  17.779  0.00  0.00    +0.000 NA
ATOM     13  C   UNL     1       1.926  10.822  18.507  0.00  0.00    +0.000 A 
ATOM     14  H   UNL     1      -0.050   8.588  17.165  0.00  0.00    +0.000 HD
ENDROOT
BRANCH   1  22
ATOM     15  C   UNL     1       5.482   4.958  16.904  0.00  0.00    +0.000 C 
ATOM     16  C   UNL     1       5.244   4.277  18.023  0.00  0.00    +0.000 C 
ATOM     17  C   UNL     1       4.291   4.733  19.030  0.00  0.00    +0.000 C 
ATOM     18  O   UNL     1       4.090   4.093  20.049  0.00  0.00    +0.000 OA
ATOM     19  C   UNL     1       3.569   5.992  18.807  0.00  0.00    +0.000 A 
ATOM     20  C   UNL     1       2.615   6.453  19.715  0.00  0.00    +0.000 A 
ATOM     21  C   UNL     1       1.963   7.663  19.467  0.00  0.00    +0.000 A 
ATOM     22  C   UNL     1       2.271   8.393  18.315  0.00  0.00    +0.000 A 
ATOM     23  N   UNL     1       3.194   7.941  17.422  0.00  0.00    +0.000 NA
ATOM     24  C   UNL     1       3.819   6.752  17.680  0.00  0.00    +0.000 A 
ATOM     25  C   UNL     1       4.802   6.293  16.669  0.00  0.00    +0.000 C 
ATOM     26  O   UNL     1       5.088   6.955  15.681  0.00  0.00    +0.000 OA
BRANCH  15  27
ATOM     27  N   UNL     1       6.344   4.544  15.905  0.00  0.00    +0.000 N 
ATOM     28  H   UNL     1       6.487   3.537  15.852  0.00  0.00    +0.000 HD
ATOM     29  H   UNL     1       7.229   5.075  15.942  0.00  0.00    +0.000 HD
ENDBRANCH  15  27
ENDBRANCH   1  22
BRANCH   3  30
ATOM     30  C   UNL     1      -2.025  10.422  17.048  0.00  0.00    +0.000 C 
BRANCH  30  31
ATOM     31  O   UNL     1      -2.137  11.666  16.353  0.00  0.00    +0.000 OA
ATOM     32  H   UNL     1      -1.831  12.352  16.977  0.00  0.00    +0.000 HD
ENDBRANCH  30  31
ENDBRANCH   3  30
TORSDOF 4
ENDMDL
MODEL 6
REMARK VINA RESULT:      -7.8      2.302      4.024
REMARK  Name = 
REMARK  4 active torsions:
REMARK  status: ('A' for Active; 'I' for Inactive)
REMARK    1  A    between atoms: N_1  and  C_2
REMARK    2  A    between atoms: C_9  and  C_10
REMARK    3  A    between atoms: CA_12  and  C_13
REMARK    4  A    between atoms: C_13  and  O_14
REMARK                            x       y       z     vdW  Elec       q    Type
REMARK                         _______ _______ _______ _____ _____    ______ ____
ROOT
ATOM      1  C   UNL     1       2.358   7.189  18.644  0.00  0.00    +0.000 A 
ATOM      2  N   UNL     1       3.527   7.688  18.061  0.00  0.00    +0.000 N 
ATOM      3  CA  UNL     1       4.660   6.900  17.862  0.00  0.00    +0.000 A 
ATOM      4  C   UNL     1       4.743   5.686  18.463  0.00  0.00    +0.000 A 
ATOM      5  C   UNL     1       3.565   5.228  19.265  0.00  0.00    +0.000 A 
ATOM      6  C   UNL     1       3.339   3.905  19.390  0.00  0.00    +0.000 A 
ATOM      7  C   UNL     1       2.611   3.164  20.425  0.00  0.00    +0.000 A 
ATOM      8  C   UNL     1       2.010   2.016  20.040  0.00  0.00    +0.000 A 
ATOM      9  C   UNL     1       2.141   1.571  18.650  0.00  0.00    +0.000 A 
ATOM     10  C   UNL     1       2.321   2.473  17.664  0.00  0.00    +0.000 A 
ATOM     11  C   UNL     1       2.442   3.853  18.177  0.00  0.00    +0.000 A 
ATOM     12  N   UNL     1       1.808   4.946  17.886  0.00  0.00    +0.000 NA
ATOM     13  C   UNL     1       2.265   5.851  18.854  0.00  0.00    +0.000 A 
ATOM     14  H   UNL     1       3.604   8.700  17.967  0.00  0.00    +0.000 HD
ENDROOT
BRANCH   1  22
ATOM     15  C   UNL     1      -0.730  12.396  19.995  0.00  0.00    +0.000 C 
ATOM     16  C   UNL     1      -0.805  12.224  21.312  0.00  0.00    +0.000 C 
ATOM     17  C   UNL     1      -0.244  11.055  21.983  0.00  0.00    +0.000 C 
ATOM     18  O   UNL     1      -0.326  10.917  23.193  0.00  0.00    +0.000 OA
ATOM     19  C   UNL     1       0.425  10.026  21.177  0.00  0.00    +0.000 A 
ATOM     20  C   UNL     1       1.017   8.910  21.769  0.00  0.00    +0.000 A 
ATOM     21  C   UNL     1       1.630   7.950  20.961  0.00  0.00    +0.000 A 
ATOM     22  C   UNL     1       1.646   8.121  19.573  0.00  0.00    +0.000 A 
ATOM     23  N   UNL     1       1.078   9.214  18.993  0.00  0.00    +0.000 NA
ATOM     24  C   UNL     1       0.485  10.145  19.801  0.00  0.00    +0.000 A 
ATOM     25  C   UNL     1      -0.102  11.325  19.124  0.00  0.00    +0.000 C 
ATOM     26  O   UNL     1      -0.112  11.449  17.906  0.00  0.00    +0.000 OA
BRANCH  15  27
ATOM     27  N   UNL     1      -1.210  13.506  19.322  0.00  0.00    +0.000 N 
ATOM     28  H   UNL     1      -0.682  13.765  18.490  0.00  0.00    +0.000 HD
ATOM     29  H   UNL     1      -1.349  14.296  19.973  0.00  0.00    +0.000 HD
ENDBRANCH  15  27
ENDBRANCH   1  22
BRANCH   3  30
ATOM     30  C   UNL     1       5.653   7.369  16.825  0.00  0.00    +0.000 C 
BRANCH  30  31
ATOM     31  O   UNL     1       5.355   6.777  15.559  0.00  0.00    +0.000 OA
ATOM     32  H   UNL     1       6.057   6.118  15.397  0.00  0.00    +0.000 HD
ENDBRANCH  30  31
ENDBRANCH   3  30
TORSDOF 4
ENDMDL
MODEL 7
REMARK VINA RESULT:      -7.7      3.024      7.955
REMARK  Name = 
REMARK  4 active torsions:
REMARK  status: ('A' for Active; 'I' for Inactive)
REMARK    1  A    between atoms: N_1  and  C_2
REMARK    2  A    between atoms: C_9  and  C_10
REMARK    3  A    between atoms: CA_12  and  C_13
REMARK    4  A    between atoms: C_13  and  O_14
REMARK                            x       y       z     vdW  Elec       q    Type
REMARK                         _______ _______ _______ _____ _____    ______ ____
ROOT
ATOM      1  C   UNL     1       1.108  10.307  18.478  0.00  0.00    +0.000 A 
ATOM      2  N   UNL     1      -0.258  10.400  18.192  0.00  0.00    +0.000 N 
ATOM      3  CA  UNL     1      -0.998  11.555  18.437  0.00  0.00    +0.000 A 
ATOM      4  C   UNL     1      -0.463  12.541  19.199  0.00  0.00    +0.000 A 
ATOM      5  C   UNL     1       0.941  12.357  19.686  0.00  0.00    +0.000 A 
ATOM      6  C   UNL     1       1.695  13.449  19.924  0.00  0.00    +0.000 A 
ATOM      7  C   UNL     1       2.859  13.622  20.799  0.00  0.00    +0.000 A 
ATOM      8  C   UNL     1       3.770  14.546  20.421  0.00  0.00    +0.000 A 
ATOM      9  C   UNL     1       3.535  15.326  19.203  0.00  0.00    +0.000 A 
ATOM     10  C   UNL     1       2.807  14.806  18.194  0.00  0.00    +0.000 A 
ATOM     11  C   UNL     1       2.259  13.474  18.523  0.00  0.00    +0.000 A 
ATOM     12  N   UNL     1       2.330  12.332  17.913  0.00  0.00    +0.000 NA
ATOM     13  C   UNL     1       1.767  11.438  18.836  0.00  0.00    +0.000 A 
ATOM     14  H   UNL     1      -0.749   9.530  17.983  0.00  0.00    +0.000 HD
ENDROOT
BRANCH   1  22
ATOM     15  C   UNL     1       4.198   4.939  18.156  0.00  0.00    +0.000 C 
ATOM     16  C   UNL     1       3.787   4.426  19.313  0.00  0.00    +0.000 C 
ATOM     17  C   UNL     1       2.878   5.136  20.206  0.00  0.00    +0.000 C 
ATOM     18  O   UNL     1       2.515   4.647  21.264  0.00  0.00    +0.000 OA
ATOM     19  C   UNL     1       2.400   6.470  19.821  0.00  0.00    +0.000 A 
ATOM     20  C   UNL     1       1.496   7.176  20.616  0.00  0.00    +0.000 A 
ATOM     21  C   UNL     1       1.080   8.447  20.215  0.00  0.00    +0.000 A 
ATOM     22  C   UNL     1       1.570   8.993  19.024  0.00  0.00    +0.000 A 
ATOM     23  N   UNL     1       2.444   8.303  18.241  0.00  0.00    +0.000 NA
ATOM     24  C   UNL     1       2.838   7.058  18.649  0.00  0.00    +0.000 A 
ATOM     25  C   UNL     1       3.775   6.339  17.754  0.00  0.00    +0.000 C 
ATOM     26  O   UNL     1       4.224   6.838  16.731  0.00  0.00    +0.000 OA
BRANCH  15  27
ATOM     27  N   UNL     1       5.025   4.286  17.260  0.00  0.00    +0.000 N 
ATOM     28  H   UNL     1       4.955   3.269  17.273  0.00  0.00    +0.000 HD
ATOM     29  H   UNL     1       5.997   4.623  17.345  0.00  0.00    +0.000 HD
ENDBRANCH  15  27
ENDBRANCH   1  22
BRANCH   3  30
ATOM     30  C   UNL     1      -2.291  11.721  17.675  0.00  0.00    +0.000 C 
BRANCH  30  31
ATOM     31  O   UNL     1      -2.040  11.662  16.268  0.00  0.00    +0.000 OA
ATOM     32  H   UNL     1      -1.789  12.566  16.001  0.00  0.00    +0.000 HD
ENDBRANCH  30  31
ENDBRANCH   3  30
TORSDOF 4
ENDMDL
MODEL 8
REMARK VINA RESULT:      -7.7      2.320      7.483
REMARK  Name = 
REMARK  4 active torsions:
REMARK  status: ('A' for Active; 'I' for Inactive)
REMARK    1  A    between atoms: N_1  and  C_2
REMARK    2  A    between atoms: C_9  and  C_10
REMARK    3  A    between atoms: CA_12  and  C_13
REMARK    4  A    between atoms: C_13  and  O_14
REMARK                            x       y       z     vdW  Elec       q    Type
REMARK                         _______ _______ _______ _____ _____    ______ ____
ROOT
ATOM      1  C   UNL     1       1.113   8.905  19.431  0.00  0.00    +0.000 A 
ATOM      2  N   UNL     1       0.681   8.489  20.694  0.00  0.00    +0.000 N 
ATOM      3  CA  UNL     1       0.418   9.384  21.729  0.00  0.00    +0.000 A 
ATOM      4  C   UNL     1       0.820  10.675  21.612  0.00  0.00    +0.000 A 
ATOM      5  C   UNL     1       1.474  11.084  20.330  0.00  0.00    +0.000 A 
ATOM      6  C   UNL     1       1.373  12.367  19.929  0.00  0.00    +0.000 A 
ATOM      7  C   UNL     1       2.235  13.150  19.037  0.00  0.00    +0.000 A 
ATOM      8  C   UNL     1       1.638  14.133  18.326  0.00  0.00    +0.000 A 
ATOM      9  C   UNL     1       0.204  14.375  18.502  0.00  0.00    +0.000 A 
ATOM     10  C   UNL     1      -0.614  13.367  18.868  0.00  0.00    +0.000 A 
ATOM     11  C   UNL     1       0.121  12.111  19.125  0.00  0.00    +0.000 A 
ATOM     12  N   UNL     1      -0.025  10.910  18.658  0.00  0.00    +0.000 NA
ATOM     13  C   UNL     1       1.100  10.234  19.153  0.00  0.00    +0.000 A 
ATOM     14  H   UNL     1       0.754   7.493  20.905  0.00  0.00    +0.000 HD
ENDROOT
BRANCH   1  22
ATOM     15  C   UNL     1       4.692   3.853  19.061  0.00  0.00    +0.000 C 
ATOM     16  C   UNL     1       5.383   4.201  17.979  0.00  0.00    +0.000 C 
ATOM     17  C   UNL     1       5.157   5.460  17.276  0.00  0.00    +0.000 C 
ATOM     18  O   UNL     1       5.802   5.759  16.284  0.00  0.00    +0.000 OA
ATOM     19  C   UNL     1       4.125   6.378  17.776  0.00  0.00    +0.000 A 
ATOM     20  C   UNL     1       3.896   7.614  17.170  0.00  0.00    +0.000 A 
ATOM     21  C   UNL     1       2.895   8.448  17.673  0.00  0.00    +0.000 A 
ATOM     22  C   UNL     1       2.140   8.036  18.776  0.00  0.00    +0.000 A 
ATOM     23  N   UNL     1       2.368   6.836  19.376  0.00  0.00    +0.000 NA
ATOM     24  C   UNL     1       3.355   6.034  18.871  0.00  0.00    +0.000 A 
ATOM     25  C   UNL     1       3.577   4.746  19.570  0.00  0.00    +0.000 C 
ATOM     26  O   UNL     1       2.889   4.381  20.514  0.00  0.00    +0.000 OA
BRANCH  15  27
ATOM     27  N   UNL     1       4.900   2.691  19.782  0.00  0.00    +0.000 N 
ATOM     28  H   UNL     1       5.081   2.828  20.776  0.00  0.00    +0.000 HD
ATOM     29  H   UNL     1       5.609   2.097  19.322  0.00  0.00    +0.000 HD
ENDBRANCH  15  27
ENDBRANCH   1  22
BRANCH   3  30
ATOM     30  C   UNL     1      -0.474   8.904  22.848  0.00  0.00    +0.000 C 
BRANCH  30  31
ATOM     31  O   UNL     1      -0.069   9.495  24.085  0.00  0.00    +0.000 OA
ATOM     32  H   UNL     1      -0.789   9.313  24.720  0.00  0.00    +0.000 HD
ENDBRANCH  30  31
ENDBRANCH   3  30
TORSDOF 4
ENDMDL
MODEL 9
REMARK VINA RESULT:      -7.6      4.108     10.314
REMARK  Name = 
REMARK  4 active torsions:
REMARK  status: ('A' for Active; 'I' for Inactive)
REMARK    1  A    between atoms: N_1  and  C_2
REMARK    2  A    between atoms: C_9  and  C_10
REMARK    3  A    between atoms: CA_12  and  C_13
REMARK    4  A    between atoms: C_13  and  O_14
REMARK                            x       y       z     vdW  Elec       q    Type
REMARK                         _______ _______ _______ _____ _____    ______ ____
ROOT
ATOM      1  C   UNL     1      -1.943  12.388  23.287  0.00  0.00    +0.000 A 
ATOM      2  N   UNL     1      -1.322  13.623  23.502  0.00  0.00    +0.000 N 
ATOM      3  CA  UNL     1      -1.976  14.836  23.298  0.00  0.00    +0.000 A 
ATOM      4  C   UNL     1      -3.161  14.852  22.639  0.00  0.00    +0.000 A 
ATOM      5  C   UNL     1      -3.740  13.537  22.220  0.00  0.00    +0.000 A 
ATOM      6  C   UNL     1      -5.078  13.423  22.103  0.00  0.00    +0.000 A 
ATOM      7  C   UNL     1      -5.882  12.488  21.309  0.00  0.00    +0.000 A 
ATOM      8  C   UNL     1      -7.098  12.163  21.801  0.00  0.00    +0.000 A 
ATOM      9  C   UNL     1      -7.547  12.771  23.057  0.00  0.00    +0.000 A 
ATOM     10  C   UNL     1      -6.647  13.157  23.984  0.00  0.00    +0.000 A 
ATOM     11  C   UNL     1      -5.254  12.965  23.531  0.00  0.00    +0.000 A 
ATOM     12  N   UNL     1      -4.247  12.344  24.061  0.00  0.00    +0.000 NA
ATOM     13  C   UNL     1      -3.279  12.375  23.047  0.00  0.00    +0.000 A 
ATOM     14  H   UNL     1      -0.308  13.618  23.621  0.00  0.00    +0.000 HD
ENDROOT
BRANCH   1  22
ATOM     15  C   UNL     1       1.459   9.952  18.709  0.00  0.00    +0.000 C 
ATOM     16  C   UNL     1       1.703   8.773  19.274  0.00  0.00    +0.000 C 
ATOM     17  C   UNL     1       1.200   8.419  20.598  0.00  0.00    +0.000 C 
ATOM     18  O   UNL     1       1.438   7.332  21.098  0.00  0.00    +0.000 OA
ATOM     19  C   UNL     1       0.398   9.401  21.339  0.00  0.00    +0.000 A 
ATOM     20  C   UNL     1      -0.145   9.101  22.589  0.00  0.00    +0.000 A 
ATOM     21  C   UNL     1      -0.890  10.071  23.262  0.00  0.00    +0.000 A 
ATOM     22  C   UNL     1      -1.084  11.326  22.676  0.00  0.00    +0.000 A 
ATOM     23  N   UNL     1      -0.565  11.618  21.452  0.00  0.00    +0.000 NA
ATOM     24  C   UNL     1       0.159  10.654  20.806  0.00  0.00    +0.000 A 
ATOM     25  C   UNL     1       0.688  11.014  19.469  0.00  0.00    +0.000 C 
ATOM     26  O   UNL     1       0.540  12.125  18.979  0.00  0.00    +0.000 OA
BRANCH  15  27
ATOM     27  N   UNL     1       1.880  10.314  17.441  0.00  0.00    +0.000 N 
ATOM     28  H   UNL     1       2.856  10.106  17.237  0.00  0.00    +0.000 HD
ATOM     29  H   UNL     1       1.626  11.294  17.237  0.00  0.00    +0.000 HD
ENDBRANCH  15  27
ENDBRANCH   1  22
BRANCH   3  30
ATOM     30  C   UNL     1      -1.411  16.051  23.997  0.00  0.00    +0.000 C 
BRANCH  30  31
ATOM     31  O   UNL     1      -0.051  15.814  24.366  0.00  0.00    +0.000 OA
ATOM     32  H   UNL     1       0.051  14.844  24.412  0.00  0.00    +0.000 HD
ENDBRANCH  30  31
ENDBRANCH   3  30
TORSDOF 4
ENDMDL
