MODEL 1
REMARK VINA RESULT:      -7.9      0.000      0.000
REMARK  Name = 
REMARK  8 active torsions:
REMARK  status: ('A' for Active; 'I' for Inactive)
REMARK    1  A    between atoms: C_1  and  C_2
REMARK    2  A    between atoms: C_2  and  C_6
REMARK    3  A    between atoms: C_3  and  C_4
REMARK    4  A    between atoms: C_4  and  N_5
REMARK    5  A    between atoms: C_6  and  N_7
REMARK    6  A    between atoms: N_7  and  C_8
REMARK    7  A    between atoms: N_7  and  C_19
REMARK    8  A    between atoms: C_8  and  C_9
REMARK                            x       y       z     vdW  Elec       q    Type
REMARK                         _______ _______ _______ _____ _____    ______ ____
ROOT
ATOM      1  N   UNL     1       4.112   6.454  18.230  0.00  0.00    +0.000 NA
ENDROOT
BRANCH   1   2
ATOM      2  C   UNL     1       2.649   6.714  18.332  0.00  0.00    +0.000 C 
ATOM      3  C   UNL     1       1.827   5.783  19.246  0.00  0.00    +0.000 C 
ATOM      4  C   UNL     1       1.882   6.218  20.698  0.00  0.00    +0.000 C 
ATOM      5  C   UNL     1       1.186   7.562  20.839  0.00  0.00    +0.000 C 
ATOM      6  C   UNL     1       1.570   8.553  19.763  0.00  0.00    +0.000 A 
ATOM      7  C   UNL     1       1.140   9.876  19.902  0.00  0.00    +0.000 A 
ATOM      8  C   UNL     1       1.348  10.774  18.866  0.00  0.00    +0.000 A 
ATOM      9  C   UNL     1       1.978  10.317  17.728  0.00  0.00    +0.000 A 
ATOM     10  N   UNL     1       2.429   9.054  17.565  0.00  0.00    +0.000 NA
ATOM     11  C   UNL     1       2.224   8.172  18.580  0.00  0.00    +0.000 A 
ENDBRANCH   1   2
BRANCH   1  12
ATOM     12  C   UNL     1       4.677   6.713  16.899  0.00  0.00    +0.000 C 
BRANCH  12  14
ATOM     13  C   UNL     1       7.128   7.277  17.484  0.00  0.00    +0.000 C 
ATOM     14  C   UNL     1       6.164   6.477  16.648  0.00  0.00    +0.000 C 
ATOM     15  C   UNL     1       6.697   5.617  15.746  0.00  0.00    +0.000 C 
BRANCH  15  16
ATOM     16  C   UNL     1       6.037   4.637  14.829  0.00  0.00    +0.000 C 
BRANCH  16  17
ATOM     17  N   UNL     1       6.244   3.289  15.354  0.00  0.00    +0.000 NA
ATOM     18  H   UNL     1       6.309   3.333  16.371  0.00  0.00    +0.000 HD
ATOM     19  H   UNL     1       7.143   2.937  15.033  0.00  0.00    +0.000 HD
ENDBRANCH  16  17
ENDBRANCH  15  16
ENDBRANCH  12  14
ENDBRANCH   1  12
BRANCH   1  20
ATOM     20  C   UNL     1       4.746   5.431  19.081  0.00  0.00    +0.000 C 
BRANCH  20  21
ATOM     21  C   UNL     1       4.822   3.960  18.483  0.00  0.00    +0.000 C 
ATOM     22  C   UNL     1       4.703   2.918  19.627  0.00  0.00    +0.000 C 
ATOM     23  C   UNL     1       3.246   2.717  19.966  0.00  0.00    +0.000 A 
ATOM     24  C   UNL     1       2.750   2.793  21.262  0.00  0.00    +0.000 A 
ATOM     25  C   UNL     1       1.378   2.667  21.479  0.00  0.00    +0.000 A 
ATOM     26  C   UNL     1       0.513   2.432  20.408  0.00  0.00    +0.000 A 
ATOM     27  C   UNL     1       1.013   2.349  19.107  0.00  0.00    +0.000 A 
ATOM     28  C   UNL     1       2.378   2.512  18.881  0.00  0.00    +0.000 A 
ATOM     29  C   UNL     1       3.011   2.537  17.518  0.00  0.00    +0.000 C 
ATOM     30  N   UNL     1       3.844   3.747  17.358  0.00  0.00    +0.000 NA
ATOM     31  H   UNL     1       3.205   4.541  17.329  0.00  0.00    +0.000 HD
ENDBRANCH  20  21
ENDBRANCH   1  20
TORSDOF 7
ENDMDL
MODEL 2
REMARK VINA RESULT:      -7.5      0.887      1.564
REMARK  Name = 
REMARK  8 active torsions:
REMARK  status: ('A' for Active; 'I' for Inactive)
REMARK    1  A    between atoms: C_1  and  C_2
REMARK    2  A    between atoms: C_2  and  C_6
REMARK    3  A    between atoms: C_3  and  C_4
REMARK    4  A    between atoms: C_4  and  N_5
REMARK    5  A    between atoms: C_6  and  N_7
REMARK    6  A    between atoms: N_7  and  C_8
REMARK    7  A    between atoms: N_7  and  C_19
REMARK    8  A    between atoms: C_8  and  C_9
REMARK                            x       y       z     vdW  Elec       q    Type
REMARK                         _______ _______ _______ _____ _____    ______ ____
ROOT
ATOM      1  N   UNL     1       4.088   6.449  18.150  0.00  0.00    +0.000 NA
ENDROOT
BRANCH   1   2
ATOM      2  C   UNL     1       2.627   6.702  18.305  0.00  0.00    +0.000 C 
ATOM      3  C   UNL     1       1.844   5.771  19.252  0.00  0.00    +0.000 C 
ATOM      4  C   UNL     1       1.951   6.212  20.700  0.00  0.00    +0.000 C 
ATOM      5  C   UNL     1       1.254   7.553  20.861  0.00  0.00    +0.000 C 
ATOM      6  C   UNL     1       1.593   8.542  19.768  0.00  0.00    +0.000 A 
ATOM      7  C   UNL     1       1.162   9.863  19.917  0.00  0.00    +0.000 A 
ATOM      8  C   UNL     1       1.327  10.758  18.871  0.00  0.00    +0.000 A 
ATOM      9  C   UNL     1       1.917  10.300  17.713  0.00  0.00    +0.000 A 
ATOM     10  N   UNL     1       2.368   9.038  17.538  0.00  0.00    +0.000 NA
ATOM     11  C   UNL     1       2.205   8.159  18.563  0.00  0.00    +0.000 A 
ENDBRANCH   1   2
BRANCH   1  12
ATOM     12  C   UNL     1       4.625   6.819  16.834  0.00  0.00    +0.000 C 
BRANCH  12  14
ATOM     13  C   UNL     1       5.809   5.266  15.145  0.00  0.00    +0.000 C 
ATOM     14  C   UNL     1       5.919   6.181  16.337  0.00  0.00    +0.000 C 
ATOM     15  C   UNL     1       7.155   6.361  16.864  0.00  0.00    +0.000 C 
BRANCH  15  16
ATOM     16  C   UNL     1       7.617   7.245  17.979  0.00  0.00    +0.000 C 
BRANCH  16  17
ATOM     17  N   UNL     1       7.827   8.591  17.453  0.00  0.00    +0.000 NA
ATOM     18  H   UNL     1       7.674   8.585  16.445  0.00  0.00    +0.000 HD
ATOM     19  H   UNL     1       8.801   8.857  17.584  0.00  0.00    +0.000 HD
ENDBRANCH  16  17
ENDBRANCH  15  16
ENDBRANCH  12  14
ENDBRANCH   1  12
BRANCH   1  20
ATOM     20  C   UNL     1       4.735   5.357  18.898  0.00  0.00    +0.000 C 
BRANCH  20  21
ATOM     21  C   UNL     1       4.660   3.909  18.244  0.00  0.00    +0.000 C 
ATOM     22  C   UNL     1       4.639   2.828  19.356  0.00  0.00    +0.000 C 
ATOM     23  C   UNL     1       3.230   2.678  19.877  0.00  0.00    +0.000 A 
ATOM     24  C   UNL     1       2.911   2.723  21.228  0.00  0.00    +0.000 A 
ATOM     25  C   UNL     1       1.574   2.650  21.619  0.00  0.00    +0.000 A 
ATOM     26  C   UNL     1       0.567   2.497  20.664  0.00  0.00    +0.000 A 
ATOM     27  C   UNL     1       0.889   2.446  19.307  0.00  0.00    +0.000 A 
ATOM     28  C   UNL     1       2.220   2.557  18.909  0.00  0.00    +0.000 A 
ATOM     29  C   UNL     1       2.672   2.609  17.476  0.00  0.00    +0.000 C 
ATOM     30  N   UNL     1       3.536   3.786  17.250  0.00  0.00    +0.000 NA
ATOM     31  H   UNL     1       2.938   4.608  17.333  0.00  0.00    +0.000 HD
ENDBRANCH  20  21
ENDBRANCH   1  20
TORSDOF 7
ENDMDL
MODEL 3
REMARK VINA RESULT:      -7.2      4.362      7.851
REMARK  Name = 
REMARK  8 active torsions:
REMARK  status: ('A' for Active; 'I' for Inactive)
REMARK    1  A    between atoms: C_1  and  C_2
REMARK    2  A    between atoms: C_2  and  C_6
REMARK    3  A    between atoms: C_3  and  C_4
REMARK    4  A    between atoms: C_4  and  N_5
REMARK    5  A    between atoms: C_6  and  N_7
REMARK    6  A    between atoms: N_7  and  C_8
REMARK    7  A    between atoms: N_7  and  C_19
REMARK    8  A    between atoms: C_8  and  C_9
REMARK                            x       y       z     vdW  Elec       q    Type
REMARK                         _______ _______ _______ _____ _____    ______ ____
ROOT
ATOM      1  N   UNL     1      -1.391  11.179  19.661  0.00  0.00    +0.000 NA
ENDROOT
BRANCH   1   2
ATOM      2  C   UNL     1      -2.234  11.890  18.659  0.00  0.00    +0.000 C 
ATOM      3  C   UNL     1      -1.862  11.719  17.172  0.00  0.00    +0.000 C 
ATOM      4  C   UNL     1      -2.446  10.448  16.583  0.00  0.00    +0.000 C 
ATOM      5  C   UNL     1      -3.962  10.564  16.561  0.00  0.00    +0.000 C 
ATOM      6  C   UNL     1      -4.541  11.107  17.847  0.00  0.00    +0.000 A 
ATOM      7  C   UNL     1      -5.929  11.077  18.009  0.00  0.00    +0.000 A 
ATOM      8  C   UNL     1      -6.504  11.698  19.108  0.00  0.00    +0.000 A 
ATOM      9  C   UNL     1      -5.668  12.327  20.006  0.00  0.00    +0.000 A 
ATOM     10  N   UNL     1      -4.322  12.358  19.898  0.00  0.00    +0.000 NA
ATOM     11  C   UNL     1      -3.759  11.751  18.819  0.00  0.00    +0.000 A 
ENDBRANCH   1   2
BRANCH   1  12
ATOM     12  C   UNL     1      -0.844  12.049  20.711  0.00  0.00    +0.000 C 
BRANCH  12  14
ATOM     13  C   UNL     1      -2.240  13.178  22.567  0.00  0.00    +0.000 C 
ATOM     14  C   UNL     1      -1.425  11.992  22.121  0.00  0.00    +0.000 C 
ATOM     15  C   UNL     1      -1.278  10.977  23.008  0.00  0.00    +0.000 C 
BRANCH  15  16
ATOM     16  C   UNL     1      -0.609   9.647  22.860  0.00  0.00    +0.000 C 
BRANCH  16  17
ATOM     17  N   UNL     1       0.559   9.611  23.737  0.00  0.00    +0.000 NA
ATOM     18  H   UNL     1       1.176   8.855  23.441  0.00  0.00    +0.000 HD
ATOM     19  H   UNL     1       0.265   9.376  24.682  0.00  0.00    +0.000 HD
ENDBRANCH  16  17
ENDBRANCH  15  16
ENDBRANCH  12  14
ENDBRANCH   1  12
BRANCH   1  20
ATOM     20  C   UNL     1      -0.635   9.975  19.275  0.00  0.00    +0.000 C 
BRANCH  20  21
ATOM     21  C   UNL     1       0.922  10.169  19.016  0.00  0.00    +0.000 C 
ATOM     22  C   UNL     1       1.734   9.520  20.167  0.00  0.00    +0.000 C 
ATOM     23  C   UNL     1       1.864   8.038  19.910  0.00  0.00    +0.000 A 
ATOM     24  C   UNL     1       1.547   7.071  20.857  0.00  0.00    +0.000 A 
ATOM     25  C   UNL     1       1.626   5.722  20.512  0.00  0.00    +0.000 A 
ATOM     26  C   UNL     1       2.052   5.343  19.238  0.00  0.00    +0.000 A 
ATOM     27  C   UNL     1       2.375   6.315  18.289  0.00  0.00    +0.000 A 
ATOM     28  C   UNL     1       2.262   7.664  18.616  0.00  0.00    +0.000 A 
ATOM     29  C   UNL     1       2.492   8.791  17.648  0.00  0.00    +0.000 C 
ATOM     30  N   UNL     1       1.335   9.710  17.642  0.00  0.00    +0.000 NA
ATOM     31  H   UNL     1       0.558   9.201  17.222  0.00  0.00    +0.000 HD
ENDBRANCH  20  21
ENDBRANCH   1  20
TORSDOF 7
ENDMDL
MODEL 4
REMARK VINA RESULT:      -7.1      1.248      5.083
REMARK  Name = 
REMARK  8 active torsions:
REMARK  status: ('A' for Active; 'I' for Inactive)
REMARK    1  A    between atoms: C_1  and  C_2
REMARK    2  A    between atoms: C_2  and  C_6
REMARK    3  A    between atoms: C_3  and  C_4
REMARK    4  A    between atoms: C_4  and  N_5
REMARK    5  A    between atoms: C_6  and  N_7
REMARK    6  A    between atoms: N_7  and  C_8
REMARK    7  A    between atoms: N_7  and  C_19
REMARK    8  A    between atoms: C_8  and  C_9
REMARK                            x       y       z     vdW  Elec       q    Type
REMARK                         _______ _______ _______ _____ _____    ______ ____
ROOT
ATOM      1  N   UNL     1       4.455   5.458  18.347  0.00  0.00    +0.000 NA
ENDROOT
BRANCH   1   2
ATOM      2  C   UNL     1       4.960   6.225  17.173  0.00  0.00    +0.000 C 
ATOM      3  C   UNL     1       5.859   7.445  17.458  0.00  0.00    +0.000 C 
ATOM      4  C   UNL     1       7.308   7.047  17.668  0.00  0.00    +0.000 C 
ATOM      5  C   UNL     1       7.862   6.492  16.365  0.00  0.00    +0.000 C 
ATOM      6  C   UNL     1       6.927   5.519  15.682  0.00  0.00    +0.000 A 
ATOM      7  C   UNL     1       7.410   4.804  14.582  0.00  0.00    +0.000 A 
ATOM      8  C   UNL     1       6.540   4.016  13.843  0.00  0.00    +0.000 A 
ATOM      9  C   UNL     1       5.218   3.971  14.232  0.00  0.00    +0.000 A 
ATOM     10  N   UNL     1       4.718   4.628  15.302  0.00  0.00    +0.000 NA
ATOM     11  C   UNL     1       5.571   5.402  16.025  0.00  0.00    +0.000 A 
ENDBRANCH   1   2
BRANCH   1  12
ATOM     12  C   UNL     1       3.316   6.086  19.030  0.00  0.00    +0.000 C 
BRANCH  12  14
ATOM     13  C   UNL     1       1.299   5.334  17.605  0.00  0.00    +0.000 C 
ATOM     14  C   UNL     1       2.070   6.465  18.233  0.00  0.00    +0.000 C 
ATOM     15  C   UNL     1       1.593   7.719  18.040  0.00  0.00    +0.000 C 
BRANCH  15  16
ATOM     16  C   UNL     1       2.067   9.032  18.577  0.00  0.00    +0.000 C 
BRANCH  16  17
ATOM     17  N   UNL     1       1.961  10.037  17.522  0.00  0.00    +0.000 NA
ATOM     18  H   UNL     1       1.945   9.569  16.616  0.00  0.00    +0.000 HD
ATOM     19  H   UNL     1       2.797  10.616  17.522  0.00  0.00    +0.000 HD
ENDBRANCH  16  17
ENDBRANCH  15  16
ENDBRANCH  12  14
ENDBRANCH   1  12
BRANCH   1  20
ATOM     20  C   UNL     1       5.373   4.614  19.132  0.00  0.00    +0.000 C 
BRANCH  20  21
ATOM     21  C   UNL     1       5.229   3.042  18.940  0.00  0.00    +0.000 C 
ATOM     22  C   UNL     1       4.675   2.399  20.238  0.00  0.00    +0.000 C 
ATOM     23  C   UNL     1       3.172   2.545  20.263  0.00  0.00    +0.000 A 
ATOM     24  C   UNL     1       2.476   3.064  21.347  0.00  0.00    +0.000 A 
ATOM     25  C   UNL     1       1.095   3.233  21.258  0.00  0.00    +0.000 A 
ATOM     26  C   UNL     1       0.410   2.851  20.103  0.00  0.00    +0.000 A 
ATOM     27  C   UNL     1       1.110   2.324  19.015  0.00  0.00    +0.000 A 
ATOM     28  C   UNL     1       2.495   2.189  19.085  0.00  0.00    +0.000 A 
ATOM     29  C   UNL     1       3.356   1.724  17.945  0.00  0.00    +0.000 C 
ATOM     30  N   UNL     1       4.452   2.685  17.700  0.00  0.00    +0.000 NA
ATOM     31  H   UNL     1       4.021   3.533  17.332  0.00  0.00    +0.000 HD
ENDBRANCH  20  21
ENDBRANCH   1  20
TORSDOF 7
ENDMDL
MODEL 5
REMARK VINA RESULT:      -7.1      2.818      6.293
REMARK  Name = 
REMARK  8 active torsions:
REMARK  status: ('A' for Active; 'I' for Inactive)
REMARK    1  A    between atoms: C_1  and  C_2
REMARK    2  A    between atoms: C_2  and  C_6
REMARK    3  A    between atoms: C_3  and  C_4
REMARK    4  A    between atoms: C_4  and  N_5
REMARK    5  A    between atoms: C_6  and  N_7
REMARK    6  A    between atoms: N_7  and  C_8
REMARK    7  A    between atoms: N_7  and  C_19
REMARK    8  A    between atoms: C_8  and  C_9
REMARK                            x       y       z     vdW  Elec       q    Type
REMARK                         _______ _______ _______ _____ _____    ______ ____
ROOT
ATOM      1  N   UNL     1       0.441   9.499  20.158  0.00  0.00    +0.000 NA
ENDROOT
BRANCH   1   2
ATOM      2  C   UNL     1       0.431  10.215  18.851  0.00  0.00    +0.000 C 
ATOM      3  C   UNL     1      -0.689   9.853  17.855  0.00  0.00    +0.000 C 
ATOM      4  C   UNL     1      -1.972  10.610  18.143  0.00  0.00    +0.000 C 
ATOM      5  C   UNL     1      -1.740  12.091  17.894  0.00  0.00    +0.000 C 
ATOM      6  C   UNL     1      -0.442  12.602  18.480  0.00  0.00    +0.000 A 
ATOM      7  C   UNL     1      -0.216  13.981  18.479  0.00  0.00    +0.000 A 
ATOM      8  C   UNL     1       1.020  14.472  18.873  0.00  0.00    +0.000 A 
ATOM      9  C   UNL     1       1.986  13.565  19.253  0.00  0.00    +0.000 A 
ATOM     10  N   UNL     1       1.799  12.227  19.291  0.00  0.00    +0.000 NA
ATOM     11  C   UNL     1       0.587  11.746  18.903  0.00  0.00    +0.000 A 
ENDBRANCH   1   2
BRANCH   1  12
ATOM     12  C   UNL     1       0.830  10.339  21.300  0.00  0.00    +0.000 C 
BRANCH  12  14
ATOM     13  C   UNL     1      -0.290   9.393  23.424  0.00  0.00    +0.000 C 
ATOM     14  C   UNL     1      -0.143  10.539  22.459  0.00  0.00    +0.000 C 
ATOM     15  C   UNL     1      -0.883  11.649  22.701  0.00  0.00    +0.000 C 
BRANCH  15  16
ATOM     16  C   UNL     1      -0.916  12.968  21.996  0.00  0.00    +0.000 C 
BRANCH  16  17
ATOM     17  N   UNL     1       0.212  13.774  22.455  0.00  0.00    +0.000 NA
ATOM     18  H   UNL     1       1.018  13.592  21.858  0.00  0.00    +0.000 HD
ATOM     19  H   UNL     1       0.484  13.474  23.389  0.00  0.00    +0.000 HD
ENDBRANCH  16  17
ENDBRANCH  15  16
ENDBRANCH  12  14
ENDBRANCH   1  12
BRANCH   1  20
ATOM     20  C   UNL     1       0.729   8.055  20.212  0.00  0.00    +0.000 C 
BRANCH  20  21
ATOM     21  C   UNL     1       2.201   7.610  19.806  0.00  0.00    +0.000 C 
ATOM     22  C   UNL     1       2.614   6.354  20.617  0.00  0.00    +0.000 C 
ATOM     23  C   UNL     1       2.047   5.124  19.951  0.00  0.00    +0.000 A 
ATOM     24  C   UNL     1       1.314   4.159  20.633  0.00  0.00    +0.000 A 
ATOM     25  C   UNL     1       0.763   3.091  19.926  0.00  0.00    +0.000 A 
ATOM     26  C   UNL     1       0.973   2.970  18.551  0.00  0.00    +0.000 A 
ATOM     27  C   UNL     1       1.714   3.936  17.868  0.00  0.00    +0.000 A 
ATOM     28  C   UNL     1       2.235   5.026  18.563  0.00  0.00    +0.000 A 
ATOM     29  C   UNL     1       2.965   6.169  17.916  0.00  0.00    +0.000 C 
ATOM     30  N   UNL     1       2.364   7.459  18.317  0.00  0.00    +0.000 NA
ATOM     31  H   UNL     1       1.442   7.499  17.883  0.00  0.00    +0.000 HD
ENDBRANCH  20  21
ENDBRANCH   1  20
TORSDOF 7
ENDMDL
MODEL 6
REMARK VINA RESULT:      -7.0      1.657      6.267
REMARK  Name = 
REMARK  8 active torsions:
REMARK  status: ('A' for Active; 'I' for Inactive)
REMARK    1  A    between atoms: C_1  and  C_2
REMARK    2  A    between atoms: C_2  and  C_6
REMARK    3  A    between atoms: C_3  and  C_4
REMARK    4  A    between atoms: C_4  and  N_5
REMARK    5  A    between atoms: C_6  and  N_7
REMARK    6  A    between atoms: N_7  and  C_8
REMARK    7  A    between atoms: N_7  and  C_19
REMARK    8  A    between atoms: C_8  and  C_9
REMARK                            x       y       z     vdW  Elec       q    Type
REMARK                         _______ _______ _______ _____ _____    ______ ____
ROOT
ATOM      1  N   UNL     1       2.927   6.454  18.388  0.00  0.00    +0.000 NA
ENDROOT
BRANCH   1   2
ATOM      2  C   UNL     1       2.178   5.167  18.372  0.00  0.00    +0.000 C 
ATOM      3  C   UNL     1       2.184   4.361  17.057  0.00  0.00    +0.000 C 
ATOM      4  C   UNL     1       3.427   3.501  16.923  0.00  0.00    +0.000 C 
ATOM      5  C   UNL     1       3.404   2.427  17.999  0.00  0.00    +0.000 C 
ATOM      6  C   UNL     1       3.022   2.953  19.364  0.00  0.00    +0.000 A 
ATOM      7  C   UNL     1       3.153   2.097  20.460  0.00  0.00    +0.000 A 
ATOM      8  C   UNL     1       2.676   2.495  21.700  0.00  0.00    +0.000 A 
ATOM      9  C   UNL     1       2.084   3.736  21.799  0.00  0.00    +0.000 A 
ATOM     10  N   UNL     1       1.960   4.602  20.769  0.00  0.00    +0.000 NA
ATOM     11  C   UNL     1       2.426   4.211  19.552  0.00  0.00    +0.000 A 
ENDBRANCH   1   2
BRANCH   1  12
ATOM     12  C   UNL     1       4.379   6.302  18.555  0.00  0.00    +0.000 C 
BRANCH  12  14
ATOM     13  C   UNL     1       4.746   6.968  16.088  0.00  0.00    +0.000 C 
ATOM     14  C   UNL     1       5.288   6.309  17.329  0.00  0.00    +0.000 C 
ATOM     15  C   UNL     1       6.534   5.780  17.252  0.00  0.00    +0.000 C 
BRANCH  15  16
ATOM     16  C   UNL     1       7.383   5.136  18.302  0.00  0.00    +0.000 C 
BRANCH  16  17
ATOM     17  N   UNL     1       8.198   4.099  17.675  0.00  0.00    +0.000 NA
ATOM     18  H   UNL     1       7.689   3.706  16.883  0.00  0.00    +0.000 HD
ATOM     19  H   UNL     1       8.332   3.331  18.329  0.00  0.00    +0.000 HD
ENDBRANCH  16  17
ENDBRANCH  15  16
ENDBRANCH  12  14
ENDBRANCH   1  12
BRANCH   1  20
ATOM     20  C   UNL     1       2.283   7.682  18.885  0.00  0.00    +0.000 C 
BRANCH  20  21
ATOM     21  C   UNL     1       1.888   8.768  17.793  0.00  0.00    +0.000 C 
ATOM     22  C   UNL     1       0.417   9.216  18.000  0.00  0.00    +0.000 C 
ATOM     23  C   UNL     1       0.366  10.268  19.081  0.00  0.00    +0.000 A 
ATOM     24  C   UNL     1      -0.495  10.199  20.169  0.00  0.00    +0.000 A 
ATOM     25  C   UNL     1      -0.426  11.177  21.161  0.00  0.00    +0.000 A 
ATOM     26  C   UNL     1       0.476  12.237  21.046  0.00  0.00    +0.000 A 
ATOM     27  C   UNL     1       1.337  12.309  19.949  0.00  0.00    +0.000 A 
ATOM     28  C   UNL     1       1.298  11.314  18.974  0.00  0.00    +0.000 A 
ATOM     29  C   UNL     1       2.238  11.240  17.804  0.00  0.00    +0.000 C 
ATOM     30  N   UNL     1       2.872   9.907  17.735  0.00  0.00    +0.000 NA
ATOM     31  H   UNL     1       3.497   9.837  18.537  0.00  0.00    +0.000 HD
ENDBRANCH  20  21
ENDBRANCH   1  20
TORSDOF 7
ENDMDL
MODEL 7
REMARK VINA RESULT:      -7.0      2.774      6.646
REMARK  Name = 
REMARK  8 active torsions:
REMARK  status: ('A' for Active; 'I' for Inactive)
REMARK    1  A    between atoms: C_1  and  C_2
REMARK    2  A    between atoms: C_2  and  C_6
REMARK    3  A    between atoms: C_3  and  C_4
REMARK    4  A    between atoms: C_4  and  N_5
REMARK    5  A    between atoms: C_6  and  N_7
REMARK    6  A    between atoms: N_7  and  C_8
REMARK    7  A    between atoms: N_7  and  C_19
REMARK    8  A    between atoms: C_8  and  C_9
REMARK                            x       y       z     vdW  Elec       q    Type
REMARK                         _______ _______ _______ _____ _____    ______ ____
ROOT
ATOM      1  N   UNL     1       1.146   9.604  19.589  0.00  0.00    +0.000 NA
ENDROOT
BRANCH   1   2
ATOM      2  C   UNL     1       0.592  10.451  18.495  0.00  0.00    +0.000 C 
ATOM      3  C   UNL     1      -0.800  10.076  17.946  0.00  0.00    +0.000 C 
ATOM      4  C   UNL     1      -1.919  10.650  18.795  0.00  0.00    +0.000 C 
ATOM      5  C   UNL     1      -1.891  12.166  18.690  0.00  0.00    +0.000 C 
ATOM      6  C   UNL     1      -0.503  12.751  18.818  0.00  0.00    +0.000 A 
ATOM      7  C   UNL     1      -0.380  14.139  18.928  0.00  0.00    +0.000 A 
ATOM      8  C   UNL     1       0.880  14.719  18.899  0.00  0.00    +0.000 A 
ATOM      9  C   UNL     1       1.972  13.889  18.761  0.00  0.00    +0.000 A 
ATOM     10  N   UNL     1       1.897  12.543  18.675  0.00  0.00    +0.000 NA
ATOM     11  C   UNL     1       0.661  11.974  18.702  0.00  0.00    +0.000 A 
ENDBRANCH   1   2
BRANCH   1  12
ATOM     12  C   UNL     1       1.029  10.199  20.927  0.00  0.00    +0.000 C 
BRANCH  12  14
ATOM     13  C   UNL     1      -0.524   8.406  21.948  0.00  0.00    +0.000 C 
ATOM     14  C   UNL     1      -0.176   9.864  21.803  0.00  0.00    +0.000 C 
ATOM     15  C   UNL     1      -0.959  10.754  22.462  0.00  0.00    +0.000 C 
BRANCH  15  16
ATOM     16  C   UNL     1      -0.846  12.240  22.589  0.00  0.00    +0.000 C 
BRANCH  16  17
ATOM     17  N   UNL     1      -2.125  12.841  22.218  0.00  0.00    +0.000 NA
ATOM     18  H   UNL     1      -2.431  13.465  22.965  0.00  0.00    +0.000 HD
ATOM     19  H   UNL     1      -2.834  12.114  22.155  0.00  0.00    +0.000 HD
ENDBRANCH  16  17
ENDBRANCH  15  16
ENDBRANCH  12  14
ENDBRANCH   1  12
BRANCH   1  20
ATOM     20  C   UNL     1       2.262   8.681  19.320  0.00  0.00    +0.000 C 
BRANCH  20  21
ATOM     21  C   UNL     1       1.898   7.135  19.232  0.00  0.00    +0.000 C 
ATOM     22  C   UNL     1       2.354   6.562  17.865  0.00  0.00    +0.000 C 
ATOM     23  C   UNL     1       3.824   6.224  17.933  0.00  0.00    +0.000 A 
ATOM     24  C   UNL     1       4.749   6.658  16.991  0.00  0.00    +0.000 A 
ATOM     25  C   UNL     1       6.100   6.362  17.169  0.00  0.00    +0.000 A 
ATOM     26  C   UNL     1       6.517   5.605  18.266  0.00  0.00    +0.000 A 
ATOM     27  C   UNL     1       5.587   5.164  19.209  0.00  0.00    +0.000 A 
ATOM     28  C   UNL     1       4.241   5.490  19.055  0.00  0.00    +0.000 A 
ATOM     29  C   UNL     1       3.170   5.150  20.054  0.00  0.00    +0.000 C 
ATOM     30  N   UNL     1       2.403   6.359  20.420  0.00  0.00    +0.000 NA
ATOM     31  H   UNL     1       3.034   6.956  20.954  0.00  0.00    +0.000 HD
ENDBRANCH  20  21
ENDBRANCH   1  20
TORSDOF 7
ENDMDL
MODEL 8
REMARK VINA RESULT:      -6.9      4.656      8.309
REMARK  Name = 
REMARK  8 active torsions:
REMARK  status: ('A' for Active; 'I' for Inactive)
REMARK    1  A    between atoms: C_1  and  C_2
REMARK    2  A    between atoms: C_2  and  C_6
REMARK    3  A    between atoms: C_3  and  C_4
REMARK    4  A    between atoms: C_4  and  N_5
REMARK    5  A    between atoms: C_6  and  N_7
REMARK    6  A    between atoms: N_7  and  C_8
REMARK    7  A    between atoms: N_7  and  C_19
REMARK    8  A    between atoms: C_8  and  C_9
REMARK                            x       y       z     vdW  Elec       q    Type
REMARK                         _______ _______ _______ _____ _____    ______ ____
ROOT
ATOM      1  N   UNL     1      -1.433  11.118  19.839  0.00  0.00    +0.000 NA
ENDROOT
BRANCH   1   2
ATOM      2  C   UNL     1      -2.215  11.873  18.820  0.00  0.00    +0.000 C 
ATOM      3  C   UNL     1      -1.789  11.721  17.345  0.00  0.00    +0.000 C 
ATOM      4  C   UNL     1      -2.384  10.480  16.707  0.00  0.00    +0.000 C 
ATOM      5  C   UNL     1      -3.894  10.639  16.627  0.00  0.00    +0.000 C 
ATOM      6  C   UNL     1      -4.509  11.173  17.901  0.00  0.00    +0.000 A 
ATOM      7  C   UNL     1      -5.903  11.179  18.007  0.00  0.00    +0.000 A 
ATOM      8  C   UNL     1      -6.503  11.794  19.096  0.00  0.00    +0.000 A 
ATOM      9  C   UNL     1      -5.687  12.381  20.039  0.00  0.00    +0.000 A 
ATOM     10  N   UNL     1      -4.337  12.375  19.985  0.00  0.00    +0.000 NA
ATOM     11  C   UNL     1      -3.748  11.774  18.916  0.00  0.00    +0.000 A 
ENDBRANCH   1   2
BRANCH   1  12
ATOM     12  C   UNL     1      -0.951  11.941  20.956  0.00  0.00    +0.000 C 
BRANCH  12  14
ATOM     13  C   UNL     1      -0.752  10.319  22.955  0.00  0.00    +0.000 C 
ATOM     14  C   UNL     1      -1.344  11.582  22.387  0.00  0.00    +0.000 C 
ATOM     15  C   UNL     1      -2.172  12.292  23.191  0.00  0.00    +0.000 C 
BRANCH  15  16
ATOM     16  C   UNL     1      -2.854  13.605  22.969  0.00  0.00    +0.000 C 
BRANCH  16  17
ATOM     17  N   UNL     1      -4.293  13.420  23.137  0.00  0.00    +0.000 NA
ATOM     18  H   UNL     1      -4.759  14.324  23.051  0.00  0.00    +0.000 HD
ATOM     19  H   UNL     1      -4.485  13.097  24.083  0.00  0.00    +0.000 HD
ENDBRANCH  16  17
ENDBRANCH  15  16
ENDBRANCH  12  14
ENDBRANCH   1  12
BRANCH   1  20
ATOM     20  C   UNL     1      -0.655   9.930  19.447  0.00  0.00    +0.000 C 
BRANCH  20  21
ATOM     21  C   UNL     1       0.905  10.146  19.226  0.00  0.00    +0.000 C 
ATOM     22  C   UNL     1       1.702   9.426  20.346  0.00  0.00    +0.000 C 
ATOM     23  C   UNL     1       1.843   7.964  19.994  0.00  0.00    +0.000 A 
ATOM     24  C   UNL     1       1.516   6.937  20.870  0.00  0.00    +0.000 A 
ATOM     25  C   UNL     1       1.607   5.613  20.439  0.00  0.00    +0.000 A 
ATOM     26  C   UNL     1       2.055   5.321  19.149  0.00  0.00    +0.000 A 
ATOM     27  C   UNL     1       2.389   6.354  18.271  0.00  0.00    +0.000 A 
ATOM     28  C   UNL     1       2.264   7.679  18.685  0.00  0.00    +0.000 A 
ATOM     29  C   UNL     1       2.504   8.867  17.797  0.00  0.00    +0.000 C 
ATOM     30  N   UNL     1       1.343   9.781  17.832  0.00  0.00    +0.000 NA
ATOM     31  H   UNL     1       0.575   9.297  17.367  0.00  0.00    +0.000 HD
ENDBRANCH  20  21
ENDBRANCH   1  20
TORSDOF 7
ENDMDL
MODEL 9
REMARK VINA RESULT:      -6.9      1.816      5.962
REMARK  Name = 
REMARK  8 active torsions:
REMARK  status: ('A' for Active; 'I' for Inactive)
REMARK    1  A    between atoms: C_1  and  C_2
REMARK    2  A    between atoms: C_2  and  C_6
REMARK    3  A    between atoms: C_3  and  C_4
REMARK    4  A    between atoms: C_4  and  N_5
REMARK    5  A    between atoms: C_6  and  N_7
REMARK    6  A    between atoms: N_7  and  C_8
REMARK    7  A    between atoms: N_7  and  C_19
REMARK    8  A    between atoms: C_8  and  C_9
REMARK                            x       y       z     vdW  Elec       q    Type
REMARK                         _______ _______ _______ _____ _____    ______ ____
ROOT
ATOM      1  N   UNL     1       2.863   5.803  17.777  0.00  0.00    +0.000 NA
ENDROOT
BRANCH   1   2
ATOM      2  C   UNL     1       2.289   4.439  17.950  0.00  0.00    +0.000 C 
ATOM      3  C   UNL     1       2.690   3.365  16.918  0.00  0.00    +0.000 C 
ATOM      4  C   UNL     1       4.019   2.718  17.260  0.00  0.00    +0.000 C 
ATOM      5  C   UNL     1       3.869   1.931  18.552  0.00  0.00    +0.000 C 
ATOM      6  C   UNL     1       3.125   2.686  19.631  0.00  0.00    +0.000 A 
ATOM      7  C   UNL     1       3.094   2.139  20.916  0.00  0.00    +0.000 A 
ATOM      8  C   UNL     1       2.301   2.726  21.891  0.00  0.00    +0.000 A 
ATOM      9  C   UNL     1       1.566   3.839  21.544  0.00  0.00    +0.000 A 
ATOM     10  N   UNL     1       1.587   4.412  20.321  0.00  0.00    +0.000 NA
ATOM     11  C   UNL     1       2.363   3.835  19.364  0.00  0.00    +0.000 A 
ENDBRANCH   1   2
BRANCH   1  12
ATOM     12  C   UNL     1       4.279   5.910  18.155  0.00  0.00    +0.000 C 
BRANCH  12  14
ATOM     13  C   UNL     1       4.906   6.744  15.793  0.00  0.00    +0.000 C 
ATOM     14  C   UNL     1       5.342   6.079  17.072  0.00  0.00    +0.000 C 
ATOM     15  C   UNL     1       6.638   5.688  17.154  0.00  0.00    +0.000 C 
BRANCH  15  16
ATOM     16  C   UNL     1       7.400   5.079  18.288  0.00  0.00    +0.000 C 
BRANCH  16  17
ATOM     17  N   UNL     1       8.308   4.068  17.754  0.00  0.00    +0.000 NA
ATOM     18  H   UNL     1       9.158   4.523  17.423  0.00  0.00    +0.000 HD
ATOM     19  H   UNL     1       7.887   3.635  16.935  0.00  0.00    +0.000 HD
ENDBRANCH  16  17
ENDBRANCH  15  16
ENDBRANCH  12  14
ENDBRANCH   1  12
BRANCH   1  20
ATOM     20  C   UNL     1       2.004   6.992  17.906  0.00  0.00    +0.000 C 
BRANCH  20  21
ATOM     21  C   UNL     1       2.486   8.107  18.932  0.00  0.00    +0.000 C 
ATOM     22  C   UNL     1       2.193   9.518  18.357  0.00  0.00    +0.000 C 
ATOM     23  C   UNL     1       0.751   9.875  18.629  0.00  0.00    +0.000 A 
ATOM     24  C   UNL     1      -0.118  10.328  17.644  0.00  0.00    +0.000 A 
ATOM     25  C   UNL     1      -1.454  10.565  17.965  0.00  0.00    +0.000 A 
ATOM     26  C   UNL     1      -1.909  10.383  19.273  0.00  0.00    +0.000 A 
ATOM     27  C   UNL     1      -1.033   9.933  20.263  0.00  0.00    +0.000 A 
ATOM     28  C   UNL     1       0.294   9.659  19.939  0.00  0.00    +0.000 A 
ATOM     29  C   UNL     1       1.296   9.083  20.899  0.00  0.00    +0.000 C 
ATOM     30  N   UNL     1       1.939   7.885  20.318  0.00  0.00    +0.000 NA
ATOM     31  H   UNL     1       1.222   7.161  20.272  0.00  0.00    +0.000 HD
ENDBRANCH  20  21
ENDBRANCH   1  20
TORSDOF 7
ENDMDL
