MODEL 1
REMARK VINA RESULT:      -7.5      0.000      0.000
REMARK  Name = 
REMARK  7 active torsions:
REMARK  status: ('A' for Active; 'I' for Inactive)
REMARK    1  A    between atoms: C_1  and  C_2
REMARK    2  A    between atoms: C_8  and  S_9
REMARK    3  A    between atoms: S_9  and  N_12
REMARK    4  A    between atoms: C_14  and  O_15
REMARK    5  A    between atoms: O_15  and  C_16
REMARK    6  A    between atoms: C_18  and  C_19
REMARK    7  A    between atoms: N_20  and  C_21
REMARK                            x       y       z     vdW  Elec       q    Type
REMARK                         _______ _______ _______ _____ _____    ______ ____
ROOT
ATOM      1  N   UNL     1       2.916   4.122  19.313  0.00  0.00    +0.000 NA
ATOM      2  C   UNL     1       2.953   4.757  20.656  0.00  0.00    +0.000 C 
ATOM      3  C   UNL     1       2.493   6.112  20.068  0.00  0.00    +0.000 C 
ATOM      4  C   UNL     1       2.486   5.397  18.697  0.00  0.00    +0.000 C 
ENDROOT
BRANCH   1   5
ATOM      5  S   UNL     1       4.014   3.022  18.666  0.00  0.00    +0.000 S 
ATOM      6  O   UNL     1       3.249   2.061  17.907  0.00  0.00    +0.000 OA
ATOM      7  O   UNL     1       4.921   2.617  19.718  0.00  0.00    +0.000 OA
BRANCH   5  15
ATOM      8  C   UNL     1       6.154   5.326  19.456  0.00  0.00    +0.000 C 
ATOM      9  C   UNL     1       5.866   5.081  17.999  0.00  0.00    +0.000 A 
ATOM     10  C   UNL     1       6.488   5.854  16.995  0.00  0.00    +0.000 A 
ATOM     11 CL   UNL     1       7.619   7.118  17.352  0.00  0.00    +0.000 Cl
ATOM     12  C   UNL     1       6.214   5.650  15.636  0.00  0.00    +0.000 A 
ATOM     13  C   UNL     1       5.301   4.684  15.236  0.00  0.00    +0.000 A 
ATOM     14  C   UNL     1       4.659   3.922  16.201  0.00  0.00    +0.000 A 
ATOM     15  C   UNL     1       4.937   4.106  17.571  0.00  0.00    +0.000 A 
ENDBRANCH   5  15
ENDBRANCH   1   5
BRANCH   3  16
ATOM     16  O   UNL     1       1.234   6.611  20.576  0.00  0.00    +0.000 OA
BRANCH  16  17
ATOM     17  C   UNL     1       1.037   7.973  20.527  0.00  0.00    +0.000 A 
ATOM     18  C   UNL     1       0.364   8.493  21.691  0.00  0.00    +0.000 A 
ATOM     19  C   UNL     1       0.018   9.790  21.781  0.00  0.00    +0.000 A 
ATOM     20  C   UNL     1      -0.679  10.307  23.011  0.00  0.00    +0.000 C 
ATOM     21  N   UNL     1       0.333  10.669  20.736  0.00  0.00    +0.000 N 
ATOM     22  C   UNL     1       1.094  10.257  19.635  0.00  0.00    +0.000 A 
ATOM     23  O   UNL     1       1.508  10.981  18.731  0.00  0.00    +0.000 OA
ATOM     24  C   UNL     1       1.408   8.810  19.549  0.00  0.00    +0.000 A 
BRANCH  21  25
ATOM     25  C   UNL     1      -0.091  12.055  20.841  0.00  0.00    +0.000 C 
ATOM     26  C   UNL     1      -0.285  12.987  19.669  0.00  0.00    +0.000 C 
ATOM     27  C   UNL     1      -1.481  12.446  20.383  0.00  0.00    +0.000 C 
ENDBRANCH  21  25
ENDBRANCH  16  17
ENDBRANCH   3  16
TORSDOF 5
ENDMDL
MODEL 2
REMARK VINA RESULT:      -7.4      6.454      7.875
REMARK  Name = 
REMARK  7 active torsions:
REMARK  status: ('A' for Active; 'I' for Inactive)
REMARK    1  A    between atoms: C_1  and  C_2
REMARK    2  A    between atoms: C_8  and  S_9
REMARK    3  A    between atoms: S_9  and  N_12
REMARK    4  A    between atoms: C_14  and  O_15
REMARK    5  A    between atoms: O_15  and  C_16
REMARK    6  A    between atoms: C_18  and  C_19
REMARK    7  A    between atoms: N_20  and  C_21
REMARK                            x       y       z     vdW  Elec       q    Type
REMARK                         _______ _______ _______ _____ _____    ______ ____
ROOT
ATOM      1  N   UNL     1       7.022   7.054  17.834  0.00  0.00    +0.000 NA
ATOM      2  C   UNL     1       8.239   7.074  18.687  0.00  0.00    +0.000 C 
ATOM      3  C   UNL     1       8.574   8.516  18.239  0.00  0.00    +0.000 C 
ATOM      4  C   UNL     1       7.301   8.429  17.363  0.00  0.00    +0.000 C 
ENDROOT
BRANCH   1   5
ATOM      5  S   UNL     1       6.442   5.778  16.900  0.00  0.00    +0.000 S 
ATOM      6  O   UNL     1       7.098   4.581  17.368  0.00  0.00    +0.000 OA
ATOM      7  O   UNL     1       6.485   6.180  15.511  0.00  0.00    +0.000 OA
BRANCH   5  15
ATOM      8  C   UNL     1       4.399   3.270  17.121  0.00  0.00    +0.000 C 
ATOM      9  C   UNL     1       3.894   4.642  17.476  0.00  0.00    +0.000 A 
ATOM     10  C   UNL     1       2.553   4.845  17.868  0.00  0.00    +0.000 A 
ATOM     11 CL   UNL     1       1.405   3.551  17.980  0.00  0.00    +0.000 Cl
ATOM     12  C   UNL     1       2.064   6.119  18.183  0.00  0.00    +0.000 A 
ATOM     13  C   UNL     1       2.888   7.233  18.099  0.00  0.00    +0.000 A 
ATOM     14  C   UNL     1       4.205   7.069  17.697  0.00  0.00    +0.000 A 
ATOM     15  C   UNL     1       4.714   5.790  17.393  0.00  0.00    +0.000 A 
ENDBRANCH   5  15
ENDBRANCH   1   5
BRANCH   3  16
ATOM     16  O   UNL     1       8.599   9.501  19.297  0.00  0.00    +0.000 OA
BRANCH  16  17
ATOM     17  C   UNL     1       9.333  10.644  19.068  0.00  0.00    +0.000 A 
ATOM     18  C   UNL     1       9.405  11.513  20.216  0.00  0.00    +0.000 A 
ATOM     19  C   UNL     1      10.015  12.710  20.153  0.00  0.00    +0.000 A 
ATOM     20  C   UNL     1      10.081  13.595  21.369  0.00  0.00    +0.000 C 
ATOM     21  N   UNL     1      10.617  13.123  18.957  0.00  0.00    +0.000 N 
ATOM     22  C   UNL     1      10.692  12.277  17.843  0.00  0.00    +0.000 A 
ATOM     23  O   UNL     1      11.293  12.513  16.796  0.00  0.00    +0.000 OA
ATOM     24  C   UNL     1       9.961  10.989  17.937  0.00  0.00    +0.000 A 
BRANCH  21  25
ATOM     25  C   UNL     1      11.231  14.439  18.905  0.00  0.00    +0.000 C 
ATOM     26  C   UNL     1      11.509  15.210  17.636  0.00  0.00    +0.000 C 
ATOM     27  C   UNL     1      10.388  15.640  18.526  0.00  0.00    +0.000 C 
ENDBRANCH  21  25
ENDBRANCH  16  17
ENDBRANCH   3  16
TORSDOF 5
ENDMDL
MODEL 3
REMARK VINA RESULT:      -7.3      6.510      7.855
REMARK  Name = 
REMARK  7 active torsions:
REMARK  status: ('A' for Active; 'I' for Inactive)
REMARK    1  A    between atoms: C_1  and  C_2
REMARK    2  A    between atoms: C_8  and  S_9
REMARK    3  A    between atoms: S_9  and  N_12
REMARK    4  A    between atoms: C_14  and  O_15
REMARK    5  A    between atoms: O_15  and  C_16
REMARK    6  A    between atoms: C_18  and  C_19
REMARK    7  A    between atoms: N_20  and  C_21
REMARK                            x       y       z     vdW  Elec       q    Type
REMARK                         _______ _______ _______ _____ _____    ______ ____
ROOT
ATOM      1  N   UNL     1       6.944   7.309  17.763  0.00  0.00    +0.000 NA
ATOM      2  C   UNL     1       8.239   7.223  18.487  0.00  0.00    +0.000 C 
ATOM      3  C   UNL     1       8.567   8.696  18.149  0.00  0.00    +0.000 C 
ATOM      4  C   UNL     1       7.213   8.718  17.402  0.00  0.00    +0.000 C 
ENDROOT
BRANCH   1   5
ATOM      5  S   UNL     1       6.240   6.142  16.774  0.00  0.00    +0.000 S 
ATOM      6  O   UNL     1       7.283   5.214  16.409  0.00  0.00    +0.000 OA
ATOM      7  O   UNL     1       5.436   6.819  15.779  0.00  0.00    +0.000 OA
BRANCH   5  15
ATOM      8  C   UNL     1       3.487   7.371  17.969  0.00  0.00    +0.000 C 
ATOM      9  C   UNL     1       3.907   5.992  18.402  0.00  0.00    +0.000 A 
ATOM     10  C   UNL     1       3.140   5.255  19.331  0.00  0.00    +0.000 A 
ATOM     11 CL   UNL     1       1.675   5.866  20.027  0.00  0.00    +0.000 Cl
ATOM     12  C   UNL     1       3.529   3.979  19.757  0.00  0.00    +0.000 A 
ATOM     13  C   UNL     1       4.701   3.403  19.287  0.00  0.00    +0.000 A 
ATOM     14  C   UNL     1       5.487   4.110  18.389  0.00  0.00    +0.000 A 
ATOM     15  C   UNL     1       5.099   5.389  17.940  0.00  0.00    +0.000 A 
ENDBRANCH   5  15
ENDBRANCH   1   5
BRANCH   3  16
ATOM     16  O   UNL     1       8.723   9.571  19.289  0.00  0.00    +0.000 OA
BRANCH  16  17
ATOM     17  C   UNL     1       9.387  10.760  19.077  0.00  0.00    +0.000 A 
ATOM     18  C   UNL     1       9.428  11.604  20.245  0.00  0.00    +0.000 A 
ATOM     19  C   UNL     1       9.967  12.836  20.202  0.00  0.00    +0.000 A 
ATOM     20  C   UNL     1      10.003  13.693  21.438  0.00  0.00    +0.000 C 
ATOM     21  N   UNL     1      10.523  13.311  19.007  0.00  0.00    +0.000 N 
ATOM     22  C   UNL     1      10.627  12.499  17.872  0.00  0.00    +0.000 A 
ATOM     23  O   UNL     1      11.194  12.794  16.821  0.00  0.00    +0.000 OA
ATOM     24  C   UNL     1       9.974  11.169  17.945  0.00  0.00    +0.000 A 
BRANCH  21  25
ATOM     25  C   UNL     1      11.059  14.662  18.978  0.00  0.00    +0.000 C 
ATOM     26  C   UNL     1      11.344  15.449  17.721  0.00  0.00    +0.000 C 
ATOM     27  C   UNL     1      10.163  15.811  18.561  0.00  0.00    +0.000 C 
ENDBRANCH  21  25
ENDBRANCH  16  17
ENDBRANCH   3  16
TORSDOF 5
ENDMDL
MODEL 4
REMARK VINA RESULT:      -7.2      1.711      2.615
REMARK  Name = 
REMARK  7 active torsions:
REMARK  status: ('A' for Active; 'I' for Inactive)
REMARK    1  A    between atoms: C_1  and  C_2
REMARK    2  A    between atoms: C_8  and  S_9
REMARK    3  A    between atoms: S_9  and  N_12
REMARK    4  A    between atoms: C_14  and  O_15
REMARK    5  A    between atoms: O_15  and  C_16
REMARK    6  A    between atoms: C_18  and  C_19
REMARK    7  A    between atoms: N_20  and  C_21
REMARK                            x       y       z     vdW  Elec       q    Type
REMARK                         _______ _______ _______ _____ _____    ______ ____
ROOT
ATOM      1  N   UNL     1       2.940   5.403  19.902  0.00  0.00    +0.000 NA
ATOM      2  C   UNL     1       2.773   6.819  19.485  0.00  0.00    +0.000 C 
ATOM      3  C   UNL     1       1.544   6.984  20.409  0.00  0.00    +0.000 C 
ATOM      4  C   UNL     1       1.764   5.502  20.794  0.00  0.00    +0.000 C 
ENDROOT
BRANCH   1   5
ATOM      5  S   UNL     1       3.350   4.087  18.934  0.00  0.00    +0.000 S 
ATOM      6  O   UNL     1       2.394   4.047  17.852  0.00  0.00    +0.000 OA
ATOM      7  O   UNL     1       3.579   2.947  19.794  0.00  0.00    +0.000 OA
BRANCH   5  15
ATOM      8  C   UNL     1       4.513   3.982  15.908  0.00  0.00    +0.000 C 
ATOM      9  C   UNL     1       5.384   4.554  16.995  0.00  0.00    +0.000 A 
ATOM     10  C   UNL     1       6.691   5.009  16.715  0.00  0.00    +0.000 A 
ATOM     11 CL   UNL     1       7.380   4.955  15.126  0.00  0.00    +0.000 Cl
ATOM     12  C   UNL     1       7.519   5.527  17.719  0.00  0.00    +0.000 A 
ATOM     13  C   UNL     1       7.080   5.590  19.035  0.00  0.00    +0.000 A 
ATOM     14  C   UNL     1       5.808   5.132  19.344  0.00  0.00    +0.000 A 
ATOM     15  C   UNL     1       4.959   4.623  18.341  0.00  0.00    +0.000 A 
ENDBRANCH   5  15
ENDBRANCH   1   5
BRANCH   3  16
ATOM     16  O   UNL     1       1.683   7.979  21.449  0.00  0.00    +0.000 OA
BRANCH  16  17
ATOM     17  C   UNL     1       0.774   9.015  21.448  0.00  0.00    +0.000 A 
ATOM     18  C   UNL     1       0.274   9.331  20.133  0.00  0.00    +0.000 A 
ATOM     19  C   UNL     1      -0.563  10.364  19.931  0.00  0.00    +0.000 A 
ATOM     20  C   UNL     1      -1.074  10.668  18.548  0.00  0.00    +0.000 C 
ATOM     21  N   UNL     1      -0.982  11.144  21.017  0.00  0.00    +0.000 N 
ATOM     22  C   UNL     1      -0.635  10.817  22.333  0.00  0.00    +0.000 A 
ATOM     23  O   UNL     1      -1.044  11.376  23.349  0.00  0.00    +0.000 OA
ATOM     24  C   UNL     1       0.331   9.704  22.507  0.00  0.00    +0.000 A 
BRANCH  21  25
ATOM     25  C   UNL     1      -1.852  12.280  20.762  0.00  0.00    +0.000 C 
ATOM     26  C   UNL     1      -1.935  13.513  21.631  0.00  0.00    +0.000 C 
ATOM     27  C   UNL     1      -1.248  13.594  20.307  0.00  0.00    +0.000 C 
ENDBRANCH  21  25
ENDBRANCH  16  17
ENDBRANCH   3  16
TORSDOF 5
ENDMDL
MODEL 5
REMARK VINA RESULT:      -7.2      1.117      1.841
REMARK  Name = 
REMARK  7 active torsions:
REMARK  status: ('A' for Active; 'I' for Inactive)
REMARK    1  A    between atoms: C_1  and  C_2
REMARK    2  A    between atoms: C_8  and  S_9
REMARK    3  A    between atoms: S_9  and  N_12
REMARK    4  A    between atoms: C_14  and  O_15
REMARK    5  A    between atoms: O_15  and  C_16
REMARK    6  A    between atoms: C_18  and  C_19
REMARK    7  A    between atoms: N_20  and  C_21
REMARK                            x       y       z     vdW  Elec       q    Type
REMARK                         _______ _______ _______ _____ _____    ______ ____
ROOT
ATOM      1  N   UNL     1       3.132   4.922  20.038  0.00  0.00    +0.000 NA
ATOM      2  C   UNL     1       2.890   6.315  19.578  0.00  0.00    +0.000 C 
ATOM      3  C   UNL     1       1.570   6.389  20.379  0.00  0.00    +0.000 C 
ATOM      4  C   UNL     1       1.872   4.935  20.814  0.00  0.00    +0.000 C 
ENDROOT
BRANCH   1   5
ATOM      5  S   UNL     1       3.738   3.633  19.140  0.00  0.00    +0.000 S 
ATOM      6  O   UNL     1       2.760   3.334  18.121  0.00  0.00    +0.000 OA
ATOM      7  O   UNL     1       4.215   2.625  20.062  0.00  0.00    +0.000 OA
BRANCH   5  15
ATOM      8  C   UNL     1       4.672   3.650  16.035  0.00  0.00    +0.000 C 
ATOM      9  C   UNL     1       5.517   4.379  17.044  0.00  0.00    +0.000 A 
ATOM     10  C   UNL     1       6.709   5.032  16.660  0.00  0.00    +0.000 A 
ATOM     11 CL   UNL     1       7.277   5.055  15.023  0.00  0.00    +0.000 Cl
ATOM     12  C   UNL     1       7.515   5.698  17.592  0.00  0.00    +0.000 A 
ATOM     13  C   UNL     1       7.172   5.719  18.937  0.00  0.00    +0.000 A 
ATOM     14  C   UNL     1       6.018   5.069  19.348  0.00  0.00    +0.000 A 
ATOM     15  C   UNL     1       5.189   4.408  18.419  0.00  0.00    +0.000 A 
ENDBRANCH   5  15
ENDBRANCH   1   5
BRANCH   3  16
ATOM     16  O   UNL     1       1.527   7.405  21.407  0.00  0.00    +0.000 OA
BRANCH  16  17
ATOM     17  C   UNL     1       0.985   8.623  21.059  0.00  0.00    +0.000 A 
ATOM     18  C   UNL     1       0.227   9.233  22.123  0.00  0.00    +0.000 A 
ATOM     19  C   UNL     1      -0.438  10.387  21.937  0.00  0.00    +0.000 A 
ATOM     20  C   UNL     1      -1.216  11.005  23.068  0.00  0.00    +0.000 C 
ATOM     21  N   UNL     1      -0.383  11.031  20.694  0.00  0.00    +0.000 N 
ATOM     22  C   UNL     1       0.433  10.559  19.659  0.00  0.00    +0.000 A 
ATOM     23  O   UNL     1       0.626  11.117  18.580  0.00  0.00    +0.000 OA
ATOM     24  C   UNL     1       1.107   9.257  19.886  0.00  0.00    +0.000 A 
BRANCH  21  25
ATOM     25  C   UNL     1      -1.147  12.254  20.510  0.00  0.00    +0.000 C 
ATOM     26  C   UNL     1      -1.392  12.923  19.179  0.00  0.00    +0.000 C 
ATOM     27  C   UNL     1      -2.508  12.190  19.847  0.00  0.00    +0.000 C 
ENDBRANCH  21  25
ENDBRANCH  16  17
ENDBRANCH   3  16
TORSDOF 5
ENDMDL
MODEL 6
REMARK VINA RESULT:      -7.2      1.087      1.842
REMARK  Name = 
REMARK  7 active torsions:
REMARK  status: ('A' for Active; 'I' for Inactive)
REMARK    1  A    between atoms: C_1  and  C_2
REMARK    2  A    between atoms: C_8  and  S_9
REMARK    3  A    between atoms: S_9  and  N_12
REMARK    4  A    between atoms: C_14  and  O_15
REMARK    5  A    between atoms: O_15  and  C_16
REMARK    6  A    between atoms: C_18  and  C_19
REMARK    7  A    between atoms: N_20  and  C_21
REMARK                            x       y       z     vdW  Elec       q    Type
REMARK                         _______ _______ _______ _____ _____    ______ ____
ROOT
ATOM      1  N   UNL     1       2.922   4.168  19.374  0.00  0.00    +0.000 NA
ATOM      2  C   UNL     1       2.955   4.785  20.726  0.00  0.00    +0.000 C 
ATOM      3  C   UNL     1       2.509   6.151  20.153  0.00  0.00    +0.000 C 
ATOM      4  C   UNL     1       2.505   5.454  18.772  0.00  0.00    +0.000 C 
ENDROOT
BRANCH   1   5
ATOM      5  S   UNL     1       4.016   3.068  18.718  0.00  0.00    +0.000 S 
ATOM      6  O   UNL     1       3.246   2.104  17.970  0.00  0.00    +0.000 OA
ATOM      7  O   UNL     1       4.935   2.669  19.762  0.00  0.00    +0.000 OA
BRANCH   5  15
ATOM      8  C   UNL     1       6.185   5.355  19.479  0.00  0.00    +0.000 C 
ATOM      9  C   UNL     1       5.869   5.119  18.027  0.00  0.00    +0.000 A 
ATOM     10  C   UNL     1       6.477   5.892  17.014  0.00  0.00    +0.000 A 
ATOM     11 CL   UNL     1       7.623   7.147  17.357  0.00  0.00    +0.000 Cl
ATOM     12  C   UNL     1       6.177   5.696  15.660  0.00  0.00    +0.000 A 
ATOM     13  C   UNL     1       5.251   4.738  15.273  0.00  0.00    +0.000 A 
ATOM     14  C   UNL     1       4.622   3.976  16.246  0.00  0.00    +0.000 A 
ATOM     15  C   UNL     1       4.925   4.152  17.611  0.00  0.00    +0.000 A 
ENDBRANCH   5  15
ENDBRANCH   1   5
BRANCH   3  16
ATOM     16  O   UNL     1       1.251   6.652  20.660  0.00  0.00    +0.000 OA
BRANCH  16  17
ATOM     17  C   UNL     1       1.076   8.018  20.657  0.00  0.00    +0.000 A 
ATOM     18  C   UNL     1       1.410   8.631  19.396  0.00  0.00    +0.000 A 
ATOM     19  C   UNL     1       1.374   9.966  19.233  0.00  0.00    +0.000 A 
ATOM     20  C   UNL     1       1.722  10.579  17.903  0.00  0.00    +0.000 C 
ATOM     21  N   UNL     1       0.985  10.788  20.299  0.00  0.00    +0.000 N 
ATOM     22  C   UNL     1       0.530  10.252  21.510  0.00  0.00    +0.000 A 
ATOM     23  O   UNL     1       0.068  10.890  22.455  0.00  0.00    +0.000 OA
ATOM     24  C   UNL     1       0.635   8.780  21.666  0.00  0.00    +0.000 A 
BRANCH  21  25
ATOM     25  C   UNL     1       0.998  12.228  20.108  0.00  0.00    +0.000 C 
ATOM     26  C   UNL     1       0.858  13.245  21.216  0.00  0.00    +0.000 C 
ATOM     27  C   UNL     1       2.193  13.032  20.578  0.00  0.00    +0.000 C 
ENDBRANCH  21  25
ENDBRANCH  16  17
ENDBRANCH   3  16
TORSDOF 5
ENDMDL
MODEL 7
REMARK VINA RESULT:      -7.1      4.396      9.376
REMARK  Name = 
REMARK  7 active torsions:
REMARK  status: ('A' for Active; 'I' for Inactive)
REMARK    1  A    between atoms: C_1  and  C_2
REMARK    2  A    between atoms: C_8  and  S_9
REMARK    3  A    between atoms: S_9  and  N_12
REMARK    4  A    between atoms: C_14  and  O_15
REMARK    5  A    between atoms: O_15  and  C_16
REMARK    6  A    between atoms: C_18  and  C_19
REMARK    7  A    between atoms: N_20  and  C_21
REMARK                            x       y       z     vdW  Elec       q    Type
REMARK                         _______ _______ _______ _____ _____    ______ ____
ROOT
ATOM      1  N   UNL     1      -0.091  11.069  18.738  0.00  0.00    +0.000 NA
ATOM      2  C   UNL     1       1.388  11.167  18.843  0.00  0.00    +0.000 C 
ATOM      3  C   UNL     1       1.512   9.636  19.024  0.00  0.00    +0.000 C 
ATOM      4  C   UNL     1      -0.030   9.602  18.918  0.00  0.00    +0.000 C 
ENDROOT
BRANCH   1   5
ATOM      5  S   UNL     1      -1.241  12.108  19.398  0.00  0.00    +0.000 S 
ATOM      6  O   UNL     1      -0.763  13.454  19.185  0.00  0.00    +0.000 OA
ATOM      7  O   UNL     1      -1.588  11.619  20.714  0.00  0.00    +0.000 OA
BRANCH   5  15
ATOM      8  C   UNL     1      -4.398  12.534  20.003  0.00  0.00    +0.000 C 
ATOM      9  C   UNL     1      -3.990  11.983  18.663  0.00  0.00    +0.000 A 
ATOM     10  C   UNL     1      -4.957  11.629  17.697  0.00  0.00    +0.000 A 
ATOM     11 CL   UNL     1      -6.660  11.806  17.969  0.00  0.00    +0.000 Cl
ATOM     12  C   UNL     1      -4.592  11.097  16.453  0.00  0.00    +0.000 A 
ATOM     13  C   UNL     1      -3.257  10.884  16.139  0.00  0.00    +0.000 A 
ATOM     14  C   UNL     1      -2.285  11.203  17.075  0.00  0.00    +0.000 A 
ATOM     15  C   UNL     1      -2.637  11.754  18.325  0.00  0.00    +0.000 A 
ENDBRANCH   5  15
ENDBRANCH   1   5
BRANCH   3  16
ATOM     16  O   UNL     1       2.275   8.954  18.002  0.00  0.00    +0.000 OA
BRANCH  16  17
ATOM     17  C   UNL     1       2.759   7.703  18.316  0.00  0.00    +0.000 A 
ATOM     18  C   UNL     1       3.728   7.214  17.367  0.00  0.00    +0.000 A 
ATOM     19  C   UNL     1       4.250   5.979  17.470  0.00  0.00    +0.000 A 
ATOM     20  C   UNL     1       5.264   5.496  16.468  0.00  0.00    +0.000 C 
ATOM     21  N   UNL     1       3.869   5.148  18.532  0.00  0.00    +0.000 N 
ATOM     22  C   UNL     1       3.030   5.604  19.556  0.00  0.00    +0.000 A 
ATOM     23  O   UNL     1       2.731   4.985  20.576  0.00  0.00    +0.000 OA
ATOM     24  C   UNL     1       2.434   6.951  19.376  0.00  0.00    +0.000 A 
BRANCH  21  25
ATOM     25  C   UNL     1       4.416   3.803  18.594  0.00  0.00    +0.000 C 
ATOM     26  C   UNL     1       3.750   2.633  19.279  0.00  0.00    +0.000 C 
ATOM     27  C   UNL     1       3.769   2.697  17.786  0.00  0.00    +0.000 C 
ENDBRANCH  21  25
ENDBRANCH  16  17
ENDBRANCH   3  16
TORSDOF 5
ENDMDL
MODEL 8
REMARK VINA RESULT:      -7.0      4.491      9.611
REMARK  Name = 
REMARK  7 active torsions:
REMARK  status: ('A' for Active; 'I' for Inactive)
REMARK    1  A    between atoms: C_1  and  C_2
REMARK    2  A    between atoms: C_8  and  S_9
REMARK    3  A    between atoms: S_9  and  N_12
REMARK    4  A    between atoms: C_14  and  O_15
REMARK    5  A    between atoms: O_15  and  C_16
REMARK    6  A    between atoms: C_18  and  C_19
REMARK    7  A    between atoms: N_20  and  C_21
REMARK                            x       y       z     vdW  Elec       q    Type
REMARK                         _______ _______ _______ _____ _____    ______ ____
ROOT
ATOM      1  N   UNL     1      -0.306  10.995  20.992  0.00  0.00    +0.000 NA
ATOM      2  C   UNL     1       0.983  11.148  20.270  0.00  0.00    +0.000 C 
ATOM      3  C   UNL     1       1.158   9.614  20.181  0.00  0.00    +0.000 C 
ATOM      4  C   UNL     1      -0.184   9.521  20.945  0.00  0.00    +0.000 C 
ENDROOT
BRANCH   1   5
ATOM      5  S   UNL     1      -0.874  11.908  22.288  0.00  0.00    +0.000 S 
ATOM      6  O   UNL     1      -0.064  13.101  22.350  0.00  0.00    +0.000 OA
ATOM      7  O   UNL     1      -1.028  11.028  23.427  0.00  0.00    +0.000 OA
BRANCH   5  15
ATOM      8  C   UNL     1      -3.501  12.664  24.033  0.00  0.00    +0.000 C 
ATOM      9  C   UNL     1      -3.620  12.626  22.533  0.00  0.00    +0.000 A 
ATOM     10  C   UNL     1      -4.852  12.885  21.894  0.00  0.00    +0.000 A 
ATOM     11 CL   UNL     1      -6.298  13.267  22.770  0.00  0.00    +0.000 Cl
ATOM     12  C   UNL     1      -4.982  12.834  20.500  0.00  0.00    +0.000 A 
ATOM     13  C   UNL     1      -3.895  12.508  19.700  0.00  0.00    +0.000 A 
ATOM     14  C   UNL     1      -2.676  12.230  20.300  0.00  0.00    +0.000 A 
ATOM     15  C   UNL     1      -2.528  12.292  21.700  0.00  0.00    +0.000 A 
ENDBRANCH   5  15
ENDBRANCH   1   5
BRANCH   3  16
ATOM     16  O   UNL     1       1.210   9.075  18.840  0.00  0.00    +0.000 OA
BRANCH  16  17
ATOM     17  C   UNL     1       2.141   8.088  18.600  0.00  0.00    +0.000 A 
ATOM     18  C   UNL     1       2.059   6.990  19.530  0.00  0.00    +0.000 A 
ATOM     19  C   UNL     1       2.939   5.974  19.496  0.00  0.00    +0.000 A 
ATOM     20  C   UNL     1       2.826   4.838  20.476  0.00  0.00    +0.000 C 
ATOM     21  N   UNL     1       3.949   5.960  18.524  0.00  0.00    +0.000 N 
ATOM     22  C   UNL     1       4.010   6.928  17.515  0.00  0.00    +0.000 A 
ATOM     23  O   UNL     1       4.790   6.934  16.564  0.00  0.00    +0.000 OA
ATOM     24  C   UNL     1       3.055   8.059  17.621  0.00  0.00    +0.000 A 
BRANCH  21  25
ATOM     25  C   UNL     1       4.912   4.872  18.538  0.00  0.00    +0.000 C 
ATOM     26  C   UNL     1       6.201   4.852  17.751  0.00  0.00    +0.000 C 
ATOM     27  C   UNL     1       6.246   5.066  19.229  0.00  0.00    +0.000 C 
ENDBRANCH  21  25
ENDBRANCH  16  17
ENDBRANCH   3  16
TORSDOF 5
ENDMDL
MODEL 9
REMARK VINA RESULT:      -7.0      3.855      9.064
REMARK  Name = 
REMARK  7 active torsions:
REMARK  status: ('A' for Active; 'I' for Inactive)
REMARK    1  A    between atoms: C_1  and  C_2
REMARK    2  A    between atoms: C_8  and  S_9
REMARK    3  A    between atoms: S_9  and  N_12
REMARK    4  A    between atoms: C_14  and  O_15
REMARK    5  A    between atoms: O_15  and  C_16
REMARK    6  A    between atoms: C_18  and  C_19
REMARK    7  A    between atoms: N_20  and  C_21
REMARK                            x       y       z     vdW  Elec       q    Type
REMARK                         _______ _______ _______ _____ _____    ______ ____
ROOT
ATOM      1  N   UNL     1       0.438   9.725  19.634  0.00  0.00    +0.000 NA
ATOM      2  C   UNL     1       1.353   9.089  18.652  0.00  0.00    +0.000 C 
ATOM      3  C   UNL     1       2.020   8.247  19.764  0.00  0.00    +0.000 C 
ATOM      4  C   UNL     1       1.048   8.952  20.738  0.00  0.00    +0.000 C 
ENDROOT
BRANCH   1   5
ATOM      5  S   UNL     1      -0.047  11.337  19.693  0.00  0.00    +0.000 S 
ATOM      6  O   UNL     1       0.818  12.070  18.799  0.00  0.00    +0.000 OA
ATOM      7  O   UNL     1      -0.204  11.711  21.083  0.00  0.00    +0.000 OA
BRANCH   5  15
ATOM      8  C   UNL     1      -2.648  13.173  20.308  0.00  0.00    +0.000 C 
ATOM      9  C   UNL     1      -2.779  12.048  19.317  0.00  0.00    +0.000 A 
ATOM     10  C   UNL     1      -4.013  11.774  18.687  0.00  0.00    +0.000 A 
ATOM     11 CL   UNL     1      -5.446  12.700  18.993  0.00  0.00    +0.000 Cl
ATOM     12  C   UNL     1      -4.154  10.719  17.776  0.00  0.00    +0.000 A 
ATOM     13  C   UNL     1      -3.079   9.893  17.479  0.00  0.00    +0.000 A 
ATOM     14  C   UNL     1      -1.859  10.125  18.097  0.00  0.00    +0.000 A 
ATOM     15  C   UNL     1      -1.699  11.193  19.003  0.00  0.00    +0.000 A 
ENDBRANCH   5  15
ENDBRANCH   1   5
BRANCH   3  16
ATOM     16  O   UNL     1       1.899   6.814  19.611  0.00  0.00    +0.000 OA
BRANCH  16  17
ATOM     17  C   UNL     1       2.997   6.144  19.117  0.00  0.00    +0.000 A 
ATOM     18  C   UNL     1       3.497   6.701  17.884  0.00  0.00    +0.000 A 
ATOM     19  C   UNL     1       4.515   6.129  17.218  0.00  0.00    +0.000 A 
ATOM     20  C   UNL     1       5.020   6.736  15.936  0.00  0.00    +0.000 C 
ATOM     21  N   UNL     1       5.127   4.979  17.734  0.00  0.00    +0.000 N 
ATOM     22  C   UNL     1       4.775   4.459  18.985  0.00  0.00    +0.000 A 
ATOM     23  O   UNL     1       5.330   3.525  19.562  0.00  0.00    +0.000 OA
ATOM     24  C   UNL     1       3.613   5.087  19.662  0.00  0.00    +0.000 A 
BRANCH  21  25
ATOM     25  C   UNL     1       6.196   4.358  16.971  0.00  0.00    +0.000 C 
ATOM     26  C   UNL     1       7.206   5.109  16.135  0.00  0.00    +0.000 C 
ATOM     27  C   UNL     1       7.631   4.511  17.436  0.00  0.00    +0.000 C 
ENDBRANCH  21  25
ENDBRANCH  16  17
ENDBRANCH   3  16
TORSDOF 5
ENDMDL
