MODEL 1
REMARK VINA RESULT:      -8.6      0.000      0.000
REMARK  Name = 
REMARK  8 active torsions:
REMARK  status: ('A' for Active; 'I' for Inactive)
REMARK    1  A    between atoms: C_1  and  C_2
REMARK    2  A    between atoms: C_2  and  C_3
REMARK    3  A    between atoms: C_3  and  S_4
REMARK    4  A    between atoms: S_4  and  N_7
REMARK    5  A    between atoms: N_10  and  C_11
REMARK    6  A    between atoms: C_11  and  C_12
REMARK    7  A    between atoms: N_24  and  C_25
REMARK    8  A    between atoms: C_25  and  C_26
REMARK                            x       y       z     vdW  Elec       q    Type
REMARK                         _______ _______ _______ _____ _____    ______ ____
ROOT
ATOM      1  C   UNL     1       2.207   7.478  18.819  0.00  0.00    +0.000 A 
ATOM      2  C   UNL     1       2.151   8.379  17.750  0.00  0.00    +0.000 A 
ATOM      3  C   UNL     1       1.601   9.657  17.897  0.00  0.00    +0.000 A 
ATOM      4  C   UNL     1       1.054  10.000  19.144  0.00  0.00    +0.000 A 
ATOM      5  C   UNL     1       1.031   9.100  20.209  0.00  0.00    +0.000 A 
ATOM      6  C   UNL     1       1.632   7.833  20.049  0.00  0.00    +0.000 A 
ATOM      7  C   UNL     1       0.328   9.720  21.287  0.00  0.00    +0.000 A 
ATOM      8  C   UNL     1      -0.057   9.282  22.572  0.00  0.00    +0.000 A 
ATOM      9  C   UNL     1      -0.807  10.128  23.393  0.00  0.00    +0.000 A 
ATOM     10  C   UNL     1      -1.156  11.403  22.961  0.00  0.00    +0.000 A 
ATOM     11  C   UNL     1      -0.765  11.868  21.702  0.00  0.00    +0.000 A 
ATOM     12  C   UNL     1      -0.029  11.004  20.875  0.00  0.00    +0.000 A 
ATOM     13  N   UNL     1       0.473  11.170  19.597  0.00  0.00    +0.000 N 
ENDROOT
BRANCH  13  14
ATOM     14  C   UNL     1       0.427  12.418  18.849  0.00  0.00    +0.000 C 
ATOM     15  C   UNL     1      -0.851  12.579  18.045  0.00  0.00    +0.000 C 
ENDBRANCH  13  14
BRANCH   1  16
ATOM     16  C   UNL     1       2.905   6.142  18.663  0.00  0.00    +0.000 C 
BRANCH  16  20
ATOM     17  N   UNL     1       5.558   5.074  16.214  0.00  0.00    +0.000 NA
ATOM     18  C   UNL     1       5.070   4.213  17.334  0.00  0.00    +0.000 C 
ATOM     19  C   UNL     1       5.075   4.962  18.680  0.00  0.00    +0.000 C 
ATOM     20  N   UNL     1       4.372   6.269  18.680  0.00  0.00    +0.000 NA
ATOM     21  C   UNL     1       4.860   7.086  17.550  0.00  0.00    +0.000 C 
ATOM     22  C   UNL     1       4.830   6.376  16.180  0.00  0.00    +0.000 C 
BRANCH  17  23
ATOM     23  S   UNL     1       7.245   5.130  15.977  0.00  0.00    +0.000 S 
ATOM     24  O   UNL     1       7.839   4.044  16.723  0.00  0.00    +0.000 OA
ATOM     25  O   UNL     1       7.688   6.496  16.145  0.00  0.00    +0.000 OA
BRANCH  23  26
ATOM     26  C   UNL     1       7.335   4.712  14.241  0.00  0.00    +0.000 C 
BRANCH  26  28
ATOM     27  C   UNL     1       6.282   3.494  12.328  0.00  0.00    +0.000 C 
ATOM     28  C   UNL     1       6.133   3.896  13.787  0.00  0.00    +0.000 C 
ENDBRANCH  26  28
ENDBRANCH  23  26
ENDBRANCH  17  23
ENDBRANCH  16  20
ENDBRANCH   1  16
TORSDOF 6
ENDMDL
MODEL 2
REMARK VINA RESULT:      -8.2      0.887      1.359
REMARK  Name = 
REMARK  8 active torsions:
REMARK  status: ('A' for Active; 'I' for Inactive)
REMARK    1  A    between atoms: C_1  and  C_2
REMARK    2  A    between atoms: C_2  and  C_3
REMARK    3  A    between atoms: C_3  and  S_4
REMARK    4  A    between atoms: S_4  and  N_7
REMARK    5  A    between atoms: N_10  and  C_11
REMARK    6  A    between atoms: C_11  and  C_12
REMARK    7  A    between atoms: N_24  and  C_25
REMARK    8  A    between atoms: C_25  and  C_26
REMARK                            x       y       z     vdW  Elec       q    Type
REMARK                         _______ _______ _______ _____ _____    ______ ____
ROOT
ATOM      1  C   UNL     1       2.097   7.738  19.112  0.00  0.00    +0.000 A 
ATOM      2  C   UNL     1       1.802   8.372  17.900  0.00  0.00    +0.000 A 
ATOM      3  C   UNL     1       1.016   9.529  17.851  0.00  0.00    +0.000 A 
ATOM      4  C   UNL     1       0.482  10.015  19.056  0.00  0.00    +0.000 A 
ATOM      5  C   UNL     1       0.701   9.366  20.271  0.00  0.00    +0.000 A 
ATOM      6  C   UNL     1       1.533   8.227  20.300  0.00  0.00    +0.000 A 
ATOM      7  C   UNL     1      -0.051  10.054  21.272  0.00  0.00    +0.000 A 
ATOM      8  C   UNL     1      -0.267   9.829  22.647  0.00  0.00    +0.000 A 
ATOM      9  C   UNL     1      -1.124  10.672  23.359  0.00  0.00    +0.000 A 
ATOM     10  C   UNL     1      -1.746  11.743  22.726  0.00  0.00    +0.000 A 
ATOM     11  C   UNL     1      -1.527  12.002  21.369  0.00  0.00    +0.000 A 
ATOM     12  C   UNL     1      -0.681  11.137  20.657  0.00  0.00    +0.000 A 
ATOM     13  N   UNL     1      -0.295  11.125  19.328  0.00  0.00    +0.000 N 
ENDROOT
BRANCH  13  14
ATOM     14  C   UNL     1      -0.632  12.161  18.363  0.00  0.00    +0.000 C 
ATOM     15  C   UNL     1      -1.890  11.846  17.572  0.00  0.00    +0.000 C 
ENDBRANCH  13  14
BRANCH   1  16
ATOM     16  C   UNL     1       3.039   6.552  19.150  0.00  0.00    +0.000 C 
BRANCH  16  20
ATOM     17  N   UNL     1       6.405   5.399  17.918  0.00  0.00    +0.000 NA
ATOM     18  C   UNL     1       5.989   6.832  17.968  0.00  0.00    +0.000 C 
ATOM     19  C   UNL     1       4.613   7.055  17.313  0.00  0.00    +0.000 C 
ATOM     20  N   UNL     1       3.525   6.177  17.811  0.00  0.00    +0.000 NA
ATOM     21  C   UNL     1       3.975   4.771  17.769  0.00  0.00    +0.000 C 
ATOM     22  C   UNL     1       5.334   4.508  18.452  0.00  0.00    +0.000 C 
BRANCH  17  23
ATOM     23  S   UNL     1       7.194   4.885  16.497  0.00  0.00    +0.000 S 
ATOM     24  O   UNL     1       8.289   4.023  16.878  0.00  0.00    +0.000 OA
ATOM     25  O   UNL     1       7.395   6.033  15.641  0.00  0.00    +0.000 OA
BRANCH  23  26
ATOM     26  C   UNL     1       5.917   3.859  15.779  0.00  0.00    +0.000 C 
BRANCH  26  28
ATOM     27  C   UNL     1       6.230   3.729  13.302  0.00  0.00    +0.000 C 
ATOM     28  C   UNL     1       5.451   4.387  14.430  0.00  0.00    +0.000 C 
ENDBRANCH  26  28
ENDBRANCH  23  26
ENDBRANCH  17  23
ENDBRANCH  16  20
ENDBRANCH   1  16
TORSDOF 6
ENDMDL
MODEL 3
REMARK VINA RESULT:      -8.0      4.298      9.421
REMARK  Name = 
REMARK  8 active torsions:
REMARK  status: ('A' for Active; 'I' for Inactive)
REMARK    1  A    between atoms: C_1  and  C_2
REMARK    2  A    between atoms: C_2  and  C_3
REMARK    3  A    between atoms: C_3  and  S_4
REMARK    4  A    between atoms: S_4  and  N_7
REMARK    5  A    between atoms: N_10  and  C_11
REMARK    6  A    between atoms: C_11  and  C_12
REMARK    7  A    between atoms: N_24  and  C_25
REMARK    8  A    between atoms: C_25  and  C_26
REMARK                            x       y       z     vdW  Elec       q    Type
REMARK                         _______ _______ _______ _____ _____    ______ ____
ROOT
ATOM      1  C   UNL     1       2.198   8.103  17.956  0.00  0.00    +0.000 A 
ATOM      2  C   UNL     1       3.515   8.242  17.504  0.00  0.00    +0.000 A 
ATOM      3  C   UNL     1       4.320   7.129  17.240  0.00  0.00    +0.000 A 
ATOM      4  C   UNL     1       3.786   5.855  17.489  0.00  0.00    +0.000 A 
ATOM      5  C   UNL     1       2.501   5.685  18.006  0.00  0.00    +0.000 A 
ATOM      6  C   UNL     1       1.693   6.821  18.222  0.00  0.00    +0.000 A 
ATOM      7  C   UNL     1       2.305   4.288  18.231  0.00  0.00    +0.000 A 
ATOM      8  C   UNL     1       1.249   3.534  18.785  0.00  0.00    +0.000 A 
ATOM      9  C   UNL     1       1.386   2.151  18.924  0.00  0.00    +0.000 A 
ATOM     10  C   UNL     1       2.545   1.511  18.499  0.00  0.00    +0.000 A 
ATOM     11  C   UNL     1       3.596   2.233  17.924  0.00  0.00    +0.000 A 
ATOM     12  C   UNL     1       3.458   3.626  17.807  0.00  0.00    +0.000 A 
ATOM     13  N   UNL     1       4.315   4.590  17.309  0.00  0.00    +0.000 N 
ENDROOT
BRANCH  13  14
ATOM     14  C   UNL     1       5.583   4.306  16.651  0.00  0.00    +0.000 C 
ATOM     15  C   UNL     1       5.482   4.333  15.137  0.00  0.00    +0.000 C 
ENDBRANCH  13  14
BRANCH   1  16
ATOM     16  C   UNL     1       1.312   9.321  18.131  0.00  0.00    +0.000 C 
BRANCH  16  20
ATOM     17  N   UNL     1      -0.848  10.985  20.727  0.00  0.00    +0.000 NA
ATOM     18  C   UNL     1      -0.353  11.673  19.497  0.00  0.00    +0.000 C 
ATOM     19  C   UNL     1       1.164  11.489  19.305  0.00  0.00    +0.000 C 
ATOM     20  N   UNL     1       1.641  10.085  19.346  0.00  0.00    +0.000 NA
ATOM     21  C   UNL     1       1.119   9.427  20.561  0.00  0.00    +0.000 C 
ATOM     22  C   UNL     1      -0.405   9.560  20.761  0.00  0.00    +0.000 C 
BRANCH  17  23
ATOM     23  S   UNL     1      -0.734  11.859  22.186  0.00  0.00    +0.000 S 
ATOM     24  O   UNL     1       0.161  12.973  21.972  0.00  0.00    +0.000 OA
ATOM     25  O   UNL     1      -0.533  10.923  23.270  0.00  0.00    +0.000 OA
BRANCH  23  26
ATOM     26  C   UNL     1      -2.396  12.509  22.297  0.00  0.00    +0.000 C 
BRANCH  26  28
ATOM     27  C   UNL     1      -3.785  13.324  24.209  0.00  0.00    +0.000 C 
ATOM     28  C   UNL     1      -3.072  12.124  23.605  0.00  0.00    +0.000 C 
ENDBRANCH  26  28
ENDBRANCH  23  26
ENDBRANCH  17  23
ENDBRANCH  16  20
ENDBRANCH   1  16
TORSDOF 6
ENDMDL
MODEL 4
REMARK VINA RESULT:      -7.9      4.480      9.839
REMARK  Name = 
REMARK  8 active torsions:
REMARK  status: ('A' for Active; 'I' for Inactive)
REMARK    1  A    between atoms: C_1  and  C_2
REMARK    2  A    between atoms: C_2  and  C_3
REMARK    3  A    between atoms: C_3  and  S_4
REMARK    4  A    between atoms: S_4  and  N_7
REMARK    5  A    between atoms: N_10  and  C_11
REMARK    6  A    between atoms: C_11  and  C_12
REMARK    7  A    between atoms: N_24  and  C_25
REMARK    8  A    between atoms: C_25  and  C_26
REMARK                            x       y       z     vdW  Elec       q    Type
REMARK                         _______ _______ _______ _____ _____    ______ ____
ROOT
ATOM      1  C   UNL     1       1.868   6.716  20.356  0.00  0.00    +0.000 A 
ATOM      2  C   UNL     1       1.239   5.477  20.525  0.00  0.00    +0.000 A 
ATOM      3  C   UNL     1       1.601   4.362  19.760  0.00  0.00    +0.000 A 
ATOM      4  C   UNL     1       2.586   4.530  18.774  0.00  0.00    +0.000 A 
ATOM      5  C   UNL     1       3.182   5.768  18.534  0.00  0.00    +0.000 A 
ATOM      6  C   UNL     1       2.832   6.867  19.348  0.00  0.00    +0.000 A 
ATOM      7  C   UNL     1       4.057   5.619  17.416  0.00  0.00    +0.000 A 
ATOM      8  C   UNL     1       4.866   6.520  16.691  0.00  0.00    +0.000 A 
ATOM      9  C   UNL     1       5.583   6.066  15.581  0.00  0.00    +0.000 A 
ATOM     10  C   UNL     1       5.520   4.729  15.200  0.00  0.00    +0.000 A 
ATOM     11  C   UNL     1       4.746   3.812  15.918  0.00  0.00    +0.000 A 
ATOM     12  C   UNL     1       4.013   4.282  17.020  0.00  0.00    +0.000 A 
ATOM     13  N   UNL     1       3.160   3.632  17.894  0.00  0.00    +0.000 N 
ENDROOT
BRANCH  13  14
ATOM     14  C   UNL     1       2.931   2.194  17.906  0.00  0.00    +0.000 C 
ATOM     15  C   UNL     1       3.863   1.455  18.850  0.00  0.00    +0.000 C 
ENDBRANCH  13  14
BRANCH   1  16
ATOM     16  C   UNL     1       1.535   7.878  21.270  0.00  0.00    +0.000 C 
BRANCH  16  20
ATOM     17  N   UNL     1       0.115  11.249  22.162  0.00  0.00    +0.000 NA
ATOM     18  C   UNL     1      -0.158  10.003  22.940  0.00  0.00    +0.000 C 
ATOM     19  C   UNL     1      -0.608   8.844  22.031  0.00  0.00    +0.000 C 
ATOM     20  N   UNL     1       0.287   8.557  20.883  0.00  0.00    +0.000 NA
ATOM     21  C   UNL     1       0.554   9.810  20.148  0.00  0.00    +0.000 C 
ATOM     22  C   UNL     1       1.044  10.981  21.026  0.00  0.00    +0.000 C 
BRANCH  17  23
ATOM     23  S   UNL     1      -1.224  12.253  21.839  0.00  0.00    +0.000 S 
ATOM     24  O   UNL     1      -1.858  11.779  20.630  0.00  0.00    +0.000 OA
ATOM     25  O   UNL     1      -0.813  13.631  21.989  0.00  0.00    +0.000 OA
BRANCH  23  26
ATOM     26  C   UNL     1      -2.283  11.822  23.214  0.00  0.00    +0.000 C 
BRANCH  26  28
ATOM     27  C   UNL     1      -3.738  13.490  24.378  0.00  0.00    +0.000 C 
ATOM     28  C   UNL     1      -3.606  12.573  23.172  0.00  0.00    +0.000 C 
ENDBRANCH  26  28
ENDBRANCH  23  26
ENDBRANCH  17  23
ENDBRANCH  16  20
ENDBRANCH   1  16
TORSDOF 6
ENDMDL
MODEL 5
REMARK VINA RESULT:      -7.9      2.790      3.777
REMARK  Name = 
REMARK  8 active torsions:
REMARK  status: ('A' for Active; 'I' for Inactive)
REMARK    1  A    between atoms: C_1  and  C_2
REMARK    2  A    between atoms: C_2  and  C_3
REMARK    3  A    between atoms: C_3  and  S_4
REMARK    4  A    between atoms: S_4  and  N_7
REMARK    5  A    between atoms: N_10  and  C_11
REMARK    6  A    between atoms: C_11  and  C_12
REMARK    7  A    between atoms: N_24  and  C_25
REMARK    8  A    between atoms: C_25  and  C_26
REMARK                            x       y       z     vdW  Elec       q    Type
REMARK                         _______ _______ _______ _____ _____    ______ ____
ROOT
ATOM      1  C   UNL     1       2.314   8.251  18.440  0.00  0.00    +0.000 A 
ATOM      2  C   UNL     1       2.305   9.347  17.570  0.00  0.00    +0.000 A 
ATOM      3  C   UNL     1       1.743  10.573  17.943  0.00  0.00    +0.000 A 
ATOM      4  C   UNL     1       1.136  10.664  19.205  0.00  0.00    +0.000 A 
ATOM      5  C   UNL     1       1.066   9.570  20.067  0.00  0.00    +0.000 A 
ATOM      6  C   UNL     1       1.679   8.357  19.687  0.00  0.00    +0.000 A 
ATOM      7  C   UNL     1       0.310   9.966  21.212  0.00  0.00    +0.000 A 
ATOM      8  C   UNL     1      -0.134   9.284  22.364  0.00  0.00    +0.000 A 
ATOM      9  C   UNL     1      -0.926   9.953  23.301  0.00  0.00    +0.000 A 
ATOM     10  C   UNL     1      -1.260  11.290  23.115  0.00  0.00    +0.000 A 
ATOM     11  C   UNL     1      -0.811  11.995  21.994  0.00  0.00    +0.000 A 
ATOM     12  C   UNL     1      -0.032  11.309  21.047  0.00  0.00    +0.000 A 
ATOM     13  N   UNL     1       0.529  11.724  19.853  0.00  0.00    +0.000 N 
ENDROOT
BRANCH  13  14
ATOM     14  C   UNL     1       0.514  13.096  19.367  0.00  0.00    +0.000 C 
ATOM     15  C   UNL     1      -0.616  13.365  18.390  0.00  0.00    +0.000 C 
ENDBRANCH  13  14
BRANCH   1  16
ATOM     16  C   UNL     1       3.024   6.969  18.054  0.00  0.00    +0.000 C 
BRANCH  16  20
ATOM     17  N   UNL     1       4.182   3.388  18.163  0.00  0.00    +0.000 NA
ATOM     18  C   UNL     1       2.995   3.850  17.383  0.00  0.00    +0.000 C 
ATOM     19  C   UNL     1       2.044   4.708  18.238  0.00  0.00    +0.000 C 
ATOM     20  N   UNL     1       2.681   5.846  18.944  0.00  0.00    +0.000 NA
ATOM     21  C   UNL     1       3.861   5.361  19.687  0.00  0.00    +0.000 C 
ATOM     22  C   UNL     1       4.855   4.530  18.848  0.00  0.00    +0.000 C 
BRANCH  17  23
ATOM     23  S   UNL     1       3.986   1.956  19.067  0.00  0.00    +0.000 S 
ATOM     24  O   UNL     1       4.877   2.019  20.203  0.00  0.00    +0.000 OA
ATOM     25  O   UNL     1       3.995   0.832  18.158  0.00  0.00    +0.000 OA
BRANCH  23  26
ATOM     26  C   UNL     1       2.319   2.187  19.669  0.00  0.00    +0.000 C 
BRANCH  26  28
ATOM     27  C   UNL     1       1.333   3.483  21.567  0.00  0.00    +0.000 C 
ATOM     28  C   UNL     1       2.276   2.353  21.182  0.00  0.00    +0.000 C 
ENDBRANCH  26  28
ENDBRANCH  23  26
ENDBRANCH  17  23
ENDBRANCH  16  20
ENDBRANCH   1  16
TORSDOF 6
ENDMDL
MODEL 6
REMARK VINA RESULT:      -7.8      4.651      9.928
REMARK  Name = 
REMARK  8 active torsions:
REMARK  status: ('A' for Active; 'I' for Inactive)
REMARK    1  A    between atoms: C_1  and  C_2
REMARK    2  A    between atoms: C_2  and  C_3
REMARK    3  A    between atoms: C_3  and  S_4
REMARK    4  A    between atoms: S_4  and  N_7
REMARK    5  A    between atoms: N_10  and  C_11
REMARK    6  A    between atoms: C_11  and  C_12
REMARK    7  A    between atoms: N_24  and  C_25
REMARK    8  A    between atoms: C_25  and  C_26
REMARK                            x       y       z     vdW  Elec       q    Type
REMARK                         _______ _______ _______ _____ _____    ______ ____
ROOT
ATOM      1  C   UNL     1       1.886   6.840  20.375  0.00  0.00    +0.000 A 
ATOM      2  C   UNL     1       1.235   5.614  20.553  0.00  0.00    +0.000 A 
ATOM      3  C   UNL     1       1.571   4.489  19.792  0.00  0.00    +0.000 A 
ATOM      4  C   UNL     1       2.553   4.634  18.799  0.00  0.00    +0.000 A 
ATOM      5  C   UNL     1       3.171   5.859  18.550  0.00  0.00    +0.000 A 
ATOM      6  C   UNL     1       2.847   6.968  19.361  0.00  0.00    +0.000 A 
ATOM      7  C   UNL     1       4.038   5.688  17.428  0.00  0.00    +0.000 A 
ATOM      8  C   UNL     1       4.860   6.570  16.695  0.00  0.00    +0.000 A 
ATOM      9  C   UNL     1       5.561   6.097  15.583  0.00  0.00    +0.000 A 
ATOM     10  C   UNL     1       5.472   4.760  15.209  0.00  0.00    +0.000 A 
ATOM     11  C   UNL     1       4.684   3.862  15.935  0.00  0.00    +0.000 A 
ATOM     12  C   UNL     1       3.966   4.350  17.039  0.00  0.00    +0.000 A 
ATOM     13  N   UNL     1       3.106   3.720  17.921  0.00  0.00    +0.000 N 
ENDROOT
BRANCH  13  14
ATOM     14  C   UNL     1       2.850   2.288  17.941  0.00  0.00    +0.000 C 
ATOM     15  C   UNL     1       3.770   1.536  18.887  0.00  0.00    +0.000 C 
ENDBRANCH  13  14
BRANCH   1  16
ATOM     16  C   UNL     1       1.580   8.012  21.285  0.00  0.00    +0.000 C 
BRANCH  16  20
ATOM     17  N   UNL     1      -0.110  11.124  22.563  0.00  0.00    +0.000 NA
ATOM     18  C   UNL     1      -0.205   9.795  23.237  0.00  0.00    +0.000 C 
ATOM     19  C   UNL     1      -0.594   8.677  22.252  0.00  0.00    +0.000 C 
ATOM     20  N   UNL     1       0.247   8.586  21.034  0.00  0.00    +0.000 NA
ATOM     21  C   UNL     1       0.339   9.919  20.403  0.00  0.00    +0.000 C 
ATOM     22  C   UNL     1       0.765  11.055  21.356  0.00  0.00    +0.000 C 
BRANCH  17  23
ATOM     23  S   UNL     1      -1.562  12.005  22.410  0.00  0.00    +0.000 S 
ATOM     24  O   UNL     1      -2.485  11.527  23.414  0.00  0.00    +0.000 OA
ATOM     25  O   UNL     1      -1.924  12.055  21.011  0.00  0.00    +0.000 OA
BRANCH  23  26
ATOM     26  C   UNL     1      -1.003  13.628  22.910  0.00  0.00    +0.000 C 
BRANCH  26  28
ATOM     27  C   UNL     1      -2.633  15.246  23.898  0.00  0.00    +0.000 C 
ATOM     28  C   UNL     1      -2.035  14.705  22.608  0.00  0.00    +0.000 C 
ENDBRANCH  26  28
ENDBRANCH  23  26
ENDBRANCH  17  23
ENDBRANCH  16  20
ENDBRANCH   1  16
TORSDOF 6
ENDMDL
MODEL 7
REMARK VINA RESULT:      -7.7      4.215      9.085
REMARK  Name = 
REMARK  8 active torsions:
REMARK  status: ('A' for Active; 'I' for Inactive)
REMARK    1  A    between atoms: C_1  and  C_2
REMARK    2  A    between atoms: C_2  and  C_3
REMARK    3  A    between atoms: C_3  and  S_4
REMARK    4  A    between atoms: S_4  and  N_7
REMARK    5  A    between atoms: N_10  and  C_11
REMARK    6  A    between atoms: C_11  and  C_12
REMARK    7  A    between atoms: N_24  and  C_25
REMARK    8  A    between atoms: C_25  and  C_26
REMARK                            x       y       z     vdW  Elec       q    Type
REMARK                         _______ _______ _______ _____ _____    ______ ____
ROOT
ATOM      1  C   UNL     1       1.840   7.458  20.313  0.00  0.00    +0.000 A 
ATOM      2  C   UNL     1       1.352   6.248  20.819  0.00  0.00    +0.000 A 
ATOM      3  C   UNL     1       1.792   5.016  20.322  0.00  0.00    +0.000 A 
ATOM      4  C   UNL     1       2.707   5.022  19.258  0.00  0.00    +0.000 A 
ATOM      5  C   UNL     1       3.159   6.211  18.684  0.00  0.00    +0.000 A 
ATOM      6  C   UNL     1       2.735   7.441  19.232  0.00  0.00    +0.000 A 
ATOM      7  C   UNL     1       3.993   5.869  17.576  0.00  0.00    +0.000 A 
ATOM      8  C   UNL     1       4.669   6.632  16.601  0.00  0.00    +0.000 A 
ATOM      9  C   UNL     1       5.376   5.984  15.585  0.00  0.00    +0.000 A 
ATOM     10  C   UNL     1       5.436   4.595  15.544  0.00  0.00    +0.000 A 
ATOM     11  C   UNL     1       4.795   3.818  16.514  0.00  0.00    +0.000 A 
ATOM     12  C   UNL     1       4.069   4.478  17.519  0.00  0.00    +0.000 A 
ATOM     13  N   UNL     1       3.331   3.990  18.582  0.00  0.00    +0.000 N 
ENDROOT
BRANCH  13  14
ATOM     14  C   UNL     1       3.253   2.586  18.957  0.00  0.00    +0.000 C 
ATOM     15  C   UNL     1       2.029   1.889  18.392  0.00  0.00    +0.000 C 
ENDBRANCH  13  14
BRANCH   1  16
ATOM     16  C   UNL     1       1.430   8.775  20.940  0.00  0.00    +0.000 C 
BRANCH  16  20
ATOM     17  N   UNL     1       0.417  12.247  19.893  0.00  0.00    +0.000 NA
ATOM     18  C   UNL     1       0.195  11.698  21.265  0.00  0.00    +0.000 C 
ATOM     19  C   UNL     1      -0.480  10.315  21.228  0.00  0.00    +0.000 C 
ATOM     20  N   UNL     1       0.184   9.309  20.364  0.00  0.00    +0.000 NA
ATOM     21  C   UNL     1       0.408   9.888  19.024  0.00  0.00    +0.000 C 
ATOM     22  C   UNL     1       1.120  11.258  19.025  0.00  0.00    +0.000 C 
BRANCH  17  23
ATOM     23  S   UNL     1      -0.885  13.096  19.194  0.00  0.00    +0.000 S 
ATOM     24  O   UNL     1      -1.841  13.389  20.236  0.00  0.00    +0.000 OA
ATOM     25  O   UNL     1      -1.275  12.419  17.976  0.00  0.00    +0.000 OA
BRANCH  23  26
ATOM     26  C   UNL     1      -0.069  14.625  18.757  0.00  0.00    +0.000 C 
BRANCH  26  28
ATOM     27  C   UNL     1       2.375  15.150  18.835  0.00  0.00    +0.000 C 
ATOM     28  C   UNL     1       1.120  14.916  19.662  0.00  0.00    +0.000 C 
ENDBRANCH  26  28
ENDBRANCH  23  26
ENDBRANCH  17  23
ENDBRANCH  16  20
ENDBRANCH   1  16
TORSDOF 6
ENDMDL
MODEL 8
REMARK VINA RESULT:      -7.7      4.182      9.368
REMARK  Name = 
REMARK  8 active torsions:
REMARK  status: ('A' for Active; 'I' for Inactive)
REMARK    1  A    between atoms: C_1  and  C_2
REMARK    2  A    between atoms: C_2  and  C_3
REMARK    3  A    between atoms: C_3  and  S_4
REMARK    4  A    between atoms: S_4  and  N_7
REMARK    5  A    between atoms: N_10  and  C_11
REMARK    6  A    between atoms: C_11  and  C_12
REMARK    7  A    between atoms: N_24  and  C_25
REMARK    8  A    between atoms: C_25  and  C_26
REMARK                            x       y       z     vdW  Elec       q    Type
REMARK                         _______ _______ _______ _____ _____    ______ ____
ROOT
ATOM      1  C   UNL     1       1.915   7.412  20.145  0.00  0.00    +0.000 A 
ATOM      2  C   UNL     1       1.455   6.207  20.686  0.00  0.00    +0.000 A 
ATOM      3  C   UNL     1       1.919   4.971  20.222  0.00  0.00    +0.000 A 
ATOM      4  C   UNL     1       2.829   4.968  19.153  0.00  0.00    +0.000 A 
ATOM      5  C   UNL     1       3.253   6.149  18.545  0.00  0.00    +0.000 A 
ATOM      6  C   UNL     1       2.805   7.384  19.061  0.00  0.00    +0.000 A 
ATOM      7  C   UNL     1       4.089   5.795  17.443  0.00  0.00    +0.000 A 
ATOM      8  C   UNL     1       4.745   6.544  16.444  0.00  0.00    +0.000 A 
ATOM      9  C   UNL     1       5.462   5.883  15.443  0.00  0.00    +0.000 A 
ATOM     10  C   UNL     1       5.551   4.495  15.440  0.00  0.00    +0.000 A 
ATOM     11  C   UNL     1       4.931   3.732  16.434  0.00  0.00    +0.000 A 
ATOM     12  C   UNL     1       4.195   4.404  17.424  0.00  0.00    +0.000 A 
ATOM     13  N   UNL     1       3.472   3.930  18.503  0.00  0.00    +0.000 N 
ENDROOT
BRANCH  13  14
ATOM     14  C   UNL     1       3.425   2.535  18.918  0.00  0.00    +0.000 C 
ATOM     15  C   UNL     1       4.446   2.203  19.992  0.00  0.00    +0.000 C 
ENDBRANCH  13  14
BRANCH   1  16
ATOM     16  C   UNL     1       1.480   8.738  20.737  0.00  0.00    +0.000 C 
BRANCH  16  20
ATOM     17  N   UNL     1       0.466  12.245  19.818  0.00  0.00    +0.000 NA
ATOM     18  C   UNL     1       0.138  11.605  21.126  0.00  0.00    +0.000 C 
ATOM     19  C   UNL     1      -0.492  10.212  20.943  0.00  0.00    +0.000 C 
ATOM     20  N   UNL     1       0.276   9.278  20.083  0.00  0.00    +0.000 NA
ATOM     21  C   UNL     1       0.603   9.947  18.808  0.00  0.00    +0.000 C 
ATOM     22  C   UNL     1       1.272  11.330  18.958  0.00  0.00    +0.000 C 
BRANCH  17  23
ATOM     23  S   UNL     1      -0.791  13.106  19.055  0.00  0.00    +0.000 S 
ATOM     24  O   UNL     1      -1.478  12.201  18.162  0.00  0.00    +0.000 OA
ATOM     25  O   UNL     1      -0.269  14.373  18.594  0.00  0.00    +0.000 OA
BRANCH  23  26
ATOM     26  C   UNL     1      -1.862  13.409  20.454  0.00  0.00    +0.000 C 
BRANCH  26  28
ATOM     27  C   UNL     1      -4.108  13.032  21.488  0.00  0.00    +0.000 C 
ATOM     28  C   UNL     1      -3.241  12.795  20.260  0.00  0.00    +0.000 C 
ENDBRANCH  26  28
ENDBRANCH  23  26
ENDBRANCH  17  23
ENDBRANCH  16  20
ENDBRANCH   1  16
TORSDOF 6
ENDMDL
MODEL 9
REMARK VINA RESULT:      -7.6      4.163      9.059
REMARK  Name = 
REMARK  8 active torsions:
REMARK  status: ('A' for Active; 'I' for Inactive)
REMARK    1  A    between atoms: C_1  and  C_2
REMARK    2  A    between atoms: C_2  and  C_3
REMARK    3  A    between atoms: C_3  and  S_4
REMARK    4  A    between atoms: S_4  and  N_7
REMARK    5  A    between atoms: N_10  and  C_11
REMARK    6  A    between atoms: C_11  and  C_12
REMARK    7  A    between atoms: N_24  and  C_25
REMARK    8  A    between atoms: C_25  and  C_26
REMARK                            x       y       z     vdW  Elec       q    Type
REMARK                         _______ _______ _______ _____ _____    ______ ____
ROOT
ATOM      1  C   UNL     1       1.993   7.338  20.035  0.00  0.00    +0.000 A 
ATOM      2  C   UNL     1       1.552   6.134  20.594  0.00  0.00    +0.000 A 
ATOM      3  C   UNL     1       2.026   4.898  20.139  0.00  0.00    +0.000 A 
ATOM      4  C   UNL     1       2.928   4.894  19.062  0.00  0.00    +0.000 A 
ATOM      5  C   UNL     1       3.333   6.073  18.438  0.00  0.00    +0.000 A 
ATOM      6  C   UNL     1       2.875   7.309  18.944  0.00  0.00    +0.000 A 
ATOM      7  C   UNL     1       4.164   5.716  17.333  0.00  0.00    +0.000 A 
ATOM      8  C   UNL     1       4.803   6.462  16.320  0.00  0.00    +0.000 A 
ATOM      9  C   UNL     1       5.519   5.798  15.321  0.00  0.00    +0.000 A 
ATOM     10  C   UNL     1       5.624   4.412  15.331  0.00  0.00    +0.000 A 
ATOM     11  C   UNL     1       5.021   3.652  16.340  0.00  0.00    +0.000 A 
ATOM     12  C   UNL     1       4.286   4.327  17.328  0.00  0.00    +0.000 A 
ATOM     13  N   UNL     1       3.577   3.856  18.419  0.00  0.00    +0.000 N 
ENDROOT
BRANCH  13  14
ATOM     14  C   UNL     1       3.551   2.466  18.848  0.00  0.00    +0.000 C 
ATOM     15  C   UNL     1       4.438   2.202  20.051  0.00  0.00    +0.000 C 
ENDBRANCH  13  14
BRANCH   1  16
ATOM     16  C   UNL     1       1.548   8.665  20.617  0.00  0.00    +0.000 C 
BRANCH  16  20
ATOM     17  N   UNL     1       0.339  12.195  20.111  0.00  0.00    +0.000 NA
ATOM     18  C   UNL     1      -0.058  11.342  21.272  0.00  0.00    +0.000 C 
ATOM     19  C   UNL     1      -0.550   9.953  20.824  0.00  0.00    +0.000 C 
ATOM     20  N   UNL     1       0.370   9.215  19.924  0.00  0.00    +0.000 NA
ATOM     21  C   UNL     1       0.760  10.091  18.801  0.00  0.00    +0.000 C 
ATOM     22  C   UNL     1       1.295  11.477  19.218  0.00  0.00    +0.000 C 
BRANCH  17  23
ATOM     23  S   UNL     1      -0.908  13.074  19.352  0.00  0.00    +0.000 S 
ATOM     24  O   UNL     1      -0.537  13.279  17.971  0.00  0.00    +0.000 OA
ATOM     25  O   UNL     1      -1.280  14.179  20.209  0.00  0.00    +0.000 OA
BRANCH  23  26
ATOM     26  C   UNL     1      -2.221  11.861  19.390  0.00  0.00    +0.000 C 
BRANCH  26  28
ATOM     27  C   UNL     1      -2.750  10.038  17.761  0.00  0.00    +0.000 C 
ATOM     28  C   UNL     1      -2.742  11.541  17.996  0.00  0.00    +0.000 C 
ENDBRANCH  26  28
ENDBRANCH  23  26
ENDBRANCH  17  23
ENDBRANCH  16  20
ENDBRANCH   1  16
TORSDOF 6
ENDMDL
