MODEL 1
REMARK VINA RESULT:      -8.0      0.000      0.000
REMARK  Name = 
REMARK  4 active torsions:
REMARK  status: ('A' for Active; 'I' for Inactive)
REMARK    1  A    between atoms: O_1  and  C_2
REMARK    2  A    between atoms: C_10  and  C_11
REMARK    3  A    between atoms: C_16  and  O_17
REMARK    4  A    between atoms: C_19  and  C_20
REMARK                            x       y       z     vdW  Elec       q    Type
REMARK                         _______ _______ _______ _____ _____    ______ ____
ROOT
ATOM      1  C   UNL     1       2.453  16.428  19.221  0.00  0.00    +0.000 A 
ATOM      2  C   UNL     1       3.429  15.435  19.409  0.00  0.00    +0.000 A 
ATOM      3  C   UNL     1       3.090  14.076  19.334  0.00  0.00    +0.000 A 
ATOM      4  C   UNL     1       1.774  13.737  19.072  0.00  0.00    +0.000 A 
ATOM      5  C   UNL     1       0.809  14.751  18.900  0.00  0.00    +0.000 A 
ATOM      6  C   UNL     1       1.128  16.096  18.965  0.00  0.00    +0.000 A 
ATOM      7  C   UNL     1      -0.535  14.140  18.593  0.00  0.00    +0.000 C 
ATOM      8  C   UNL     1      -0.241  12.655  18.612  0.00  0.00    +0.000 A 
ATOM      9  C   UNL     1      -1.083  11.563  18.413  0.00  0.00    +0.000 A 
ATOM     10  C   UNL     1      -0.435  10.316  18.489  0.00  0.00    +0.000 A 
ATOM     11  C   UNL     1       0.939  10.184  18.778  0.00  0.00    +0.000 A 
ATOM     12  N   UNL     1       1.735  11.266  18.999  0.00  0.00    +0.000 NA
ATOM     13  C   UNL     1       1.122  12.455  18.900  0.00  0.00    +0.000 A 
ENDROOT
BRANCH  11  14
ATOM     14  C   UNL     1       1.597   8.860  18.880  0.00  0.00    +0.000 A 
ATOM     15  C   UNL     1       2.295   8.310  17.786  0.00  0.00    +0.000 A 
ATOM     16  C   UNL     1       2.919   7.057  17.868  0.00  0.00    +0.000 A 
ATOM     17  C   UNL     1       2.864   6.323  19.050  0.00  0.00    +0.000 A 
ATOM     18  C   UNL     1       2.191   6.844  20.148  0.00  0.00    +0.000 A 
ATOM     19  C   UNL     1       1.567   8.090  20.055  0.00  0.00    +0.000 A 
ATOM     20  F   UNL     1       0.911   8.522  21.144  0.00  0.00    +0.000 F 
ENDBRANCH  11  14
BRANCH   9  21
ATOM     21  C   UNL     1      -2.548  11.672  18.161  0.00  0.00    +0.000 A 
ATOM     22  C   UNL     1      -3.444  11.972  19.206  0.00  0.00    +0.000 A 
ATOM     23  C   UNL     1      -4.832  11.992  19.027  0.00  0.00    +0.000 A 
ATOM     24  C   UNL     1      -5.370  11.781  17.765  0.00  0.00    +0.000 A 
ATOM     25  C   UNL     1      -4.521  11.549  16.690  0.00  0.00    +0.000 A 
ATOM     26  C   UNL     1      -3.134  11.478  16.889  0.00  0.00    +0.000 A 
BRANCH  26  27
ATOM     27  O   UNL     1      -2.351  11.191  15.801  0.00  0.00    +0.000 OA
ATOM     28  H   UNL     1      -2.116  10.250  15.814  0.00  0.00    +0.000 HD
ENDBRANCH  26  27
ENDBRANCH   9  21
BRANCH   1  29
ATOM     29  O   UNL     1       2.762  17.750  19.274  0.00  0.00    +0.000 OA
ATOM     30  H   UNL     1       3.327  17.906  20.051  0.00  0.00    +0.000 HD
ENDBRANCH   1  29
TORSDOF 4
ENDMDL
MODEL 2
REMARK VINA RESULT:      -7.9      0.872      1.256
REMARK  Name = 
REMARK  4 active torsions:
REMARK  status: ('A' for Active; 'I' for Inactive)
REMARK    1  A    between atoms: O_1  and  C_2
REMARK    2  A    between atoms: C_10  and  C_11
REMARK    3  A    between atoms: C_16  and  O_17
REMARK    4  A    between atoms: C_19  and  C_20
REMARK                            x       y       z     vdW  Elec       q    Type
REMARK                         _______ _______ _______ _____ _____    ______ ____
ROOT
ATOM      1  C   UNL     1       2.474  16.350  19.197  0.00  0.00    +0.000 A 
ATOM      2  C   UNL     1       3.414  15.347  19.486  0.00  0.00    +0.000 A 
ATOM      3  C   UNL     1       3.041  13.994  19.484  0.00  0.00    +0.000 A 
ATOM      4  C   UNL     1       1.727  13.673  19.193  0.00  0.00    +0.000 A 
ATOM      5  C   UNL     1       0.797  14.697  18.920  0.00  0.00    +0.000 A 
ATOM      6  C   UNL     1       1.150  16.035  18.911  0.00  0.00    +0.000 A 
ATOM      7  C   UNL     1      -0.551  14.102  18.600  0.00  0.00    +0.000 C 
ATOM      8  C   UNL     1      -0.299  12.614  18.725  0.00  0.00    +0.000 A 
ATOM      9  C   UNL     1      -1.163  11.533  18.563  0.00  0.00    +0.000 A 
ATOM     10  C   UNL     1      -0.552  10.277  18.744  0.00  0.00    +0.000 A 
ATOM     11  C   UNL     1       0.805  10.130  19.094  0.00  0.00    +0.000 A 
ATOM     12  N   UNL     1       1.623  11.203  19.277  0.00  0.00    +0.000 NA
ATOM     13  C   UNL     1       1.046  12.399  19.078  0.00  0.00    +0.000 A 
ENDROOT
BRANCH  11  14
ATOM     14  C   UNL     1       1.423   8.799  19.305  0.00  0.00    +0.000 A 
ATOM     15  C   UNL     1       1.275   8.115  20.528  0.00  0.00    +0.000 A 
ATOM     16  C   UNL     1       1.857   6.858  20.742  0.00  0.00    +0.000 A 
ATOM     17  C   UNL     1       2.601   6.250  19.734  0.00  0.00    +0.000 A 
ATOM     18  C   UNL     1       2.757   6.897  18.514  0.00  0.00    +0.000 A 
ATOM     19  C   UNL     1       2.179   8.152  18.313  0.00  0.00    +0.000 A 
ATOM     20  F   UNL     1       2.392   8.733  17.121  0.00  0.00    +0.000 F 
ENDBRANCH  11  14
BRANCH   9  21
ATOM     21  C   UNL     1      -2.613  11.661  18.247  0.00  0.00    +0.000 A 
ATOM     22  C   UNL     1      -3.551  11.961  19.255  0.00  0.00    +0.000 A 
ATOM     23  C   UNL     1      -4.930  11.999  19.015  0.00  0.00    +0.000 A 
ATOM     24  C   UNL     1      -5.413  11.808  17.729  0.00  0.00    +0.000 A 
ATOM     25  C   UNL     1      -4.520  11.577  16.690  0.00  0.00    +0.000 A 
ATOM     26  C   UNL     1      -3.145  11.489  16.949  0.00  0.00    +0.000 A 
BRANCH  26  27
ATOM     27  O   UNL     1      -2.317  11.204  15.893  0.00  0.00    +0.000 OA
ATOM     28  H   UNL     1      -2.050  10.273  15.938  0.00  0.00    +0.000 HD
ENDBRANCH  26  27
ENDBRANCH   9  21
BRANCH   1  29
ATOM     29  O   UNL     1       2.816  17.664  19.177  0.00  0.00    +0.000 OA
ATOM     30  H   UNL     1       3.349  17.858  19.968  0.00  0.00    +0.000 HD
ENDBRANCH   1  29
TORSDOF 4
ENDMDL
MODEL 3
REMARK VINA RESULT:      -7.8      8.379     10.903
REMARK  Name = 
REMARK  4 active torsions:
REMARK  status: ('A' for Active; 'I' for Inactive)
REMARK    1  A    between atoms: O_1  and  C_2
REMARK    2  A    between atoms: C_10  and  C_11
REMARK    3  A    between atoms: C_16  and  O_17
REMARK    4  A    between atoms: C_19  and  C_20
REMARK                            x       y       z     vdW  Elec       q    Type
REMARK                         _______ _______ _______ _____ _____    ______ ____
ROOT
ATOM      1  C   UNL     1       1.535   3.369  19.931  0.00  0.00    +0.000 A 
ATOM      2  C   UNL     1       1.414   2.698  18.703  0.00  0.00    +0.000 A 
ATOM      3  C   UNL     1       2.306   2.961  17.652  0.00  0.00    +0.000 A 
ATOM      4  C   UNL     1       3.306   3.896  17.854  0.00  0.00    +0.000 A 
ATOM      5  C   UNL     1       3.400   4.567  19.091  0.00  0.00    +0.000 A 
ATOM      6  C   UNL     1       2.533   4.315  20.138  0.00  0.00    +0.000 A 
ATOM      7  C   UNL     1       4.581   5.505  19.082  0.00  0.00    +0.000 C 
ATOM      8  C   UNL     1       5.158   5.306  17.696  0.00  0.00    +0.000 A 
ATOM      9  C   UNL     1       6.253   5.904  17.077  0.00  0.00    +0.000 A 
ATOM     10  C   UNL     1       6.497   5.442  15.769  0.00  0.00    +0.000 A 
ATOM     11  C   UNL     1       5.682   4.486  15.131  0.00  0.00    +0.000 A 
ATOM     12  N   UNL     1       4.599   3.937  15.747  0.00  0.00    +0.000 NA
ATOM     13  C   UNL     1       4.382   4.358  17.002  0.00  0.00    +0.000 A 
ENDROOT
BRANCH  11  14
ATOM     14  C   UNL     1       5.941   4.032  13.745  0.00  0.00    +0.000 A 
ATOM     15  C   UNL     1       5.028   3.197  13.071  0.00  0.00    +0.000 A 
ATOM     16  C   UNL     1       5.263   2.757  11.760  0.00  0.00    +0.000 A 
ATOM     17  C   UNL     1       6.419   3.146  11.088  0.00  0.00    +0.000 A 
ATOM     18  C   UNL     1       7.333   3.977  11.723  0.00  0.00    +0.000 A 
ATOM     19  C   UNL     1       7.094   4.404  13.032  0.00  0.00    +0.000 A 
ATOM     20  F   UNL     1       8.031   5.182  13.595  0.00  0.00    +0.000 F 
ENDBRANCH  11  14
BRANCH   9  21
ATOM     21  C   UNL     1       7.098   6.957  17.708  0.00  0.00    +0.000 A 
ATOM     22  C   UNL     1       7.068   8.287  17.242  0.00  0.00    +0.000 A 
ATOM     23  C   UNL     1       7.913   9.282  17.748  0.00  0.00    +0.000 A 
ATOM     24  C   UNL     1       8.773   8.992  18.797  0.00  0.00    +0.000 A 
ATOM     25  C   UNL     1       8.788   7.711  19.335  0.00  0.00    +0.000 A 
ATOM     26  C   UNL     1       7.976   6.707  18.787  0.00  0.00    +0.000 A 
BRANCH  26  27
ATOM     27  O   UNL     1       8.075   5.448  19.323  0.00  0.00    +0.000 OA
ATOM     28  H   UNL     1       8.188   4.803  18.608  0.00  0.00    +0.000 HD
ENDBRANCH  26  27
ENDBRANCH   9  21
BRANCH   1  29
ATOM     29  O   UNL     1       0.693   3.119  20.967  0.00  0.00    +0.000 OA
ATOM     30  H   UNL     1       0.388   3.968  21.331  0.00  0.00    +0.000 HD
ENDBRANCH   1  29
TORSDOF 4
ENDMDL
MODEL 4
REMARK VINA RESULT:      -7.7      1.487      1.852
REMARK  Name = 
REMARK  4 active torsions:
REMARK  status: ('A' for Active; 'I' for Inactive)
REMARK    1  A    between atoms: O_1  and  C_2
REMARK    2  A    between atoms: C_10  and  C_11
REMARK    3  A    between atoms: C_16  and  O_17
REMARK    4  A    between atoms: C_19  and  C_20
REMARK                            x       y       z     vdW  Elec       q    Type
REMARK                         _______ _______ _______ _____ _____    ______ ____
ROOT
ATOM      1  C   UNL     1       2.843  16.268  17.897  0.00  0.00    +0.000 A 
ATOM      2  C   UNL     1       3.692  15.163  17.725  0.00  0.00    +0.000 A 
ATOM      3  C   UNL     1       3.275  13.875  18.092  0.00  0.00    +0.000 A 
ATOM      4  C   UNL     1       2.008  13.720  18.629  0.00  0.00    +0.000 A 
ATOM      5  C   UNL     1       1.178  14.846  18.806  0.00  0.00    +0.000 A 
ATOM      6  C   UNL     1       1.573  16.121  18.443  0.00  0.00    +0.000 A 
ATOM      7  C   UNL     1      -0.155  14.424  19.371  0.00  0.00    +0.000 C 
ATOM      8  C   UNL     1      -0.002  12.923  19.508  0.00  0.00    +0.000 A 
ATOM      9  C   UNL     1      -0.889  11.963  19.987  0.00  0.00    +0.000 A 
ATOM     10  C   UNL     1      -0.391  10.647  19.941  0.00  0.00    +0.000 A 
ATOM     11  C   UNL     1       0.905  10.334  19.484  0.00  0.00    +0.000 A 
ATOM     12  N   UNL     1       1.766  11.295  19.048  0.00  0.00    +0.000 NA
ATOM     13  C   UNL     1       1.281  12.546  19.067  0.00  0.00    +0.000 A 
ENDROOT
BRANCH  11  14
ATOM     14  C   UNL     1       1.419   8.945  19.468  0.00  0.00    +0.000 A 
ATOM     15  C   UNL     1       1.957   8.383  18.292  0.00  0.00    +0.000 A 
ATOM     16  C   UNL     1       2.444   7.068  18.263  0.00  0.00    +0.000 A 
ATOM     17  C   UNL     1       2.408   6.282  19.412  0.00  0.00    +0.000 A 
ATOM     18  C   UNL     1       1.891   6.812  20.587  0.00  0.00    +0.000 A 
ATOM     19  C   UNL     1       1.403   8.120  20.606  0.00  0.00    +0.000 A 
ATOM     20  F   UNL     1       0.894   8.560  21.767  0.00  0.00    +0.000 F 
ENDBRANCH  11  14
BRANCH   9  21
ATOM     21  C   UNL     1      -2.243  12.271  20.528  0.00  0.00    +0.000 A 
ATOM     22  C   UNL     1      -2.445  12.474  21.907  0.00  0.00    +0.000 A 
ATOM     23  C   UNL     1      -3.714  12.674  22.462  0.00  0.00    +0.000 A 
ATOM     24  C   UNL     1      -4.826  12.751  21.636  0.00  0.00    +0.000 A 
ATOM     25  C   UNL     1      -4.667  12.626  20.261  0.00  0.00    +0.000 A 
ATOM     26  C   UNL     1      -3.398  12.373  19.719  0.00  0.00    +0.000 A 
BRANCH  26  27
ATOM     27  O   UNL     1      -3.311  12.204  18.361  0.00  0.00    +0.000 OA
ATOM     28  H   UNL     1      -2.388  12.311  18.083  0.00  0.00    +0.000 HD
ENDBRANCH  26  27
ENDBRANCH   9  21
BRANCH   1  29
ATOM     29  O   UNL     1       3.221  17.521  17.534  0.00  0.00    +0.000 OA
ATOM     30  H   UNL     1       4.106  17.696  17.897  0.00  0.00    +0.000 HD
ENDBRANCH   1  29
TORSDOF 4
ENDMDL
MODEL 5
REMARK VINA RESULT:      -7.6      1.681      2.205
REMARK  Name = 
REMARK  4 active torsions:
REMARK  status: ('A' for Active; 'I' for Inactive)
REMARK    1  A    between atoms: O_1  and  C_2
REMARK    2  A    between atoms: C_10  and  C_11
REMARK    3  A    between atoms: C_16  and  O_17
REMARK    4  A    between atoms: C_19  and  C_20
REMARK                            x       y       z     vdW  Elec       q    Type
REMARK                         _______ _______ _______ _____ _____    ______ ____
ROOT
ATOM      1  C   UNL     1       2.849  16.240  17.931  0.00  0.00    +0.000 A 
ATOM      2  C   UNL     1       3.698  15.133  17.774  0.00  0.00    +0.000 A 
ATOM      3  C   UNL     1       3.276  13.848  18.147  0.00  0.00    +0.000 A 
ATOM      4  C   UNL     1       2.005  13.698  18.674  0.00  0.00    +0.000 A 
ATOM      5  C   UNL     1       1.174  14.826  18.836  0.00  0.00    +0.000 A 
ATOM      6  C   UNL     1       1.573  16.098  18.467  0.00  0.00    +0.000 A 
ATOM      7  C   UNL     1      -0.164  14.409  19.392  0.00  0.00    +0.000 C 
ATOM      8  C   UNL     1      -0.013  12.910  19.541  0.00  0.00    +0.000 A 
ATOM      9  C   UNL     1      -0.906  11.954  20.019  0.00  0.00    +0.000 A 
ATOM     10  C   UNL     1      -0.409  10.636  19.987  0.00  0.00    +0.000 A 
ATOM     11  C   UNL     1       0.891  10.319  19.544  0.00  0.00    +0.000 A 
ATOM     12  N   UNL     1       1.757  11.276  19.108  0.00  0.00    +0.000 NA
ATOM     13  C   UNL     1       1.273  12.528  19.114  0.00  0.00    +0.000 A 
ENDROOT
BRANCH  11  14
ATOM     14  C   UNL     1       1.404   8.929  19.542  0.00  0.00    +0.000 A 
ATOM     15  C   UNL     1       1.322   8.123  20.695  0.00  0.00    +0.000 A 
ATOM     16  C   UNL     1       1.807   6.808  20.707  0.00  0.00    +0.000 A 
ATOM     17  C   UNL     1       2.385   6.263  19.563  0.00  0.00    +0.000 A 
ATOM     18  C   UNL     1       2.471   7.031  18.409  0.00  0.00    +0.000 A 
ATOM     19  C   UNL     1       1.991   8.343  18.407  0.00  0.00    +0.000 A 
ATOM     20  F   UNL     1       2.131   9.038  17.267  0.00  0.00    +0.000 F 
ENDBRANCH  11  14
BRANCH   9  21
ATOM     21  C   UNL     1      -2.264  12.267  20.545  0.00  0.00    +0.000 A 
ATOM     22  C   UNL     1      -2.480  12.468  21.923  0.00  0.00    +0.000 A 
ATOM     23  C   UNL     1      -3.755  12.673  22.464  0.00  0.00    +0.000 A 
ATOM     24  C   UNL     1      -4.857  12.756  21.626  0.00  0.00    +0.000 A 
ATOM     25  C   UNL     1      -4.683  12.633  20.253  0.00  0.00    +0.000 A 
ATOM     26  C   UNL     1      -3.410  12.375  19.724  0.00  0.00    +0.000 A 
BRANCH  26  27
ATOM     27  O   UNL     1      -3.309  12.207  18.367  0.00  0.00    +0.000 OA
ATOM     28  H   UNL     1      -4.083  12.602  17.937  0.00  0.00    +0.000 HD
ENDBRANCH  26  27
ENDBRANCH   9  21
BRANCH   1  29
ATOM     29  O   UNL     1       3.230  17.490  17.562  0.00  0.00    +0.000 OA
ATOM     30  H   UNL     1       2.507  18.108  17.765  0.00  0.00    +0.000 HD
ENDBRANCH   1  29
TORSDOF 4
ENDMDL
MODEL 6
REMARK VINA RESULT:      -7.5      2.145      5.760
REMARK  Name = 
REMARK  4 active torsions:
REMARK  status: ('A' for Active; 'I' for Inactive)
REMARK    1  A    between atoms: O_1  and  C_2
REMARK    2  A    between atoms: C_10  and  C_11
REMARK    3  A    between atoms: C_16  and  O_17
REMARK    4  A    between atoms: C_19  and  C_20
REMARK                            x       y       z     vdW  Elec       q    Type
REMARK                         _______ _______ _______ _____ _____    ______ ____
ROOT
ATOM      1  C   UNL     1       3.086  16.286  18.402  0.00  0.00    +0.000 A 
ATOM      2  C   UNL     1       1.766  16.743  18.541  0.00  0.00    +0.000 A 
ATOM      3  C   UNL     1       0.710  15.837  18.721  0.00  0.00    +0.000 A 
ATOM      4  C   UNL     1       1.000  14.485  18.758  0.00  0.00    +0.000 A 
ATOM      5  C   UNL     1       2.332  14.048  18.603  0.00  0.00    +0.000 A 
ATOM      6  C   UNL     1       3.385  14.929  18.431  0.00  0.00    +0.000 A 
ATOM      7  C   UNL     1       2.401  12.546  18.713  0.00  0.00    +0.000 C 
ATOM      8  C   UNL     1       0.955  12.159  18.944  0.00  0.00    +0.000 A 
ATOM      9  C   UNL     1       0.368  10.907  19.110  0.00  0.00    +0.000 A 
ATOM     10  C   UNL     1      -1.023  10.948  19.325  0.00  0.00    +0.000 A 
ATOM     11  C   UNL     1      -1.761  12.149  19.334  0.00  0.00    +0.000 A 
ATOM     12  N   UNL     1      -1.169  13.359  19.138  0.00  0.00    +0.000 NA
ATOM     13  C   UNL     1       0.161  13.321  18.960  0.00  0.00    +0.000 A 
ENDROOT
BRANCH  11  14
ATOM     14  C   UNL     1      -3.229  12.168  19.536  0.00  0.00    +0.000 A 
ATOM     15  C   UNL     1      -3.794  12.722  20.702  0.00  0.00    +0.000 A 
ATOM     16  C   UNL     1      -5.181  12.743  20.907  0.00  0.00    +0.000 A 
ATOM     17  C   UNL     1      -6.039  12.213  19.946  0.00  0.00    +0.000 A 
ATOM     18  C   UNL     1      -5.511  11.668  18.783  0.00  0.00    +0.000 A 
ATOM     19  C   UNL     1      -4.128  11.646  18.590  0.00  0.00    +0.000 A 
ATOM     20  F   UNL     1      -3.684  11.080  17.456  0.00  0.00    +0.000 F 
ENDBRANCH  11  14
BRANCH   9  21
ATOM     21  C   UNL     1       1.115   9.619  19.050  0.00  0.00    +0.000 A 
ATOM     22  C   UNL     1       1.644   9.142  17.834  0.00  0.00    +0.000 A 
ATOM     23  C   UNL     1       2.270   7.896  17.722  0.00  0.00    +0.000 A 
ATOM     24  C   UNL     1       2.454   7.109  18.850  0.00  0.00    +0.000 A 
ATOM     25  C   UNL     1       2.010   7.569  20.084  0.00  0.00    +0.000 A 
ATOM     26  C   UNL     1       1.337   8.796  20.178  0.00  0.00    +0.000 A 
BRANCH  26  27
ATOM     27  O   UNL     1       0.873   9.171  21.413  0.00  0.00    +0.000 OA
ATOM     28  H   UNL     1       1.505   8.888  22.092  0.00  0.00    +0.000 HD
ENDBRANCH  26  27
ENDBRANCH   9  21
BRANCH   1  29
ATOM     29  O   UNL     1       4.125  17.146  18.243  0.00  0.00    +0.000 OA
ATOM     30  H   UNL     1       4.478  17.043  17.342  0.00  0.00    +0.000 HD
ENDBRANCH   1  29
TORSDOF 4
ENDMDL
MODEL 7
REMARK VINA RESULT:      -7.5      2.247      2.719
REMARK  Name = 
REMARK  4 active torsions:
REMARK  status: ('A' for Active; 'I' for Inactive)
REMARK    1  A    between atoms: O_1  and  C_2
REMARK    2  A    between atoms: C_10  and  C_11
REMARK    3  A    between atoms: C_16  and  O_17
REMARK    4  A    between atoms: C_19  and  C_20
REMARK                            x       y       z     vdW  Elec       q    Type
REMARK                         _______ _______ _______ _____ _____    ______ ____
ROOT
ATOM      1  C   UNL     1       2.843  16.245  17.872  0.00  0.00    +0.000 A 
ATOM      2  C   UNL     1       3.630  15.148  17.487  0.00  0.00    +0.000 A 
ATOM      3  C   UNL     1       3.265  13.843  17.847  0.00  0.00    +0.000 A 
ATOM      4  C   UNL     1       2.112  13.662  18.591  0.00  0.00    +0.000 A 
ATOM      5  C   UNL     1       1.344  14.780  18.979  0.00  0.00    +0.000 A 
ATOM      6  C   UNL     1       1.687  16.073  18.626  0.00  0.00    +0.000 A 
ATOM      7  C   UNL     1       0.126  14.331  19.746  0.00  0.00    +0.000 C 
ATOM      8  C   UNL     1       0.278  12.824  19.766  0.00  0.00    +0.000 A 
ATOM      9  C   UNL     1      -0.525  11.841  20.340  0.00  0.00    +0.000 A 
ATOM     10  C   UNL     1      -0.064  10.527  20.129  0.00  0.00    +0.000 A 
ATOM     11  C   UNL     1       1.125  10.237  19.431  0.00  0.00    +0.000 A 
ATOM     12  N   UNL     1       1.910  11.218  18.905  0.00  0.00    +0.000 NA
ATOM     13  C   UNL     1       1.456  12.468  19.083  0.00  0.00    +0.000 A 
ENDROOT
BRANCH  11  14
ATOM     14  C   UNL     1       1.607   8.848  19.242  0.00  0.00    +0.000 A 
ATOM     15  C   UNL     1       2.029   8.391  17.977  0.00  0.00    +0.000 A 
ATOM     16  C   UNL     1       2.483   7.079  17.785  0.00  0.00    +0.000 A 
ATOM     17  C   UNL     1       2.531   6.189  18.856  0.00  0.00    +0.000 A 
ATOM     18  C   UNL     1       2.130   6.615  20.116  0.00  0.00    +0.000 A 
ATOM     19  C   UNL     1       1.672   7.922  20.297  0.00  0.00    +0.000 A 
ATOM     20  F   UNL     1       1.275   8.259  21.534  0.00  0.00    +0.000 F 
ENDBRANCH  11  14
BRANCH   9  21
ATOM     21  C   UNL     1      -1.756  12.123  21.130  0.00  0.00    +0.000 A 
ATOM     22  C   UNL     1      -2.952  12.514  20.495  0.00  0.00    +0.000 A 
ATOM     23  C   UNL     1      -4.101  12.875  21.208  0.00  0.00    +0.000 A 
ATOM     24  C   UNL     1      -4.113  12.786  22.592  0.00  0.00    +0.000 A 
ATOM     25  C   UNL     1      -2.978  12.339  23.259  0.00  0.00    +0.000 A 
ATOM     26  C   UNL     1      -1.814  12.030  22.539  0.00  0.00    +0.000 A 
BRANCH  26  27
ATOM     27  O   UNL     1      -0.709  11.648  23.255  0.00  0.00    +0.000 OA
ATOM     28  H   UNL     1      -0.153  12.424  23.425  0.00  0.00    +0.000 HD
ENDBRANCH  26  27
ENDBRANCH   9  21
BRANCH   1  29
ATOM     29  O   UNL     1       3.169  17.516  17.520  0.00  0.00    +0.000 OA
ATOM     30  H   UNL     1       3.877  17.830  18.110  0.00  0.00    +0.000 HD
ENDBRANCH   1  29
TORSDOF 4
ENDMDL
MODEL 8
REMARK VINA RESULT:      -7.5      1.268      1.798
REMARK  Name = 
REMARK  4 active torsions:
REMARK  status: ('A' for Active; 'I' for Inactive)
REMARK    1  A    between atoms: O_1  and  C_2
REMARK    2  A    between atoms: C_10  and  C_11
REMARK    3  A    between atoms: C_16  and  O_17
REMARK    4  A    between atoms: C_19  and  C_20
REMARK                            x       y       z     vdW  Elec       q    Type
REMARK                         _______ _______ _______ _____ _____    ______ ____
ROOT
ATOM      1  C   UNL     1       2.362  16.320  19.359  0.00  0.00    +0.000 A 
ATOM      2  C   UNL     1       3.311  15.328  19.656  0.00  0.00    +0.000 A 
ATOM      3  C   UNL     1       2.963  13.970  19.618  0.00  0.00    +0.000 A 
ATOM      4  C   UNL     1       1.664  13.631  19.282  0.00  0.00    +0.000 A 
ATOM      5  C   UNL     1       0.724  14.644  19.001  0.00  0.00    +0.000 A 
ATOM      6  C   UNL     1       1.053  15.987  19.028  0.00  0.00    +0.000 A 
ATOM      7  C   UNL     1      -0.603  14.031  18.631  0.00  0.00    +0.000 C 
ATOM      8  C   UNL     1      -0.328  12.545  18.735  0.00  0.00    +0.000 A 
ATOM      9  C   UNL     1      -1.167  11.453  18.527  0.00  0.00    +0.000 A 
ATOM     10  C   UNL     1      -0.539  10.205  18.703  0.00  0.00    +0.000 A 
ATOM     11  C   UNL     1       0.810  10.075  19.090  0.00  0.00    +0.000 A 
ATOM     12  N   UNL     1       1.602  11.159  19.317  0.00  0.00    +0.000 NA
ATOM     13  C   UNL     1       1.010  12.348  19.123  0.00  0.00    +0.000 A 
ENDROOT
BRANCH  11  14
ATOM     14  C   UNL     1       1.445   8.752  19.294  0.00  0.00    +0.000 A 
ATOM     15  C   UNL     1       1.306   8.059  20.514  0.00  0.00    +0.000 A 
ATOM     16  C   UNL     1       1.905   6.809  20.721  0.00  0.00    +0.000 A 
ATOM     17  C   UNL     1       2.657   6.216  19.709  0.00  0.00    +0.000 A 
ATOM     18  C   UNL     1       2.804   6.871  18.493  0.00  0.00    +0.000 A 
ATOM     19  C   UNL     1       2.209   8.119  18.298  0.00  0.00    +0.000 A 
ATOM     20  F   UNL     1       2.414   8.709  17.109  0.00  0.00    +0.000 F 
ENDBRANCH  11  14
BRANCH   9  21
ATOM     21  C   UNL     1      -2.610  11.562  18.172  0.00  0.00    +0.000 A 
ATOM     22  C   UNL     1      -3.069  11.208  16.888  0.00  0.00    +0.000 A 
ATOM     23  C   UNL     1      -4.399  11.383  16.488  0.00  0.00    +0.000 A 
ATOM     24  C   UNL     1      -5.338  11.856  17.394  0.00  0.00    +0.000 A 
ATOM     25  C   UNL     1      -4.944  12.153  18.693  0.00  0.00    +0.000 A 
ATOM     26  C   UNL     1      -3.599  12.025  19.070  0.00  0.00    +0.000 A 
BRANCH  26  27
ATOM     27  O   UNL     1      -3.261  12.386  20.348  0.00  0.00    +0.000 OA
ATOM     28  H   UNL     1      -3.743  11.826  20.977  0.00  0.00    +0.000 HD
ENDBRANCH  26  27
ENDBRANCH   9  21
BRANCH   1  29
ATOM     29  O   UNL     1       2.681  17.640  19.374  0.00  0.00    +0.000 OA
ATOM     30  H   UNL     1       3.063  17.858  20.242  0.00  0.00    +0.000 HD
ENDBRANCH   1  29
TORSDOF 4
ENDMDL
MODEL 9
REMARK VINA RESULT:      -7.4      1.394      1.734
REMARK  Name = 
REMARK  4 active torsions:
REMARK  status: ('A' for Active; 'I' for Inactive)
REMARK    1  A    between atoms: O_1  and  C_2
REMARK    2  A    between atoms: C_10  and  C_11
REMARK    3  A    between atoms: C_16  and  O_17
REMARK    4  A    between atoms: C_19  and  C_20
REMARK                            x       y       z     vdW  Elec       q    Type
REMARK                         _______ _______ _______ _____ _____    ______ ____
ROOT
ATOM      1  C   UNL     1       2.824  16.256  18.087  0.00  0.00    +0.000 A 
ATOM      2  C   UNL     1       3.750  15.200  18.097  0.00  0.00    +0.000 A 
ATOM      3  C   UNL     1       3.331  13.882  18.330  0.00  0.00    +0.000 A 
ATOM      4  C   UNL     1       1.985  13.647  18.548  0.00  0.00    +0.000 A 
ATOM      5  C   UNL     1       1.074  14.724  18.547  0.00  0.00    +0.000 A 
ATOM      6  C   UNL     1       1.471  16.028  18.313  0.00  0.00    +0.000 A 
ATOM      7  C   UNL     1      -0.328  14.217  18.771  0.00  0.00    +0.000 C 
ATOM      8  C   UNL     1      -0.128  12.722  18.910  0.00  0.00    +0.000 A 
ATOM      9  C   UNL     1      -1.047  11.704  19.146  0.00  0.00    +0.000 A 
ATOM     10  C   UNL     1      -0.480  10.416  19.192  0.00  0.00    +0.000 A 
ATOM     11  C   UNL     1       0.903  10.184  19.048  0.00  0.00    +0.000 A 
ATOM     12  N   UNL     1       1.787  11.200  18.848  0.00  0.00    +0.000 NA
ATOM     13  C   UNL     1       1.242  12.424  18.778  0.00  0.00    +0.000 A 
ENDROOT
BRANCH  11  14
ATOM     14  C   UNL     1       1.484   8.823  19.126  0.00  0.00    +0.000 A 
ATOM     15  C   UNL     1       2.069   8.217  17.996  0.00  0.00    +0.000 A 
ATOM     16  C   UNL     1       2.619   6.929  18.055  0.00  0.00    +0.000 A 
ATOM     17  C   UNL     1       2.601   6.213  19.250  0.00  0.00    +0.000 A 
ATOM     18  C   UNL     1       2.039   6.788  20.383  0.00  0.00    +0.000 A 
ATOM     19  C   UNL     1       1.488   8.070  20.313  0.00  0.00    +0.000 A 
ATOM     20  F   UNL     1       0.937   8.555  21.437  0.00  0.00    +0.000 F 
ENDBRANCH  11  14
BRANCH   9  21
ATOM     21  C   UNL     1      -2.506  11.926  19.357  0.00  0.00    +0.000 A 
ATOM     22  C   UNL     1      -3.445  11.566  18.370  0.00  0.00    +0.000 A 
ATOM     23  C   UNL     1      -4.811  11.843  18.492  0.00  0.00    +0.000 A 
ATOM     24  C   UNL     1      -5.297  12.429  19.652  0.00  0.00    +0.000 A 
ATOM     25  C   UNL     1      -4.417  12.739  20.682  0.00  0.00    +0.000 A 
ATOM     26  C   UNL     1      -3.042  12.507  20.529  0.00  0.00    +0.000 A 
BRANCH  26  27
ATOM     27  O   UNL     1      -2.217  12.884  21.556  0.00  0.00    +0.000 OA
ATOM     28  H   UNL     1      -1.302  12.922  21.235  0.00  0.00    +0.000 HD
ENDBRANCH  26  27
ENDBRANCH   9  21
BRANCH   1  29
ATOM     29  O   UNL     1       3.205  17.537  17.848  0.00  0.00    +0.000 OA
ATOM     30  H   UNL     1       4.023  17.525  17.320  0.00  0.00    +0.000 HD
ENDBRANCH   1  29
TORSDOF 4
ENDMDL
