MODEL 1
REMARK VINA RESULT:      -6.5      0.000      0.000
REMARK  Name = 
REMARK  6 active torsions:
REMARK  status: ('A' for Active; 'I' for Inactive)
REMARK    1  A    between atoms: N_1  and  C_2
REMARK    2  A    between atoms: C_2  and  C_3
REMARK    3  A    between atoms: C_3  and  N_4
REMARK    4  A    between atoms: C_9  and  C_10
REMARK    5  A    between atoms: C_10  and  C_11
REMARK    6  A    between atoms: C_11  and  C_12
REMARK                            x       y       z     vdW  Elec       q    Type
REMARK                         _______ _______ _______ _____ _____    ______ ____
ROOT
ATOM      1  N   UNL     1       6.596   5.193  15.875  0.00  0.00    +0.000 N 
ATOM      2  C   UNL     1       7.122   4.692  17.023  0.00  0.00    +0.000 C 
ATOM      3  O   UNL     1       8.204   4.125  17.055  0.00  0.00    +0.000 OA
ATOM      4  S   UNL     1       6.145   4.923  18.513  0.00  0.00    +0.000 S 
ATOM      5  C   UNL     1       4.979   5.820  17.476  0.00  0.00    +0.000 C 
ATOM      6  C   UNL     1       3.854   6.423  17.909  0.00  0.00    +0.000 C 
ATOM      7  C   UNL     1       5.414   5.817  16.079  0.00  0.00    +0.000 C 
ATOM      8  O   UNL     1       4.779   6.345  15.178  0.00  0.00    +0.000 OA
ENDROOT
BRANCH   1   9
ATOM      9  C   UNL     1       7.246   5.103  14.572  0.00  0.00    +0.000 C 
BRANCH   9  10
ATOM     10  C   UNL     1       6.600   4.036  13.676  0.00  0.00    +0.000 C 
BRANCH  10  11
ATOM     11  N   UNL     1       7.051   4.174  12.294  0.00  0.00    +0.000 NA
ATOM     12  H   UNL     1       8.096   4.217  12.294  0.00  0.00    +0.000 HD
ATOM     13  H   UNL     1       6.692   5.073  11.900  0.00  0.00    +0.000 HD
ENDBRANCH  10  11
ENDBRANCH   9  10
ENDBRANCH   1   9
BRANCH   6  14
ATOM     14  C   UNL     1       3.407   6.415  19.345  0.00  0.00    +0.000 C 
BRANCH  14  15
ATOM     15  C   UNL     1       2.145   5.556  19.473  0.00  0.00    +0.000 C 
BRANCH  15  16
ATOM     16  C   UNL     1       2.294   4.372  20.466  0.00  0.00    +0.000 C 
ATOM     17  C   UNL     1       0.965   3.586  20.583  0.00  0.00    +0.000 C 
ATOM     18  C   UNL     1       0.629   2.837  19.279  0.00  0.00    +0.000 C 
ATOM     19  C   UNL     1       1.774   1.887  18.896  0.00  0.00    +0.000 C 
ATOM     20  C   UNL     1       3.108   2.641  18.775  0.00  0.00    +0.000 C 
ATOM     21  C   UNL     1       3.420   3.372  20.092  0.00  0.00    +0.000 C 
ENDBRANCH  15  16
ENDBRANCH  14  15
ENDBRANCH   6  14
TORSDOF 6
ENDMDL
MODEL 2
REMARK VINA RESULT:      -6.4      0.959      1.331
REMARK  Name = 
REMARK  6 active torsions:
REMARK  status: ('A' for Active; 'I' for Inactive)
REMARK    1  A    between atoms: N_1  and  C_2
REMARK    2  A    between atoms: C_2  and  C_3
REMARK    3  A    between atoms: C_3  and  N_4
REMARK    4  A    between atoms: C_9  and  C_10
REMARK    5  A    between atoms: C_10  and  C_11
REMARK    6  A    between atoms: C_11  and  C_12
REMARK                            x       y       z     vdW  Elec       q    Type
REMARK                         _______ _______ _______ _____ _____    ______ ____
ROOT
ATOM      1  N   UNL     1       6.696   5.404  15.960  0.00  0.00    +0.000 N 
ATOM      2  C   UNL     1       7.069   4.830  17.133  0.00  0.00    +0.000 C 
ATOM      3  O   UNL     1       8.100   4.183  17.247  0.00  0.00    +0.000 OA
ATOM      4  S   UNL     1       5.969   5.086  18.530  0.00  0.00    +0.000 S 
ATOM      5  C   UNL     1       4.977   6.099  17.420  0.00  0.00    +0.000 C 
ATOM      6  C   UNL     1       3.861   6.770  17.765  0.00  0.00    +0.000 C 
ATOM      7  C   UNL     1       5.547   6.107  16.072  0.00  0.00    +0.000 C 
ATOM      8  O   UNL     1       5.042   6.708  15.135  0.00  0.00    +0.000 OA
ENDROOT
BRANCH   1   9
ATOM      9  C   UNL     1       7.463   5.305  14.723  0.00  0.00    +0.000 C 
BRANCH   9  10
ATOM     10  C   UNL     1       6.776   4.406  13.685  0.00  0.00    +0.000 C 
BRANCH  10  11
ATOM     11  N   UNL     1       6.141   3.260  14.328  0.00  0.00    +0.000 NA
ATOM     12  H   UNL     1       6.868   2.749  14.878  0.00  0.00    +0.000 HD
ATOM     13  H   UNL     1       5.775   2.610  13.595  0.00  0.00    +0.000 HD
ENDBRANCH  10  11
ENDBRANCH   9  10
ENDBRANCH   1   9
BRANCH   6  14
ATOM     14  C   UNL     1       3.274   6.751  19.150  0.00  0.00    +0.000 C 
BRANCH  14  15
ATOM     15  C   UNL     1       2.991   5.302  19.555  0.00  0.00    +0.000 C 
BRANCH  15  16
ATOM     16  C   UNL     1       1.549   4.830  19.224  0.00  0.00    +0.000 C 
ATOM     17  C   UNL     1       1.509   4.116  17.851  0.00  0.00    +0.000 C 
ATOM     18  C   UNL     1       2.260   2.771  17.885  0.00  0.00    +0.000 C 
ATOM     19  C   UNL     1       1.674   1.859  18.974  0.00  0.00    +0.000 C 
ATOM     20  C   UNL     1       1.699   2.543  20.349  0.00  0.00    +0.000 C 
ATOM     21  C   UNL     1       0.938   3.878  20.285  0.00  0.00    +0.000 C 
ENDBRANCH  15  16
ENDBRANCH  14  15
ENDBRANCH   6  14
TORSDOF 6
ENDMDL
MODEL 3
REMARK VINA RESULT:      -6.3      2.958      6.435
REMARK  Name = 
REMARK  6 active torsions:
REMARK  status: ('A' for Active; 'I' for Inactive)
REMARK    1  A    between atoms: N_1  and  C_2
REMARK    2  A    between atoms: C_2  and  C_3
REMARK    3  A    between atoms: C_3  and  N_4
REMARK    4  A    between atoms: C_9  and  C_10
REMARK    5  A    between atoms: C_10  and  C_11
REMARK    6  A    between atoms: C_11  and  C_12
REMARK                            x       y       z     vdW  Elec       q    Type
REMARK                         _______ _______ _______ _____ _____    ______ ____
ROOT
ATOM      1  N   UNL     1       2.934   3.307  19.147  0.00  0.00    +0.000 N 
ATOM      2  C   UNL     1       4.241   3.123  19.465  0.00  0.00    +0.000 C 
ATOM      3  O   UNL     1       4.613   2.239  20.222  0.00  0.00    +0.000 OA
ATOM      4  S   UNL     1       5.414   4.246  18.695  0.00  0.00    +0.000 S 
ATOM      5  C   UNL     1       3.999   4.960  17.841  0.00  0.00    +0.000 C 
ATOM      6  C   UNL     1       4.056   5.954  16.933  0.00  0.00    +0.000 C 
ATOM      7  C   UNL     1       2.755   4.312  18.260  0.00  0.00    +0.000 C 
ATOM      8  O   UNL     1       1.655   4.636  17.836  0.00  0.00    +0.000 OA
ENDROOT
BRANCH   1   9
ATOM      9  C   UNL     1       1.843   2.493  19.672  0.00  0.00    +0.000 C 
BRANCH   9  10
ATOM     10  C   UNL     1       1.263   3.070  20.971  0.00  0.00    +0.000 C 
BRANCH  10  11
ATOM     11  N   UNL     1       1.932   2.503  22.138  0.00  0.00    +0.000 NA
ATOM     12  H   UNL     1       1.930   3.222  22.898  0.00  0.00    +0.000 HD
ATOM     13  H   UNL     1       2.928   2.293  21.898  0.00  0.00    +0.000 HD
ENDBRANCH  10  11
ENDBRANCH   9  10
ENDBRANCH   1   9
BRANCH   6  14
ATOM     14  C   UNL     1       5.336   6.623  16.512  0.00  0.00    +0.000 C 
BRANCH  14  15
ATOM     15  C   UNL     1       5.709   6.149  15.104  0.00  0.00    +0.000 C 
BRANCH  15  16
ATOM     16  C   UNL     1       6.720   4.971  15.089  0.00  0.00    +0.000 C 
ATOM     17  C   UNL     1       6.010   3.646  14.720  0.00  0.00    +0.000 C 
ATOM     18  C   UNL     1       5.531   3.644  13.255  0.00  0.00    +0.000 C 
ATOM     19  C   UNL     1       6.712   3.894  12.305  0.00  0.00    +0.000 C 
ATOM     20  C   UNL     1       7.438   5.203  12.650  0.00  0.00    +0.000 C 
ATOM     21  C   UNL     1       7.910   5.173  14.113  0.00  0.00    +0.000 C 
ENDBRANCH  15  16
ENDBRANCH  14  15
ENDBRANCH   6  14
TORSDOF 6
ENDMDL
MODEL 4
REMARK VINA RESULT:      -6.3      5.289      7.849
REMARK  Name = 
REMARK  6 active torsions:
REMARK  status: ('A' for Active; 'I' for Inactive)
REMARK    1  A    between atoms: N_1  and  C_2
REMARK    2  A    between atoms: C_2  and  C_3
REMARK    3  A    between atoms: C_3  and  N_4
REMARK    4  A    between atoms: C_9  and  C_10
REMARK    5  A    between atoms: C_10  and  C_11
REMARK    6  A    between atoms: C_11  and  C_12
REMARK                            x       y       z     vdW  Elec       q    Type
REMARK                         _______ _______ _______ _____ _____    ______ ____
ROOT
ATOM      1  N   UNL     1       5.649   5.111  17.248  0.00  0.00    +0.000 N 
ATOM      2  C   UNL     1       6.204   4.748  18.434  0.00  0.00    +0.000 C 
ATOM      3  O   UNL     1       5.975   3.671  18.962  0.00  0.00    +0.000 OA
ATOM      4  S   UNL     1       7.319   5.939  19.188  0.00  0.00    +0.000 S 
ATOM      5  C   UNL     1       7.034   6.960  17.733  0.00  0.00    +0.000 C 
ATOM      6  C   UNL     1       7.618   8.149  17.488  0.00  0.00    +0.000 C 
ATOM      7  C   UNL     1       6.075   6.324  16.829  0.00  0.00    +0.000 C 
ATOM      8  O   UNL     1       5.704   6.831  15.781  0.00  0.00    +0.000 OA
ENDROOT
BRANCH   1   9
ATOM      9  C   UNL     1       4.725   4.275  16.490  0.00  0.00    +0.000 C 
BRANCH   9  10
ATOM     10  C   UNL     1       3.363   4.138  17.187  0.00  0.00    +0.000 C 
BRANCH  10  11
ATOM     11  N   UNL     1       3.218   2.818  17.793  0.00  0.00    +0.000 NA
ATOM     12  H   UNL     1       3.368   2.913  18.824  0.00  0.00    +0.000 HD
ATOM     13  H   UNL     1       3.958   2.181  17.419  0.00  0.00    +0.000 HD
ENDBRANCH  10  11
ENDBRANCH   9  10
ENDBRANCH   1   9
BRANCH   6  14
ATOM     14  C   UNL     1       8.598   8.803  18.425  0.00  0.00    +0.000 C 
BRANCH  14  15
ATOM     15  C   UNL     1       8.902  10.218  17.924  0.00  0.00    +0.000 C 
BRANCH  15  16
ATOM     16  C   UNL     1       9.230  11.225  19.059  0.00  0.00    +0.000 C 
ATOM     17  C   UNL     1      10.714  11.108  19.483  0.00  0.00    +0.000 C 
ATOM     18  C   UNL     1      11.665  11.594  18.372  0.00  0.00    +0.000 C 
ATOM     19  C   UNL     1      11.337  13.044  17.984  0.00  0.00    +0.000 C 
ATOM     20  C   UNL     1       9.868  13.191  17.561  0.00  0.00    +0.000 C 
ATOM     21  C   UNL     1       8.944  12.705  18.690  0.00  0.00    +0.000 C 
ENDBRANCH  15  16
ENDBRANCH  14  15
ENDBRANCH   6  14
TORSDOF 6
ENDMDL
MODEL 5
REMARK VINA RESULT:      -6.3      5.339      7.873
REMARK  Name = 
REMARK  6 active torsions:
REMARK  status: ('A' for Active; 'I' for Inactive)
REMARK    1  A    between atoms: N_1  and  C_2
REMARK    2  A    between atoms: C_2  and  C_3
REMARK    3  A    between atoms: C_3  and  N_4
REMARK    4  A    between atoms: C_9  and  C_10
REMARK    5  A    between atoms: C_10  and  C_11
REMARK    6  A    between atoms: C_11  and  C_12
REMARK                            x       y       z     vdW  Elec       q    Type
REMARK                         _______ _______ _______ _____ _____    ______ ____
ROOT
ATOM      1  N   UNL     1       5.536   5.210  17.417  0.00  0.00    +0.000 N 
ATOM      2  C   UNL     1       6.166   4.773  18.538  0.00  0.00    +0.000 C 
ATOM      3  O   UNL     1       5.932   3.683  19.039  0.00  0.00    +0.000 OA
ATOM      4  S   UNL     1       7.390   5.882  19.247  0.00  0.00    +0.000 S 
ATOM      5  C   UNL     1       7.036   6.977  17.863  0.00  0.00    +0.000 C 
ATOM      6  C   UNL     1       7.651   8.151  17.620  0.00  0.00    +0.000 C 
ATOM      7  C   UNL     1       5.980   6.422  17.015  0.00  0.00    +0.000 C 
ATOM      8  O   UNL     1       5.550   6.990  16.022  0.00  0.00    +0.000 OA
ENDROOT
BRANCH   1   9
ATOM      9  C   UNL     1       4.517   4.447  16.704  0.00  0.00    +0.000 C 
BRANCH   9  10
ATOM     10  C   UNL     1       3.147   4.522  17.393  0.00  0.00    +0.000 C 
BRANCH  10  11
ATOM     11  N   UNL     1       2.979   3.422  18.338  0.00  0.00    +0.000 NA
ATOM     12  H   UNL     1       2.044   2.986  18.170  0.00  0.00    +0.000 HD
ATOM     13  H   UNL     1       2.986   3.799  19.314  0.00  0.00    +0.000 HD
ENDBRANCH  10  11
ENDBRANCH   9  10
ENDBRANCH   1   9
BRANCH   6  14
ATOM     14  C   UNL     1       8.729   8.722  18.500  0.00  0.00    +0.000 C 
BRANCH  14  15
ATOM     15  C   UNL     1       8.851  10.225  18.233  0.00  0.00    +0.000 C 
BRANCH  15  16
ATOM     16  C   UNL     1      10.039  10.897  18.971  0.00  0.00    +0.000 C 
ATOM     17  C   UNL     1      10.981  11.602  17.965  0.00  0.00    +0.000 C 
ATOM     18  C   UNL     1      10.307  12.826  17.315  0.00  0.00    +0.000 C 
ATOM     19  C   UNL     1       9.845  13.818  18.393  0.00  0.00    +0.000 C 
ATOM     20  C   UNL     1       8.910  13.144  19.409  0.00  0.00    +0.000 C 
ATOM     21  C   UNL     1       9.611  11.932  20.045  0.00  0.00    +0.000 C 
ENDBRANCH  15  16
ENDBRANCH  14  15
ENDBRANCH   6  14
TORSDOF 6
ENDMDL
MODEL 6
REMARK VINA RESULT:      -6.2      5.314      7.720
REMARK  Name = 
REMARK  6 active torsions:
REMARK  status: ('A' for Active; 'I' for Inactive)
REMARK    1  A    between atoms: N_1  and  C_2
REMARK    2  A    between atoms: C_2  and  C_3
REMARK    3  A    between atoms: C_3  and  N_4
REMARK    4  A    between atoms: C_9  and  C_10
REMARK    5  A    between atoms: C_10  and  C_11
REMARK    6  A    between atoms: C_11  and  C_12
REMARK                            x       y       z     vdW  Elec       q    Type
REMARK                         _______ _______ _______ _____ _____    ______ ____
ROOT
ATOM      1  N   UNL     1       5.757   5.219  17.258  0.00  0.00    +0.000 N 
ATOM      2  C   UNL     1       6.254   4.844  18.465  0.00  0.00    +0.000 C 
ATOM      3  O   UNL     1       5.983   3.769  18.979  0.00  0.00    +0.000 OA
ATOM      4  S   UNL     1       7.356   6.012  19.271  0.00  0.00    +0.000 S 
ATOM      5  C   UNL     1       7.153   7.042  17.808  0.00  0.00    +0.000 C 
ATOM      6  C   UNL     1       7.768   8.221  17.593  0.00  0.00    +0.000 C 
ATOM      7  C   UNL     1       6.222   6.425  16.861  0.00  0.00    +0.000 C 
ATOM      8  O   UNL     1       5.906   6.942  15.800  0.00  0.00    +0.000 OA
ENDROOT
BRANCH   1   9
ATOM      9  C   UNL     1       4.851   4.402  16.458  0.00  0.00    +0.000 C 
BRANCH   9  10
ATOM     10  C   UNL     1       5.603   3.522  15.449  0.00  0.00    +0.000 C 
BRANCH  10  11
ATOM     11  N   UNL     1       5.701   4.185  14.152  0.00  0.00    +0.000 NA
ATOM     12  H   UNL     1       6.714   4.281  13.909  0.00  0.00    +0.000 HD
ATOM     13  H   UNL     1       5.295   5.146  14.222  0.00  0.00    +0.000 HD
ENDBRANCH  10  11
ENDBRANCH   9  10
ENDBRANCH   1   9
BRANCH   6  14
ATOM     14  C   UNL     1       8.717   8.855  18.573  0.00  0.00    +0.000 C 
BRANCH  14  15
ATOM     15  C   UNL     1       8.878  10.338  18.227  0.00  0.00    +0.000 C 
BRANCH  15  16
ATOM     16  C   UNL     1       9.732  11.129  19.254  0.00  0.00    +0.000 C 
ATOM     17  C   UNL     1      11.177  11.319  18.734  0.00  0.00    +0.000 C 
ATOM     18  C   UNL     1      11.227  12.264  17.518  0.00  0.00    +0.000 C 
ATOM     19  C   UNL     1      10.608  13.625  17.872  0.00  0.00    +0.000 C 
ATOM     20  C   UNL     1       9.172  13.467  18.395  0.00  0.00    +0.000 C 
ATOM     21  C   UNL     1       9.156  12.526  19.610  0.00  0.00    +0.000 C 
ENDBRANCH  15  16
ENDBRANCH  14  15
ENDBRANCH   6  14
TORSDOF 6
ENDMDL
MODEL 7
REMARK VINA RESULT:      -6.2      2.251      3.302
REMARK  Name = 
REMARK  6 active torsions:
REMARK  status: ('A' for Active; 'I' for Inactive)
REMARK    1  A    between atoms: N_1  and  C_2
REMARK    2  A    between atoms: C_2  and  C_3
REMARK    3  A    between atoms: C_3  and  N_4
REMARK    4  A    between atoms: C_9  and  C_10
REMARK    5  A    between atoms: C_10  and  C_11
REMARK    6  A    between atoms: C_11  and  C_12
REMARK                            x       y       z     vdW  Elec       q    Type
REMARK                         _______ _______ _______ _____ _____    ______ ____
ROOT
ATOM      1  N   UNL     1       7.047   6.572  17.502  0.00  0.00    +0.000 N 
ATOM      2  C   UNL     1       7.130   5.834  18.639  0.00  0.00    +0.000 C 
ATOM      3  O   UNL     1       8.027   5.985  19.455  0.00  0.00    +0.000 OA
ATOM      4  S   UNL     1       5.830   4.619  18.896  0.00  0.00    +0.000 S 
ATOM      5  C   UNL     1       5.110   5.230  17.363  0.00  0.00    +0.000 C 
ATOM      6  C   UNL     1       3.952   4.805  16.822  0.00  0.00    +0.000 C 
ATOM      7  C   UNL     1       5.953   6.268  16.768  0.00  0.00    +0.000 C 
ATOM      8  O   UNL     1       5.687   6.824  15.712  0.00  0.00    +0.000 OA
ENDROOT
BRANCH   1   9
ATOM      9  C   UNL     1       8.008   7.604  17.127  0.00  0.00    +0.000 C 
BRANCH   9  10
ATOM     10  C   UNL     1       7.811   8.898  17.929  0.00  0.00    +0.000 C 
BRANCH  10  11
ATOM     11  N   UNL     1       8.839   9.035  18.957  0.00  0.00    +0.000 NA
ATOM     12  H   UNL     1       9.138  10.037  18.989  0.00  0.00    +0.000 HD
ATOM     13  H   UNL     1       9.672   8.460  18.693  0.00  0.00    +0.000 HD
ENDBRANCH  10  11
ENDBRANCH   9  10
ENDBRANCH   1   9
BRANCH   6  14
ATOM     14  C   UNL     1       3.093   3.732  17.434  0.00  0.00    +0.000 C 
BRANCH  14  15
ATOM     15  C   UNL     1       1.820   4.369  17.997  0.00  0.00    +0.000 C 
BRANCH  15  16
ATOM     16  C   UNL     1       1.014   3.430  18.935  0.00  0.00    +0.000 C 
ATOM     17  C   UNL     1       1.712   2.055  19.064  0.00  0.00    +0.000 C 
ATOM     18  C   UNL     1       3.046   2.162  19.829  0.00  0.00    +0.000 C 
ATOM     19  C   UNL     1       2.819   2.774  21.220  0.00  0.00    +0.000 C 
ATOM     20  C   UNL     1       2.123   4.140  21.122  0.00  0.00    +0.000 C 
ATOM     21  C   UNL     1       0.794   4.001  20.361  0.00  0.00    +0.000 C 
ENDBRANCH  15  16
ENDBRANCH  14  15
ENDBRANCH   6  14
TORSDOF 6
ENDMDL
MODEL 8
REMARK VINA RESULT:      -6.1      4.576      7.107
REMARK  Name = 
REMARK  6 active torsions:
REMARK  status: ('A' for Active; 'I' for Inactive)
REMARK    1  A    between atoms: N_1  and  C_2
REMARK    2  A    between atoms: C_2  and  C_3
REMARK    3  A    between atoms: C_3  and  N_4
REMARK    4  A    between atoms: C_9  and  C_10
REMARK    5  A    between atoms: C_10  and  C_11
REMARK    6  A    between atoms: C_11  and  C_12
REMARK                            x       y       z     vdW  Elec       q    Type
REMARK                         _______ _______ _______ _____ _____    ______ ____
ROOT
ATOM      1  N   UNL     1       0.986  10.073  19.325  0.00  0.00    +0.000 N 
ATOM      2  C   UNL     1       0.793   9.432  20.507  0.00  0.00    +0.000 C 
ATOM      3  O   UNL     1       0.136   9.916  21.415  0.00  0.00    +0.000 OA
ATOM      4  S   UNL     1       1.549   7.809  20.663  0.00  0.00    +0.000 S 
ATOM      5  C   UNL     1       2.102   8.025  18.964  0.00  0.00    +0.000 C 
ATOM      6  C   UNL     1       2.787   7.114  18.245  0.00  0.00    +0.000 C 
ATOM      7  C   UNL     1       1.706   9.337  18.450  0.00  0.00    +0.000 C 
ATOM      8  O   UNL     1       1.984   9.727  17.325  0.00  0.00    +0.000 OA
ENDROOT
BRANCH   1   9
ATOM      9  C   UNL     1       0.448  11.394  19.016  0.00  0.00    +0.000 C 
BRANCH   9  10
ATOM     10  C   UNL     1       1.520  12.490  19.101  0.00  0.00    +0.000 C 
BRANCH  10  11
ATOM     11  N   UNL     1       2.039  12.815  17.776  0.00  0.00    +0.000 NA
ATOM     12  H   UNL     1       1.231  12.878  17.115  0.00  0.00    +0.000 HD
ATOM     13  H   UNL     1       2.663  12.043  17.448  0.00  0.00    +0.000 HD
ENDBRANCH  10  11
ENDBRANCH   9  10
ENDBRANCH   1   9
BRANCH   6  14
ATOM     14  C   UNL     1       3.199   5.771  18.782  0.00  0.00    +0.000 C 
BRANCH  14  15
ATOM     15  C   UNL     1       4.227   5.146  17.833  0.00  0.00    +0.000 C 
BRANCH  15  16
ATOM     16  C   UNL     1       5.241   6.167  17.251  0.00  0.00    +0.000 C 
ATOM     17  C   UNL     1       6.690   5.779  17.636  0.00  0.00    +0.000 C 
ATOM     18  C   UNL     1       7.139   4.483  16.934  0.00  0.00    +0.000 C 
ATOM     19  C   UNL     1       7.017   4.630  15.410  0.00  0.00    +0.000 C 
ATOM     20  C   UNL     1       5.588   5.017  14.998  0.00  0.00    +0.000 C 
ATOM     21  C   UNL     1       5.171   6.316  15.708  0.00  0.00    +0.000 C 
ENDBRANCH  15  16
ENDBRANCH  14  15
ENDBRANCH   6  14
TORSDOF 6
ENDMDL
MODEL 9
REMARK VINA RESULT:      -6.1      5.567      7.933
REMARK  Name = 
REMARK  6 active torsions:
REMARK  status: ('A' for Active; 'I' for Inactive)
REMARK    1  A    between atoms: N_1  and  C_2
REMARK    2  A    between atoms: C_2  and  C_3
REMARK    3  A    between atoms: C_3  and  N_4
REMARK    4  A    between atoms: C_9  and  C_10
REMARK    5  A    between atoms: C_10  and  C_11
REMARK    6  A    between atoms: C_11  and  C_12
REMARK                            x       y       z     vdW  Elec       q    Type
REMARK                         _______ _______ _______ _____ _____    ______ ____
ROOT
ATOM      1  N   UNL     1       5.891   5.660  17.275  0.00  0.00    +0.000 N 
ATOM      2  C   UNL     1       6.643   5.150  18.284  0.00  0.00    +0.000 C 
ATOM      3  O   UNL     1       6.529   3.996  18.669  0.00  0.00    +0.000 OA
ATOM      4  S   UNL     1       7.843   6.265  19.024  0.00  0.00    +0.000 S 
ATOM      5  C   UNL     1       7.298   7.478  17.810  0.00  0.00    +0.000 C 
ATOM      6  C   UNL     1       7.807   8.716  17.662  0.00  0.00    +0.000 C 
ATOM      7  C   UNL     1       6.215   6.941  16.986  0.00  0.00    +0.000 C 
ATOM      8  O   UNL     1       5.663   7.582  16.104  0.00  0.00    +0.000 OA
ENDROOT
BRANCH   1   9
ATOM      9  C   UNL     1       4.871   4.905  16.556  0.00  0.00    +0.000 C 
BRANCH   9  10
ATOM     10  C   UNL     1       5.412   4.290  15.257  0.00  0.00    +0.000 C 
BRANCH  10  11
ATOM     11  N   UNL     1       6.190   3.086  15.535  0.00  0.00    +0.000 NA
ATOM     12  H   UNL     1       6.362   3.039  16.565  0.00  0.00    +0.000 HD
ATOM     13  H   UNL     1       7.117   3.154  15.056  0.00  0.00    +0.000 HD
ENDBRANCH  10  11
ENDBRANCH   9  10
ENDBRANCH   1   9
BRANCH   6  14
ATOM     14  C   UNL     1       8.915   9.268  18.518  0.00  0.00    +0.000 C 
BRANCH  14  15
ATOM     15  C   UNL     1       8.897  10.797  18.438  0.00  0.00    +0.000 C 
BRANCH  15  16
ATOM     16  C   UNL     1      10.236  11.413  17.953  0.00  0.00    +0.000 C 
ATOM     17  C   UNL     1      10.048  12.902  17.573  0.00  0.00    +0.000 C 
ATOM     18  C   UNL     1       9.752  13.774  18.808  0.00  0.00    +0.000 C 
ATOM     19  C   UNL     1      10.876  13.630  19.846  0.00  0.00    +0.000 C 
ATOM     20  C   UNL     1      11.087  12.161  20.241  0.00  0.00    +0.000 C 
ATOM     21  C   UNL     1      11.387  11.318  18.990  0.00  0.00    +0.000 C 
ENDBRANCH  15  16
ENDBRANCH  14  15
ENDBRANCH   6  14
TORSDOF 6
ENDMDL
