MODEL 1
REMARK VINA RESULT:      -8.4      0.000      0.000
REMARK  Name = 
REMARK  1 active torsions:
REMARK  status: ('A' for Active; 'I' for Inactive)
REMARK    1  A    between atoms: O_1  and  C_2
REMARK                            x       y       z     vdW  Elec       q    Type
REMARK                         _______ _______ _______ _____ _____    ______ ____
ROOT
ATOM      1  C   UNL     1       6.776   5.641  16.547  0.00  0.00    +0.000 A 
ATOM      2  N   UNL     1       7.603   5.878  15.565  0.00  0.00    +0.000 NA
ATOM      3  C   UNL     1       7.120   5.124  14.526  0.00  0.00    +0.000 A 
ATOM      4  C   UNL     1       7.611   5.009  13.216  0.00  0.00    +0.000 A 
ATOM      5  C   UNL     1       6.936   4.185  12.308  0.00  0.00    +0.000 A 
ATOM      6  C   UNL     1       5.798   3.481  12.696  0.00  0.00    +0.000 A 
ATOM      7  C   UNL     1       5.299   3.574  13.999  0.00  0.00    +0.000 A 
ATOM      8  C   UNL     1       5.982   4.408  14.899  0.00  0.00    +0.000 A 
ATOM      9  N   UNL     1       5.763   4.759  16.227  0.00  0.00    +0.000 N 
ATOM     10  C   UNL     1       4.735   4.328  17.072  0.00  0.00    +0.000 A 
ATOM     11  N   UNL     1       3.869   3.391  16.705  0.00  0.00    +0.000 NA
ATOM     12  C   UNL     1       3.034   3.253  17.781  0.00  0.00    +0.000 A 
ATOM     13  C   UNL     1       1.936   2.407  17.991  0.00  0.00    +0.000 A 
ATOM     14  C   UNL     1       1.252   2.515  19.210  0.00  0.00    +0.000 A 
ATOM     15  C   UNL     1       1.656   3.440  20.175  0.00  0.00    +0.000 A 
ATOM     16  F   UNL     1       0.966   3.518  21.322  0.00  0.00    +0.000 F 
ATOM     17  C   UNL     1       2.751   4.283  19.992  0.00  0.00    +0.000 A 
ATOM     18  C   UNL     1       3.405   4.139  18.777  0.00  0.00    +0.000 A 
ATOM     19  O   UNL     1       4.502   4.818  18.341  0.00  0.00    +0.000 OA
ENDROOT
BRANCH   1  20
ATOM     20  O   UNL     1       6.951   6.205  17.728  0.00  0.00    +0.000 OA
ATOM     21  H   UNL     1       6.304   6.934  17.699  0.00  0.00    +0.000 HD
ENDBRANCH   1  20
TORSDOF 1
ENDMDL
MODEL 2
REMARK VINA RESULT:      -8.3      1.104      1.140
REMARK  Name = 
REMARK  1 active torsions:
REMARK  status: ('A' for Active; 'I' for Inactive)
REMARK    1  A    between atoms: O_1  and  C_2
REMARK                            x       y       z     vdW  Elec       q    Type
REMARK                         _______ _______ _______ _____ _____    ______ ____
ROOT
ATOM      1  C   UNL     1       6.943   4.714  17.707  0.00  0.00    +0.000 A 
ATOM      2  N   UNL     1       7.800   5.022  16.772  0.00  0.00    +0.000 NA
ATOM      3  C   UNL     1       7.145   4.733  15.603  0.00  0.00    +0.000 A 
ATOM      4  C   UNL     1       7.589   4.888  14.280  0.00  0.00    +0.000 A 
ATOM      5  C   UNL     1       6.731   4.541  13.230  0.00  0.00    +0.000 A 
ATOM      6  C   UNL     1       5.456   4.041  13.489  0.00  0.00    +0.000 A 
ATOM      7  C   UNL     1       4.999   3.870  14.799  0.00  0.00    +0.000 A 
ATOM      8  C   UNL     1       5.868   4.227  15.844  0.00  0.00    +0.000 A 
ATOM      9  N   UNL     1       5.744   4.223  17.229  0.00  0.00    +0.000 N 
ATOM     10  C   UNL     1       4.644   3.821  17.993  0.00  0.00    +0.000 A 
ATOM     11  N   UNL     1       3.574   3.258  17.445  0.00  0.00    +0.000 NA
ATOM     12  C   UNL     1       2.733   3.017  18.498  0.00  0.00    +0.000 A 
ATOM     13  C   UNL     1       1.462   2.427  18.544  0.00  0.00    +0.000 A 
ATOM     14  C   UNL     1       0.828   2.338  19.790  0.00  0.00    +0.000 A 
ATOM     15  C   UNL     1       1.449   2.825  20.943  0.00  0.00    +0.000 A 
ATOM     16  F   UNL     1       0.801   2.731  22.113  0.00  0.00    +0.000 F 
ATOM     17  C   UNL     1       2.717   3.405  20.922  0.00  0.00    +0.000 A 
ATOM     18  C   UNL     1       3.312   3.467  19.671  0.00  0.00    +0.000 A 
ATOM     19  O   UNL     1       4.541   3.966  19.362  0.00  0.00    +0.000 OA
ENDROOT
BRANCH   1  20
ATOM     20  O   UNL     1       7.253   4.858  18.983  0.00  0.00    +0.000 OA
ATOM     21  H   UNL     1       8.082   4.349  19.045  0.00  0.00    +0.000 HD
ENDBRANCH   1  20
TORSDOF 1
ENDMDL
MODEL 3
REMARK VINA RESULT:      -7.8      5.270      7.871
REMARK  Name = 
REMARK  1 active torsions:
REMARK  status: ('A' for Active; 'I' for Inactive)
REMARK    1  A    between atoms: O_1  and  C_2
REMARK                            x       y       z     vdW  Elec       q    Type
REMARK                         _______ _______ _______ _____ _____    ______ ____
ROOT
ATOM      1  C   UNL     1       1.339  10.088  18.631  0.00  0.00    +0.000 A 
ATOM      2  N   UNL     1       0.664  11.067  19.169  0.00  0.00    +0.000 NA
ATOM      3  C   UNL     1       0.353  10.614  20.426  0.00  0.00    +0.000 A 
ATOM      4  C   UNL     1      -0.351  11.265  21.451  0.00  0.00    +0.000 A 
ATOM      5  C   UNL     1      -0.535  10.608  22.673  0.00  0.00    +0.000 A 
ATOM      6  C   UNL     1      -0.035   9.322  22.872  0.00  0.00    +0.000 A 
ATOM      7  C   UNL     1       0.661   8.653  21.860  0.00  0.00    +0.000 A 
ATOM      8  C   UNL     1       0.843   9.325  20.640  0.00  0.00    +0.000 A 
ATOM      9  N   UNL     1       1.492   8.992  19.457  0.00  0.00    +0.000 N 
ATOM     10  C   UNL     1       2.171   7.807  19.152  0.00  0.00    +0.000 A 
ATOM     11  N   UNL     1       2.170   6.764  19.974  0.00  0.00    +0.000 NA
ATOM     12  C   UNL     1       2.931   5.822  19.336  0.00  0.00    +0.000 A 
ATOM     13  C   UNL     1       3.277   4.515  19.705  0.00  0.00    +0.000 A 
ATOM     14  C   UNL     1       4.106   3.789  18.839  0.00  0.00    +0.000 A 
ATOM     15  C   UNL     1       4.568   4.358  17.650  0.00  0.00    +0.000 A 
ATOM     16  F   UNL     1       5.368   3.632  16.857  0.00  0.00    +0.000 F 
ATOM     17  C   UNL     1       4.227   5.652  17.257  0.00  0.00    +0.000 A 
ATOM     18  C   UNL     1       3.400   6.333  18.138  0.00  0.00    +0.000 A 
ATOM     19  O   UNL     1       2.905   7.595  18.003  0.00  0.00    +0.000 OA
ENDROOT
BRANCH   1  20
ATOM     20  O   UNL     1       1.794  10.181  17.395  0.00  0.00    +0.000 OA
ATOM     21  H   UNL     1       2.755  10.254  17.540  0.00  0.00    +0.000 HD
ENDBRANCH   1  20
TORSDOF 1
ENDMDL
MODEL 4
REMARK VINA RESULT:      -7.5      4.581      5.981
REMARK  Name = 
REMARK  1 active torsions:
REMARK  status: ('A' for Active; 'I' for Inactive)
REMARK    1  A    between atoms: O_1  and  C_2
REMARK                            x       y       z     vdW  Elec       q    Type
REMARK                         _______ _______ _______ _____ _____    ______ ____
ROOT
ATOM      1  C   UNL     1       2.886   4.892  20.075  0.00  0.00    +0.000 A 
ATOM      2  N   UNL     1       3.659   4.059  19.433  0.00  0.00    +0.000 NA
ATOM      3  C   UNL     1       4.127   4.784  18.367  0.00  0.00    +0.000 A 
ATOM      4  C   UNL     1       5.015   4.390  17.353  0.00  0.00    +0.000 A 
ATOM      5  C   UNL     1       5.371   5.316  16.366  0.00  0.00    +0.000 A 
ATOM      6  C   UNL     1       4.849   6.608  16.380  0.00  0.00    +0.000 A 
ATOM      7  C   UNL     1       3.956   7.016  17.375  0.00  0.00    +0.000 A 
ATOM      8  C   UNL     1       3.610   6.079  18.364  0.00  0.00    +0.000 A 
ATOM      9  N   UNL     1       2.800   6.140  19.492  0.00  0.00    +0.000 N 
ATOM     10  C   UNL     1       2.057   7.229  19.959  0.00  0.00    +0.000 A 
ATOM     11  N   UNL     1       1.950   8.358  19.268  0.00  0.00    +0.000 NA
ATOM     12  C   UNL     1       1.161   9.164  20.043  0.00  0.00    +0.000 A 
ATOM     13  C   UNL     1       0.690  10.467  19.832  0.00  0.00    +0.000 A 
ATOM     14  C   UNL     1      -0.094  11.049  20.837  0.00  0.00    +0.000 A 
ATOM     15  C   UNL     1      -0.391  10.347  22.007  0.00  0.00    +0.000 A 
ATOM     16  F   UNL     1      -1.134  10.945  22.948  0.00  0.00    +0.000 F 
ATOM     17  C   UNL     1       0.057   9.045  22.234  0.00  0.00    +0.000 A 
ATOM     18  C   UNL     1       0.824   8.504  21.211  0.00  0.00    +0.000 A 
ATOM     19  O   UNL     1       1.376   7.260  21.160  0.00  0.00    +0.000 OA
ENDROOT
BRANCH   1  20
ATOM     20  O   UNL     1       2.248   4.515  21.169  0.00  0.00    +0.000 OA
ATOM     21  H   UNL     1       1.978   3.607  20.940  0.00  0.00    +0.000 HD
ENDBRANCH   1  20
TORSDOF 1
ENDMDL
MODEL 5
REMARK VINA RESULT:      -7.5      4.710      7.130
REMARK  Name = 
REMARK  1 active torsions:
REMARK  status: ('A' for Active; 'I' for Inactive)
REMARK    1  A    between atoms: O_1  and  C_2
REMARK                            x       y       z     vdW  Elec       q    Type
REMARK                         _______ _______ _______ _____ _____    ______ ____
ROOT
ATOM      1  C   UNL     1       2.127   8.839  18.274  0.00  0.00    +0.000 A 
ATOM      2  N   UNL     1       1.649  10.055  18.270  0.00  0.00    +0.000 NA
ATOM      3  C   UNL     1       0.966  10.153  19.455  0.00  0.00    +0.000 A 
ATOM      4  C   UNL     1       0.267  11.251  19.982  0.00  0.00    +0.000 A 
ATOM      5  C   UNL     1      -0.346  11.128  21.235  0.00  0.00    +0.000 A 
ATOM      6  C   UNL     1      -0.273   9.932  21.948  0.00  0.00    +0.000 A 
ATOM      7  C   UNL     1       0.410   8.825  21.436  0.00  0.00    +0.000 A 
ATOM      8  C   UNL     1       1.025   8.963  20.180  0.00  0.00    +0.000 A 
ATOM      9  N   UNL     1       1.794   8.109  19.397  0.00  0.00    +0.000 N 
ATOM     10  C   UNL     1       2.169   6.791  19.676  0.00  0.00    +0.000 A 
ATOM     11  N   UNL     1       1.706   6.136  20.734  0.00  0.00    +0.000 NA
ATOM     12  C   UNL     1       2.296   4.903  20.662  0.00  0.00    +0.000 A 
ATOM     13  C   UNL     1       2.182   3.779  21.491  0.00  0.00    +0.000 A 
ATOM     14  C   UNL     1       2.944   2.648  21.167  0.00  0.00    +0.000 A 
ATOM     15  C   UNL     1       3.786   2.650  20.053  0.00  0.00    +0.000 A 
ATOM     16  F   UNL     1       4.506   1.552  19.786  0.00  0.00    +0.000 F 
ATOM     17  C   UNL     1       3.907   3.753  19.207  0.00  0.00    +0.000 A 
ATOM     18  C   UNL     1       3.131   4.848  19.560  0.00  0.00    +0.000 A 
ATOM     19  O   UNL     1       3.043   6.044  18.913  0.00  0.00    +0.000 OA
ENDROOT
BRANCH   1  20
ATOM     20  O   UNL     1       2.842   8.392  17.257  0.00  0.00    +0.000 OA
ATOM     21  H   UNL     1       2.237   7.738  16.861  0.00  0.00    +0.000 HD
ENDBRANCH   1  20
TORSDOF 1
ENDMDL
MODEL 6
REMARK VINA RESULT:      -7.4      5.122      7.099
REMARK  Name = 
REMARK  1 active torsions:
REMARK  status: ('A' for Active; 'I' for Inactive)
REMARK    1  A    between atoms: O_1  and  C_2
REMARK                            x       y       z     vdW  Elec       q    Type
REMARK                         _______ _______ _______ _____ _____    ______ ____
ROOT
ATOM      1  C   UNL     1       2.980   6.967  18.308  0.00  0.00    +0.000 A 
ATOM      2  N   UNL     1       3.546   5.860  17.910  0.00  0.00    +0.000 NA
ATOM      3  C   UNL     1       3.247   4.954  18.895  0.00  0.00    +0.000 A 
ATOM      4  C   UNL     1       3.588   3.594  18.978  0.00  0.00    +0.000 A 
ATOM      5  C   UNL     1       3.152   2.850  20.080  0.00  0.00    +0.000 A 
ATOM      6  C   UNL     1       2.396   3.448  21.088  0.00  0.00    +0.000 A 
ATOM      7  C   UNL     1       2.054   4.802  21.029  0.00  0.00    +0.000 A 
ATOM      8  C   UNL     1       2.493   5.537  19.915  0.00  0.00    +0.000 A 
ATOM      9  N   UNL     1       2.321   6.857  19.516  0.00  0.00    +0.000 N 
ATOM     10  C   UNL     1       1.622   7.871  20.180  0.00  0.00    +0.000 A 
ATOM     11  N   UNL     1       1.113   7.698  21.393  0.00  0.00    +0.000 NA
ATOM     12  C   UNL     1       0.515   8.892  21.691  0.00  0.00    +0.000 A 
ATOM     13  C   UNL     1      -0.173   9.317  22.836  0.00  0.00    +0.000 A 
ATOM     14  C   UNL     1      -0.703  10.614  22.837  0.00  0.00    +0.000 A 
ATOM     15  C   UNL     1      -0.546  11.450  21.728  0.00  0.00    +0.000 A 
ATOM     16  F   UNL     1      -1.079  12.679  21.766  0.00  0.00    +0.000 F 
ATOM     17  C   UNL     1       0.144  11.053  20.583  0.00  0.00    +0.000 A 
ATOM     18  C   UNL     1       0.659   9.765  20.627  0.00  0.00    +0.000 A 
ATOM     19  O   UNL     1       1.380   9.128  19.663  0.00  0.00    +0.000 OA
ENDROOT
BRANCH   1  20
ATOM     20  O   UNL     1       3.078   8.072  17.591  0.00  0.00    +0.000 OA
ATOM     21  H   UNL     1       3.211   8.747  18.281  0.00  0.00    +0.000 HD
ENDBRANCH   1  20
TORSDOF 1
ENDMDL
MODEL 7
REMARK VINA RESULT:      -7.3      3.909      4.947
REMARK  Name = 
REMARK  1 active torsions:
REMARK  status: ('A' for Active; 'I' for Inactive)
REMARK    1  A    between atoms: O_1  and  C_2
REMARK                            x       y       z     vdW  Elec       q    Type
REMARK                         _______ _______ _______ _____ _____    ______ ____
ROOT
ATOM      1  C   UNL     1       3.747   4.463  19.021  0.00  0.00    +0.000 A 
ATOM      2  N   UNL     1       4.516   3.575  18.452  0.00  0.00    +0.000 NA
ATOM      3  C   UNL     1       4.964   4.194  17.313  0.00  0.00    +0.000 A 
ATOM      4  C   UNL     1       5.838   3.707  16.329  0.00  0.00    +0.000 A 
ATOM      5  C   UNL     1       6.175   4.533  15.250  0.00  0.00    +0.000 A 
ATOM      6  C   UNL     1       5.646   5.819  15.146  0.00  0.00    +0.000 A 
ATOM      7  C   UNL     1       4.766   6.318  16.111  0.00  0.00    +0.000 A 
ATOM      8  C   UNL     1       4.440   5.481  17.191  0.00  0.00    +0.000 A 
ATOM      9  N   UNL     1       3.646   5.649  18.320  0.00  0.00    +0.000 N 
ATOM     10  C   UNL     1       2.904   6.775  18.690  0.00  0.00    +0.000 A 
ATOM     11  N   UNL     1       2.781   7.830  17.894  0.00  0.00    +0.000 NA
ATOM     12  C   UNL     1       2.000   8.705  18.598  0.00  0.00    +0.000 A 
ATOM     13  C   UNL     1       1.518   9.980  18.269  0.00  0.00    +0.000 A 
ATOM     14  C   UNL     1       0.746  10.654  19.224  0.00  0.00    +0.000 A 
ATOM     15  C   UNL     1       0.470  10.068  20.461  0.00  0.00    +0.000 A 
ATOM     16  F   UNL     1      -0.263  10.753  21.350  0.00  0.00    +0.000 F 
ATOM     17  C   UNL     1       0.929   8.797  20.807  0.00  0.00    +0.000 A 
ATOM     18  C   UNL     1       1.683   8.162  19.831  0.00  0.00    +0.000 A 
ATOM     19  O   UNL     1       2.241   6.921  19.892  0.00  0.00    +0.000 OA
ENDROOT
BRANCH   1  20
ATOM     20  O   UNL     1       3.128   4.193  20.156  0.00  0.00    +0.000 OA
ATOM     21  H   UNL     1       2.304   4.707  20.061  0.00  0.00    +0.000 HD
ENDBRANCH   1  20
TORSDOF 1
ENDMDL
MODEL 8
REMARK VINA RESULT:      -7.3      4.527      7.152
REMARK  Name = 
REMARK  1 active torsions:
REMARK  status: ('A' for Active; 'I' for Inactive)
REMARK    1  A    between atoms: O_1  and  C_2
REMARK                            x       y       z     vdW  Elec       q    Type
REMARK                         _______ _______ _______ _____ _____    ______ ____
ROOT
ATOM      1  C   UNL     1       1.814   6.893  20.594  0.00  0.00    +0.000 A 
ATOM      2  N   UNL     1       1.048   7.711  21.264  0.00  0.00    +0.000 NA
ATOM      3  C   UNL     1       0.999   8.841  20.489  0.00  0.00    +0.000 A 
ATOM      4  C   UNL     1       0.303  10.039  20.716  0.00  0.00    +0.000 A 
ATOM      5  C   UNL     1       0.385  11.063  19.766  0.00  0.00    +0.000 A 
ATOM      6  C   UNL     1       1.152  10.904  18.612  0.00  0.00    +0.000 A 
ATOM      7  C   UNL     1       1.860   9.723  18.372  0.00  0.00    +0.000 A 
ATOM      8  C   UNL     1       1.765   8.701  19.331  0.00  0.00    +0.000 A 
ATOM      9  N   UNL     1       2.292   7.416  19.409  0.00  0.00    +0.000 N 
ATOM     10  C   UNL     1       3.122   6.770  18.488  0.00  0.00    +0.000 A 
ATOM     11  N   UNL     1       3.619   7.396  17.428  0.00  0.00    +0.000 NA
ATOM     12  C   UNL     1       4.363   6.445  16.783  0.00  0.00    +0.000 A 
ATOM     13  C   UNL     1       5.134   6.517  15.615  0.00  0.00    +0.000 A 
ATOM     14  C   UNL     1       5.774   5.347  15.181  0.00  0.00    +0.000 A 
ATOM     15  C   UNL     1       5.642   4.155  15.896  0.00  0.00    +0.000 A 
ATOM     16  F   UNL     1       6.261   3.057  15.440  0.00  0.00    +0.000 F 
ATOM     17  C   UNL     1       4.889   4.063  17.067  0.00  0.00    +0.000 A 
ATOM     18  C   UNL     1       4.279   5.244  17.464  0.00  0.00    +0.000 A 
ATOM     19  O   UNL     1       3.502   5.445  18.565  0.00  0.00    +0.000 OA
ENDROOT
BRANCH   1  20
ATOM     20  O   UNL     1       2.092   5.690  21.064  0.00  0.00    +0.000 OA
ATOM     21  H   UNL     1       1.201   5.326  21.220  0.00  0.00    +0.000 HD
ENDBRANCH   1  20
TORSDOF 1
ENDMDL
MODEL 9
REMARK VINA RESULT:      -7.3      6.251      7.802
REMARK  Name = 
REMARK  1 active torsions:
REMARK  status: ('A' for Active; 'I' for Inactive)
REMARK    1  A    between atoms: O_1  and  C_2
REMARK                            x       y       z     vdW  Elec       q    Type
REMARK                         _______ _______ _______ _____ _____    ______ ____
ROOT
ATOM      1  C   UNL     1       2.252   8.834  18.007  0.00  0.00    +0.000 A 
ATOM      2  N   UNL     1       2.955   7.894  17.435  0.00  0.00    +0.000 NA
ATOM      3  C   UNL     1       2.914   6.851  18.325  0.00  0.00    +0.000 A 
ATOM      4  C   UNL     1       3.487   5.574  18.216  0.00  0.00    +0.000 A 
ATOM      5  C   UNL     1       3.295   4.653  19.252  0.00  0.00    +0.000 A 
ATOM      6  C   UNL     1       2.554   4.996  20.382  0.00  0.00    +0.000 A 
ATOM      7  C   UNL     1       1.984   6.266  20.513  0.00  0.00    +0.000 A 
ATOM      8  C   UNL     1       2.179   7.180  19.464  0.00  0.00    +0.000 A 
ATOM      9  N   UNL     1       1.746   8.482  19.242  0.00  0.00    +0.000 N 
ATOM     10  C   UNL     1       0.956   9.279  20.077  0.00  0.00    +0.000 A 
ATOM     11  N   UNL     1       0.607   8.891  21.298  0.00  0.00    +0.000 NA
ATOM     12  C   UNL     1      -0.151   9.922  21.784  0.00  0.00    +0.000 A 
ATOM     13  C   UNL     1      -0.783  10.094  23.023  0.00  0.00    +0.000 A 
ATOM     14  C   UNL     1      -1.522  11.268  23.222  0.00  0.00    +0.000 A 
ATOM     15  C   UNL     1      -1.621  12.229  22.213  0.00  0.00    +0.000 A 
ATOM     16  F   UNL     1      -2.348  13.331  22.441  0.00  0.00    +0.000 F 
ATOM     17  C   UNL     1      -0.992  12.084  20.977  0.00  0.00    +0.000 A 
ATOM     18  C   UNL     1      -0.265  10.912  20.824  0.00  0.00    +0.000 A 
ATOM     19  O   UNL     1       0.454  10.519  19.736  0.00  0.00    +0.000 OA
ENDROOT
BRANCH   1  20
ATOM     20  O   UNL     1       2.090  10.007  17.422  0.00  0.00    +0.000 OA
ATOM     21  H   UNL     1       2.862  10.042  16.828  0.00  0.00    +0.000 HD
ENDBRANCH   1  20
TORSDOF 1
ENDMDL
