MODEL 1
REMARK VINA RESULT:      -7.7      0.000      0.000
REMARK  Name = 
REMARK  8 active torsions:
REMARK  status: ('A' for Active; 'I' for Inactive)
REMARK    1  A    between atoms: C_1  and  O_2
REMARK    2  A    between atoms: O_2  and  C_3
REMARK    3  A    between atoms: C_3  and  C_5
REMARK    4  A    between atoms: C_10  and  C_12
REMARK    5  A    between atoms: C_15  and  O_16
REMARK    6  A    between atoms: O_16  and  C_17
REMARK    7  A    between atoms: N_20  and  C_21
REMARK    8  A    between atoms: C_21  and  C_22
REMARK                            x       y       z     vdW  Elec       q    Type
REMARK                         _______ _______ _______ _____ _____    ______ ____
ROOT
ATOM      1  C   UNL     1       2.624   7.403  18.574  0.00  0.00    +0.000 A 
ATOM      2  C   UNL     1       2.174   7.408  19.896  0.00  0.00    +0.000 A 
ATOM      3  C   UNL     1       1.290   8.389  20.349  0.00  0.00    +0.000 A 
ATOM      4  C   UNL     1       0.974   9.480  19.568  0.00  0.00    +0.000 A 
ATOM      5  C   UNL     1       1.387   9.475  18.230  0.00  0.00    +0.000 A 
ATOM      6  C   UNL     1       2.202   8.439  17.729  0.00  0.00    +0.000 A 
ENDROOT
BRANCH   1  12
ATOM      7  C   UNL     1       4.371   4.067  17.702  0.00  0.00    +0.000 C 
ATOM      8  C   UNL     1       3.577   2.839  17.225  0.00  0.00    +0.000 C 
ATOM      9  C   UNL     1       2.228   2.968  17.894  0.00  0.00    +0.000 C 
ATOM     10  C   UNL     1       2.007   4.466  18.007  0.00  0.00    +0.000 C 
ATOM     11  N   UNL     1       3.319   5.087  17.880  0.00  0.00    +0.000 N 
ATOM     12  C   UNL     1       3.653   6.419  18.116  0.00  0.00    +0.000 C 
ATOM     13  O   UNL     1       4.802   6.835  17.972  0.00  0.00    +0.000 OA
BRANCH   7  14
ATOM     14  C   UNL     1       5.496   4.222  16.663  0.00  0.00    +0.000 C 
ATOM     15  O   UNL     1       6.680   4.266  16.970  0.00  0.00    +0.000 OA
BRANCH  14  17
ATOM     16  C   UNL     1       5.844   4.692  14.399  0.00  0.00    +0.000 C 
ATOM     17  O   UNL     1       5.022   4.086  15.393  0.00  0.00    +0.000 OA
ENDBRANCH  14  17
ENDBRANCH   7  14
ENDBRANCH   1  12
BRANCH   4  18
ATOM     18  O   UNL     1       0.210  10.513  20.001  0.00  0.00    +0.000 OA
BRANCH  18  19
ATOM     19  C   UNL     1       0.353  11.152  21.294  0.00  0.00    +0.000 C 
ATOM     20  C   UNL     1      -0.097  10.496  22.609  0.00  0.00    +0.000 C 
ATOM     21  C   UNL     1      -1.488  10.895  23.139  0.00  0.00    +0.000 C 
ATOM     22  N   UNL     1      -1.868  12.304  22.949  0.00  0.00    +0.000 NA
ATOM     23  C   UNL     1      -1.539  12.812  21.607  0.00  0.00    +0.000 C 
ATOM     24  C   UNL     1      -0.078  12.614  21.228  0.00  0.00    +0.000 C 
BRANCH  22  25
ATOM     25  C   UNL     1      -3.334  12.484  23.164  0.00  0.00    +0.000 C 
BRANCH  25  26
ATOM     26  C   UNL     1      -3.791  13.815  23.742  0.00  0.00    +0.000 A 
ATOM     27  C   UNL     1      -2.986  14.519  24.635  0.00  0.00    +0.000 A 
ATOM     28  C   UNL     1      -3.395  15.782  25.063  0.00  0.00    +0.000 A 
ATOM     29  C   UNL     1      -4.588  16.312  24.586  0.00  0.00    +0.000 A 
ATOM     30  C   UNL     1      -5.328  15.553  23.698  0.00  0.00    +0.000 A 
ATOM     31  N   UNL     1      -4.961  14.323  23.268  0.00  0.00    +0.000 NA
ENDBRANCH  25  26
ENDBRANCH  22  25
ENDBRANCH  18  19
ENDBRANCH   4  18
TORSDOF 7
ENDMDL
MODEL 2
REMARK VINA RESULT:      -7.6      3.209     11.401
REMARK  Name = 
REMARK  8 active torsions:
REMARK  status: ('A' for Active; 'I' for Inactive)
REMARK    1  A    between atoms: C_1  and  O_2
REMARK    2  A    between atoms: O_2  and  C_3
REMARK    3  A    between atoms: C_3  and  C_5
REMARK    4  A    between atoms: C_10  and  C_12
REMARK    5  A    between atoms: C_15  and  O_16
REMARK    6  A    between atoms: O_16  and  C_17
REMARK    7  A    between atoms: N_20  and  C_21
REMARK    8  A    between atoms: C_21  and  C_22
REMARK                            x       y       z     vdW  Elec       q    Type
REMARK                         _______ _______ _______ _____ _____    ______ ____
ROOT
ATOM      1  C   UNL     1       1.562   8.262  19.662  0.00  0.00    +0.000 A 
ATOM      2  C   UNL     1       2.127   7.749  18.492  0.00  0.00    +0.000 A 
ATOM      3  C   UNL     1       2.485   6.403  18.399  0.00  0.00    +0.000 A 
ATOM      4  C   UNL     1       2.464   5.581  19.504  0.00  0.00    +0.000 A 
ATOM      5  C   UNL     1       1.870   6.067  20.676  0.00  0.00    +0.000 A 
ATOM      6  C   UNL     1       1.412   7.399  20.755  0.00  0.00    +0.000 A 
ENDROOT
BRANCH   1  12
ATOM      7  C   UNL     1       0.037  11.598  20.882  0.00  0.00    +0.000 C 
ATOM      8  C   UNL     1      -0.454  11.782  22.328  0.00  0.00    +0.000 C 
ATOM      9  C   UNL     1      -0.908  10.406  22.759  0.00  0.00    +0.000 C 
ATOM     10  C   UNL     1       0.002   9.455  22.000  0.00  0.00    +0.000 C 
ATOM     11  N   UNL     1       0.553  10.215  20.885  0.00  0.00    +0.000 N 
ATOM     12  C   UNL     1       1.277   9.723  19.801  0.00  0.00    +0.000 C 
ATOM     13  O   UNL     1       1.699  10.464  18.913  0.00  0.00    +0.000 OA
BRANCH   7  14
ATOM     14  C   UNL     1       0.949  12.812  20.629  0.00  0.00    +0.000 C 
ATOM     15  O   UNL     1       1.979  13.010  21.259  0.00  0.00    +0.000 OA
BRANCH  14  17
ATOM     16  C   UNL     1      -0.694  13.099  18.990  0.00  0.00    +0.000 C 
ATOM     17  O   UNL     1       0.579  13.484  19.503  0.00  0.00    +0.000 OA
ENDBRANCH  14  17
ENDBRANCH   7  14
ENDBRANCH   1  12
BRANCH   4  18
ATOM     18  O   UNL     1       2.907   4.300  19.492  0.00  0.00    +0.000 OA
BRANCH  18  19
ATOM     19  C   UNL     1       4.286   3.912  19.277  0.00  0.00    +0.000 C 
ATOM     20  C   UNL     1       5.470   4.869  19.488  0.00  0.00    +0.000 C 
ATOM     21  C   UNL     1       6.013   5.585  18.236  0.00  0.00    +0.000 C 
ATOM     22  N   UNL     1       6.030   4.788  16.999  0.00  0.00    +0.000 NA
ATOM     23  C   UNL     1       4.794   4.017  16.794  0.00  0.00    +0.000 C 
ATOM     24  C   UNL     1       4.433   3.128  17.977  0.00  0.00    +0.000 C 
BRANCH  22  25
ATOM     25  C   UNL     1       6.226   5.671  15.811  0.00  0.00    +0.000 C 
BRANCH  25  26
ATOM     26  C   UNL     1       6.557   4.992  14.491  0.00  0.00    +0.000 A 
ATOM     27  C   UNL     1       5.736   3.991  13.976  0.00  0.00    +0.000 A 
ATOM     28  C   UNL     1       6.019   3.466  12.716  0.00  0.00    +0.000 A 
ATOM     29  C   UNL     1       7.104   3.955  11.999  0.00  0.00    +0.000 A 
ATOM     30  C   UNL     1       7.868   4.953  12.577  0.00  0.00    +0.000 A 
ATOM     31  N   UNL     1       7.623   5.479  13.799  0.00  0.00    +0.000 NA
ENDBRANCH  25  26
ENDBRANCH  22  25
ENDBRANCH  18  19
ENDBRANCH   4  18
TORSDOF 7
ENDMDL
MODEL 3
REMARK VINA RESULT:      -7.5      3.265      3.797
REMARK  Name = 
REMARK  8 active torsions:
REMARK  status: ('A' for Active; 'I' for Inactive)
REMARK    1  A    between atoms: C_1  and  O_2
REMARK    2  A    between atoms: O_2  and  C_3
REMARK    3  A    between atoms: C_3  and  C_5
REMARK    4  A    between atoms: C_10  and  C_12
REMARK    5  A    between atoms: C_15  and  O_16
REMARK    6  A    between atoms: O_16  and  C_17
REMARK    7  A    between atoms: N_20  and  C_21
REMARK    8  A    between atoms: C_21  and  C_22
REMARK                            x       y       z     vdW  Elec       q    Type
REMARK                         _______ _______ _______ _____ _____    ______ ____
ROOT
ATOM      1  C   UNL     1       3.070   7.582  18.305  0.00  0.00    +0.000 A 
ATOM      2  C   UNL     1       2.729   8.662  17.489  0.00  0.00    +0.000 A 
ATOM      3  C   UNL     1       1.718   9.550  17.860  0.00  0.00    +0.000 A 
ATOM      4  C   UNL     1       0.905   9.294  18.942  0.00  0.00    +0.000 A 
ATOM      5  C   UNL     1       1.252   8.235  19.791  0.00  0.00    +0.000 A 
ATOM      6  C   UNL     1       2.334   7.386  19.482  0.00  0.00    +0.000 A 
ENDROOT
BRANCH   1  12
ATOM      7  C   UNL     1       4.755   4.195  17.506  0.00  0.00    +0.000 C 
ATOM      8  C   UNL     1       3.936   2.964  17.083  0.00  0.00    +0.000 C 
ATOM      9  C   UNL     1       2.602   3.133  17.774  0.00  0.00    +0.000 C 
ATOM     10  C   UNL     1       2.402   4.637  17.844  0.00  0.00    +0.000 C 
ATOM     11  N   UNL     1       3.720   5.236  17.672  0.00  0.00    +0.000 N 
ATOM     12  C   UNL     1       4.077   6.569  17.860  0.00  0.00    +0.000 C 
ATOM     13  O   UNL     1       5.228   6.965  17.681  0.00  0.00    +0.000 OA
BRANCH   7  14
ATOM     14  C   UNL     1       5.862   4.303  16.442  0.00  0.00    +0.000 C 
ATOM     15  O   UNL     1       7.050   4.186  16.708  0.00  0.00    +0.000 OA
BRANCH  14  17
ATOM     16  C   UNL     1       6.269   3.958  14.165  0.00  0.00    +0.000 C 
ATOM     17  O   UNL     1       5.341   4.322  15.184  0.00  0.00    +0.000 OA
ENDBRANCH  14  17
ENDBRANCH   7  14
ENDBRANCH   1  12
BRANCH   4  18
ATOM     18  O   UNL     1      -0.159  10.065  19.278  0.00  0.00    +0.000 OA
BRANCH  18  19
ATOM     19  C   UNL     1      -0.866  10.930  18.356  0.00  0.00    +0.000 C 
ATOM     20  C   UNL     1      -1.698  12.139  18.810  0.00  0.00    +0.000 C 
ATOM     21  C   UNL     1      -3.216  11.918  18.963  0.00  0.00    +0.000 C 
ATOM     22  N   UNL     1      -3.839  11.035  17.964  0.00  0.00    +0.000 NA
ATOM     23  C   UNL     1      -3.051   9.821  17.697  0.00  0.00    +0.000 C 
ATOM     24  C   UNL     1      -1.609  10.111  17.304  0.00  0.00    +0.000 C 
BRANCH  22  25
ATOM     25  C   UNL     1      -5.199  10.613  18.413  0.00  0.00    +0.000 C 
BRANCH  25  26
ATOM     26  C   UNL     1      -6.222  11.713  18.651  0.00  0.00    +0.000 A 
ATOM     27  C   UNL     1      -6.663  12.012  19.938  0.00  0.00    +0.000 A 
ATOM     28  C   UNL     1      -7.524  13.094  20.124  0.00  0.00    +0.000 A 
ATOM     29  C   UNL     1      -7.915  13.852  19.027  0.00  0.00    +0.000 A 
ATOM     30  C   UNL     1      -7.430  13.494  17.782  0.00  0.00    +0.000 A 
ATOM     31  N   UNL     1      -6.598  12.448  17.569  0.00  0.00    +0.000 NA
ENDBRANCH  25  26
ENDBRANCH  22  25
ENDBRANCH  18  19
ENDBRANCH   4  18
TORSDOF 7
ENDMDL
MODEL 4
REMARK VINA RESULT:      -7.5      1.843      2.519
REMARK  Name = 
REMARK  8 active torsions:
REMARK  status: ('A' for Active; 'I' for Inactive)
REMARK    1  A    between atoms: C_1  and  O_2
REMARK    2  A    between atoms: O_2  and  C_3
REMARK    3  A    between atoms: C_3  and  C_5
REMARK    4  A    between atoms: C_10  and  C_12
REMARK    5  A    between atoms: C_15  and  O_16
REMARK    6  A    between atoms: O_16  and  C_17
REMARK    7  A    between atoms: N_20  and  C_21
REMARK    8  A    between atoms: C_21  and  C_22
REMARK                            x       y       z     vdW  Elec       q    Type
REMARK                         _______ _______ _______ _____ _____    ______ ____
ROOT
ATOM      1  C   UNL     1       3.524   6.893  18.002  0.00  0.00    +0.000 A 
ATOM      2  C   UNL     1       3.105   6.206  19.144  0.00  0.00    +0.000 A 
ATOM      3  C   UNL     1       2.096   6.721  19.961  0.00  0.00    +0.000 A 
ATOM      4  C   UNL     1       1.609   7.996  19.774  0.00  0.00    +0.000 A 
ATOM      5  C   UNL     1       1.991   8.685  18.616  0.00  0.00    +0.000 A 
ATOM      6  C   UNL     1       2.938   8.136  17.728  0.00  0.00    +0.000 A 
ENDROOT
BRANCH   1  12
ATOM      7  C   UNL     1       7.035   5.606  17.025  0.00  0.00    +0.000 C 
ATOM      8  C   UNL     1       7.886   4.764  17.991  0.00  0.00    +0.000 C 
ATOM      9  C   UNL     1       7.482   5.234  19.370  0.00  0.00    +0.000 C 
ATOM     10  C   UNL     1       6.023   5.628  19.220  0.00  0.00    +0.000 C 
ATOM     11  N   UNL     1       5.797   5.835  17.795  0.00  0.00    +0.000 N 
ATOM     12  C   UNL     1       4.676   6.397  17.187  0.00  0.00    +0.000 C 
ATOM     13  O   UNL     1       4.593   6.521  15.966  0.00  0.00    +0.000 OA
BRANCH   7  14
ATOM     14  C   UNL     1       7.046   4.807  15.709  0.00  0.00    +0.000 C 
ATOM     15  O   UNL     1       6.462   3.740  15.577  0.00  0.00    +0.000 OA
BRANCH  14  17
ATOM     16  C   UNL     1       7.562   4.873  13.429  0.00  0.00    +0.000 C 
ATOM     17  O   UNL     1       7.589   5.533  14.693  0.00  0.00    +0.000 OA
ENDBRANCH  14  17
ENDBRANCH   7  14
ENDBRANCH   1  12
BRANCH   4  18
ATOM     18  O   UNL     1       0.711   8.582  20.604  0.00  0.00    +0.000 OA
BRANCH  18  19
ATOM     19  C   UNL     1       1.059   9.514  21.658  0.00  0.00    +0.000 C 
ATOM     20  C   UNL     1       0.459   9.445  23.071  0.00  0.00    +0.000 C 
ATOM     21  C   UNL     1      -0.745  10.364  23.358  0.00  0.00    +0.000 C 
ATOM     22  N   UNL     1      -0.698  11.695  22.733  0.00  0.00    +0.000 NA
ATOM     23  C   UNL     1      -0.259  11.657  21.329  0.00  0.00    +0.000 C 
ATOM     24  C   UNL     1       1.074  10.947  21.133  0.00  0.00    +0.000 C 
BRANCH  22  25
ATOM     25  C   UNL     1      -2.044  12.342  22.778  0.00  0.00    +0.000 C 
BRANCH  25  26
ATOM     26  C   UNL     1      -2.175  13.612  23.604  0.00  0.00    +0.000 A 
ATOM     27  C   UNL     1      -3.427  14.094  23.980  0.00  0.00    +0.000 A 
ATOM     28  C   UNL     1      -3.500  15.203  24.823  0.00  0.00    +0.000 A 
ATOM     29  C   UNL     1      -2.328  15.797  25.274  0.00  0.00    +0.000 A 
ATOM     30  C   UNL     1      -1.124  15.256  24.860  0.00  0.00    +0.000 A 
ATOM     31  N   UNL     1      -1.020  14.185  24.040  0.00  0.00    +0.000 NA
ENDBRANCH  25  26
ENDBRANCH  22  25
ENDBRANCH  18  19
ENDBRANCH   4  18
TORSDOF 7
ENDMDL
MODEL 5
REMARK VINA RESULT:      -7.5      0.975      1.401
REMARK  Name = 
REMARK  8 active torsions:
REMARK  status: ('A' for Active; 'I' for Inactive)
REMARK    1  A    between atoms: C_1  and  O_2
REMARK    2  A    between atoms: O_2  and  C_3
REMARK    3  A    between atoms: C_3  and  C_5
REMARK    4  A    between atoms: C_10  and  C_12
REMARK    5  A    between atoms: C_15  and  O_16
REMARK    6  A    between atoms: O_16  and  C_17
REMARK    7  A    between atoms: N_20  and  C_21
REMARK    8  A    between atoms: C_21  and  C_22
REMARK                            x       y       z     vdW  Elec       q    Type
REMARK                         _______ _______ _______ _____ _____    ______ ____
ROOT
ATOM      1  C   UNL     1       2.869   7.492  18.300  0.00  0.00    +0.000 A 
ATOM      2  C   UNL     1       2.489   7.288  19.629  0.00  0.00    +0.000 A 
ATOM      3  C   UNL     1       1.509   8.083  20.225  0.00  0.00    +0.000 A 
ATOM      4  C   UNL     1       1.015   9.202  19.590  0.00  0.00    +0.000 A 
ATOM      5  C   UNL     1       1.358   9.403  18.246  0.00  0.00    +0.000 A 
ATOM      6  C   UNL     1       2.274   8.549  17.599  0.00  0.00    +0.000 A 
ENDROOT
BRANCH   1  12
ATOM      7  C   UNL     1       5.061   4.533  17.125  0.00  0.00    +0.000 C 
ATOM      8  C   UNL     1       4.446   3.187  16.707  0.00  0.00    +0.000 C 
ATOM      9  C   UNL     1       3.186   3.064  17.534  0.00  0.00    +0.000 C 
ATOM     10  C   UNL     1       2.718   4.498  17.719  0.00  0.00    +0.000 C 
ATOM     11  N   UNL     1       3.874   5.346  17.457  0.00  0.00    +0.000 N 
ATOM     12  C   UNL     1       3.993   6.714  17.694  0.00  0.00    +0.000 C 
ATOM     13  O   UNL     1       5.024   7.331  17.429  0.00  0.00    +0.000 OA
BRANCH   7  14
ATOM     14  C   UNL     1       6.007   4.898  15.967  0.00  0.00    +0.000 C 
ATOM     15  O   UNL     1       5.612   5.094  14.826  0.00  0.00    +0.000 OA
BRANCH  14  17
ATOM     16  C   UNL     1       7.532   4.675  17.726  0.00  0.00    +0.000 C 
ATOM     17  O   UNL     1       7.260   5.179  16.420  0.00  0.00    +0.000 OA
ENDBRANCH  14  17
ENDBRANCH   7  14
ENDBRANCH   1  12
BRANCH   4  18
ATOM     18  O   UNL     1       0.146  10.068  20.168  0.00  0.00    +0.000 OA
BRANCH  18  19
ATOM     19  C   UNL     1       0.384  10.751  21.423  0.00  0.00    +0.000 C 
ATOM     20  C   UNL     1      -0.207  10.279  22.761  0.00  0.00    +0.000 C 
ATOM     21  C   UNL     1      -1.507  10.966  23.224  0.00  0.00    +0.000 C 
ATOM     22  N   UNL     1      -1.608  12.406  22.937  0.00  0.00    +0.000 NA
ATOM     23  C   UNL     1      -1.164  12.754  21.578  0.00  0.00    +0.000 C 
ATOM     24  C   UNL     1       0.240  12.261  21.256  0.00  0.00    +0.000 C 
BRANCH  22  25
ATOM     25  C   UNL     1      -3.018  12.873  23.096  0.00  0.00    +0.000 C 
BRANCH  25  26
ATOM     26  C   UNL     1      -3.224  14.307  23.559  0.00  0.00    +0.000 A 
ATOM     27  C   UNL     1      -3.802  15.254  22.717  0.00  0.00    +0.000 A 
ATOM     28  C   UNL     1      -4.067  16.530  23.214  0.00  0.00    +0.000 A 
ATOM     29  C   UNL     1      -3.757  16.826  24.536  0.00  0.00    +0.000 A 
ATOM     30  C   UNL     1      -3.189  15.830  25.310  0.00  0.00    +0.000 A 
ATOM     31  N   UNL     1      -2.916  14.585  24.855  0.00  0.00    +0.000 NA
ENDBRANCH  25  26
ENDBRANCH  22  25
ENDBRANCH  18  19
ENDBRANCH   4  18
TORSDOF 7
ENDMDL
MODEL 6
REMARK VINA RESULT:      -7.5      1.449      1.987
REMARK  Name = 
REMARK  8 active torsions:
REMARK  status: ('A' for Active; 'I' for Inactive)
REMARK    1  A    between atoms: C_1  and  O_2
REMARK    2  A    between atoms: O_2  and  C_3
REMARK    3  A    between atoms: C_3  and  C_5
REMARK    4  A    between atoms: C_10  and  C_12
REMARK    5  A    between atoms: C_15  and  O_16
REMARK    6  A    between atoms: O_16  and  C_17
REMARK    7  A    between atoms: N_20  and  C_21
REMARK    8  A    between atoms: C_21  and  C_22
REMARK                            x       y       z     vdW  Elec       q    Type
REMARK                         _______ _______ _______ _____ _____    ______ ____
ROOT
ATOM      1  C   UNL     1       2.582   7.370  18.679  0.00  0.00    +0.000 A 
ATOM      2  C   UNL     1       2.132   7.397  20.001  0.00  0.00    +0.000 A 
ATOM      3  C   UNL     1       1.239   8.378  20.435  0.00  0.00    +0.000 A 
ATOM      4  C   UNL     1       0.914   9.451  19.634  0.00  0.00    +0.000 A 
ATOM      5  C   UNL     1       1.327   9.424  18.296  0.00  0.00    +0.000 A 
ATOM      6  C   UNL     1       2.151   8.385  17.815  0.00  0.00    +0.000 A 
ENDROOT
BRANCH   1  12
ATOM      7  C   UNL     1       4.342   4.034  17.831  0.00  0.00    +0.000 C 
ATOM      8  C   UNL     1       3.557   2.810  17.330  0.00  0.00    +0.000 C 
ATOM      9  C   UNL     1       2.194   2.938  17.970  0.00  0.00    +0.000 C 
ATOM     10  C   UNL     1       1.972   4.437  18.085  0.00  0.00    +0.000 C 
ATOM     11  N   UNL     1       3.288   5.056  17.990  0.00  0.00    +0.000 N 
ATOM     12  C   UNL     1       3.619   6.386  18.240  0.00  0.00    +0.000 C 
ATOM     13  O   UNL     1       4.772   6.801  18.124  0.00  0.00    +0.000 OA
BRANCH   7  14
ATOM     14  C   UNL     1       5.491   4.193  16.819  0.00  0.00    +0.000 C 
ATOM     15  O   UNL     1       6.663   4.289  17.156  0.00  0.00    +0.000 OA
BRANCH  14  17
ATOM     16  C   UNL     1       5.646   4.875  14.587  0.00  0.00    +0.000 C 
ATOM     17  O   UNL     1       5.058   3.995  15.542  0.00  0.00    +0.000 OA
ENDBRANCH  14  17
ENDBRANCH   7  14
ENDBRANCH   1  12
BRANCH   4  18
ATOM     18  O   UNL     1       0.141  10.486  20.047  0.00  0.00    +0.000 OA
BRANCH  18  19
ATOM     19  C   UNL     1       0.287  11.158  21.323  0.00  0.00    +0.000 C 
ATOM     20  C   UNL     1      -0.647  10.905  22.516  0.00  0.00    +0.000 C 
ATOM     21  C   UNL     1      -1.811  11.898  22.707  0.00  0.00    +0.000 C 
ATOM     22  N   UNL     1      -1.509  13.305  22.400  0.00  0.00    +0.000 NA
ATOM     23  C   UNL     1      -0.740  13.471  21.157  0.00  0.00    +0.000 C 
ATOM     24  C   UNL     1       0.541  12.649  21.125  0.00  0.00    +0.000 C 
BRANCH  22  25
ATOM     25  C   UNL     1      -2.770  14.094  22.272  0.00  0.00    +0.000 C 
BRANCH  25  26
ATOM     26  C   UNL     1      -3.989  13.369  21.725  0.00  0.00    +0.000 A 
ATOM     27  C   UNL     1      -5.116  13.164  22.519  0.00  0.00    +0.000 A 
ATOM     28  C   UNL     1      -6.250  12.586  21.949  0.00  0.00    +0.000 A 
ATOM     29  C   UNL     1      -6.235  12.233  20.605  0.00  0.00    +0.000 A 
ATOM     30  C   UNL     1      -5.080  12.473  19.882  0.00  0.00    +0.000 A 
ATOM     31  N   UNL     1      -3.963  13.028  20.407  0.00  0.00    +0.000 NA
ENDBRANCH  25  26
ENDBRANCH  22  25
ENDBRANCH  18  19
ENDBRANCH   4  18
TORSDOF 7
ENDMDL
MODEL 7
REMARK VINA RESULT:      -7.4      3.012     11.534
REMARK  Name = 
REMARK  8 active torsions:
REMARK  status: ('A' for Active; 'I' for Inactive)
REMARK    1  A    between atoms: C_1  and  O_2
REMARK    2  A    between atoms: O_2  and  C_3
REMARK    3  A    between atoms: C_3  and  C_5
REMARK    4  A    between atoms: C_10  and  C_12
REMARK    5  A    between atoms: C_15  and  O_16
REMARK    6  A    between atoms: O_16  and  C_17
REMARK    7  A    between atoms: N_20  and  C_21
REMARK    8  A    between atoms: C_21  and  C_22
REMARK                            x       y       z     vdW  Elec       q    Type
REMARK                         _______ _______ _______ _____ _____    ______ ____
ROOT
ATOM      1  C   UNL     1       1.312   8.572  20.120  0.00  0.00    +0.000 A 
ATOM      2  C   UNL     1       1.874   8.302  18.871  0.00  0.00    +0.000 A 
ATOM      3  C   UNL     1       2.214   6.998  18.504  0.00  0.00    +0.000 A 
ATOM      4  C   UNL     1       2.178   5.968  19.417  0.00  0.00    +0.000 A 
ATOM      5  C   UNL     1       1.585   6.212  20.663  0.00  0.00    +0.000 A 
ATOM      6  C   UNL     1       1.146   7.505  21.014  0.00  0.00    +0.000 A 
ENDROOT
BRANCH   1  12
ATOM      7  C   UNL     1       0.075  12.234  20.127  0.00  0.00    +0.000 C 
ATOM      8  C   UNL     1      -1.203  12.657  19.384  0.00  0.00    +0.000 C 
ATOM      9  C   UNL     1      -1.302  11.706  18.213  0.00  0.00    +0.000 C 
ATOM     10  C   UNL     1      -0.681  10.417  18.724  0.00  0.00    +0.000 C 
ATOM     11  N   UNL     1       0.132  10.780  19.877  0.00  0.00    +0.000 N 
ATOM     12  C   UNL     1       1.047   9.978  20.556  0.00  0.00    +0.000 C 
ATOM     13  O   UNL     1       1.680  10.393  21.526  0.00  0.00    +0.000 OA
BRANCH   7  14
ATOM     14  C   UNL     1      -0.094  12.817  21.542  0.00  0.00    +0.000 C 
ATOM     15  O   UNL     1       0.744  13.537  22.066  0.00  0.00    +0.000 OA
BRANCH  14  17
ATOM     16  C   UNL     1      -1.438  11.583  23.004  0.00  0.00    +0.000 C 
ATOM     17  O   UNL     1      -1.354  12.608  22.017  0.00  0.00    +0.000 OA
ENDBRANCH  14  17
ENDBRANCH   7  14
ENDBRANCH   1  12
BRANCH   4  18
ATOM     18  O   UNL     1       2.602   4.710  19.143  0.00  0.00    +0.000 OA
BRANCH  18  19
ATOM     19  C   UNL     1       3.992   4.301  19.122  0.00  0.00    +0.000 C 
ATOM     20  C   UNL     1       5.154   5.263  19.417  0.00  0.00    +0.000 C 
ATOM     21  C   UNL     1       5.855   5.897  18.200  0.00  0.00    +0.000 C 
ATOM     22  N   UNL     1       6.011   5.025  17.025  0.00  0.00    +0.000 NA
ATOM     23  C   UNL     1       4.799   4.249  16.717  0.00  0.00    +0.000 C 
ATOM     24  C   UNL     1       4.286   3.437  17.899  0.00  0.00    +0.000 C 
BRANCH  22  25
ATOM     25  C   UNL     1       6.362   5.832  15.818  0.00  0.00    +0.000 C 
BRANCH  25  26
ATOM     26  C   UNL     1       6.608   5.071  14.524  0.00  0.00    +0.000 A 
ATOM     27  C   UNL     1       5.719   4.089  14.092  0.00  0.00    +0.000 A 
ATOM     28  C   UNL     1       5.927   3.487  12.851  0.00  0.00    +0.000 A 
ATOM     29  C   UNL     1       7.007   3.883  12.072  0.00  0.00    +0.000 A 
ATOM     30  C   UNL     1       7.842   4.867  12.569  0.00  0.00    +0.000 A 
ATOM     31  N   UNL     1       7.670   5.466  13.770  0.00  0.00    +0.000 NA
ENDBRANCH  25  26
ENDBRANCH  22  25
ENDBRANCH  18  19
ENDBRANCH   4  18
TORSDOF 7
ENDMDL
MODEL 8
REMARK VINA RESULT:      -7.4      1.425      2.134
REMARK  Name = 
REMARK  8 active torsions:
REMARK  status: ('A' for Active; 'I' for Inactive)
REMARK    1  A    between atoms: C_1  and  O_2
REMARK    2  A    between atoms: O_2  and  C_3
REMARK    3  A    between atoms: C_3  and  C_5
REMARK    4  A    between atoms: C_10  and  C_12
REMARK    5  A    between atoms: C_15  and  O_16
REMARK    6  A    between atoms: O_16  and  C_17
REMARK    7  A    between atoms: N_20  and  C_21
REMARK    8  A    between atoms: C_21  and  C_22
REMARK                            x       y       z     vdW  Elec       q    Type
REMARK                         _______ _______ _______ _____ _____    ______ ____
ROOT
ATOM      1  C   UNL     1       2.694   7.540  18.366  0.00  0.00    +0.000 A 
ATOM      2  C   UNL     1       2.362   7.383  19.714  0.00  0.00    +0.000 A 
ATOM      3  C   UNL     1       1.398   8.195  20.314  0.00  0.00    +0.000 A 
ATOM      4  C   UNL     1       0.876   9.288  19.657  0.00  0.00    +0.000 A 
ATOM      5  C   UNL     1       1.171   9.442  18.296  0.00  0.00    +0.000 A 
ATOM      6  C   UNL     1       2.069   8.569  17.648  0.00  0.00    +0.000 A 
ENDROOT
BRANCH   1  12
ATOM      7  C   UNL     1       4.838   4.549  17.185  0.00  0.00    +0.000 C 
ATOM      8  C   UNL     1       4.203   3.205  16.788  0.00  0.00    +0.000 C 
ATOM      9  C   UNL     1       2.956   3.103  17.636  0.00  0.00    +0.000 C 
ATOM     10  C   UNL     1       2.505   4.542  17.815  0.00  0.00    +0.000 C 
ATOM     11  N   UNL     1       3.665   5.376  17.528  0.00  0.00    +0.000 N 
ATOM     12  C   UNL     1       3.801   6.745  17.750  0.00  0.00    +0.000 C 
ATOM     13  O   UNL     1       4.833   7.350  17.463  0.00  0.00    +0.000 OA
BRANCH   7  14
ATOM     14  C   UNL     1       5.769   4.894  16.009  0.00  0.00    +0.000 C 
ATOM     15  O   UNL     1       5.358   5.094  14.874  0.00  0.00    +0.000 OA
BRANCH  14  17
ATOM     16  C   UNL     1       7.310   4.680  17.754  0.00  0.00    +0.000 C 
ATOM     17  O   UNL     1       7.036   5.155  16.439  0.00  0.00    +0.000 OA
ENDBRANCH  14  17
ENDBRANCH   7  14
ENDBRANCH   1  12
BRANCH   4  18
ATOM     18  O   UNL     1       0.023  10.170  20.233  0.00  0.00    +0.000 OA
BRANCH  18  19
ATOM     19  C   UNL     1       0.278  10.860  21.481  0.00  0.00    +0.000 C 
ATOM     20  C   UNL     1      -0.659  10.771  22.696  0.00  0.00    +0.000 C 
ATOM     21  C   UNL     1      -1.680  11.913  22.867  0.00  0.00    +0.000 C 
ATOM     22  N   UNL     1      -1.204  13.258  22.507  0.00  0.00    +0.000 NA
ATOM     23  C   UNL     1      -0.442  13.281  21.248  0.00  0.00    +0.000 C 
ATOM     24  C   UNL     1       0.721  12.298  21.227  0.00  0.00    +0.000 C 
BRANCH  22  25
ATOM     25  C   UNL     1      -2.353  14.201  22.368  0.00  0.00    +0.000 C 
BRANCH  25  26
ATOM     26  C   UNL     1      -3.667  13.622  21.867  0.00  0.00    +0.000 A 
ATOM     27  C   UNL     1      -3.804  13.196  20.547  0.00  0.00    +0.000 A 
ATOM     28  C   UNL     1      -4.991  12.578  20.155  0.00  0.00    +0.000 A 
ATOM     29  C   UNL     1      -6.005  12.394  21.087  0.00  0.00    +0.000 A 
ATOM     30  C   UNL     1      -5.791  12.839  22.379  0.00  0.00    +0.000 A 
ATOM     31  N   UNL     1      -4.654  13.447  22.789  0.00  0.00    +0.000 NA
ENDBRANCH  25  26
ENDBRANCH  22  25
ENDBRANCH  18  19
ENDBRANCH   4  18
TORSDOF 7
ENDMDL
MODEL 9
REMARK VINA RESULT:      -7.4      3.334     10.903
REMARK  Name = 
REMARK  8 active torsions:
REMARK  status: ('A' for Active; 'I' for Inactive)
REMARK    1  A    between atoms: C_1  and  O_2
REMARK    2  A    between atoms: O_2  and  C_3
REMARK    3  A    between atoms: C_3  and  C_5
REMARK    4  A    between atoms: C_10  and  C_12
REMARK    5  A    between atoms: C_15  and  O_16
REMARK    6  A    between atoms: O_16  and  C_17
REMARK    7  A    between atoms: N_20  and  C_21
REMARK    8  A    between atoms: C_21  and  C_22
REMARK                            x       y       z     vdW  Elec       q    Type
REMARK                         _______ _______ _______ _____ _____    ______ ____
ROOT
ATOM      1  C   UNL     1      -0.389  10.149  20.186  0.00  0.00    +0.000 A 
ATOM      2  C   UNL     1      -0.349   9.211  21.219  0.00  0.00    +0.000 A 
ATOM      3  C   UNL     1       0.655   8.242  21.270  0.00  0.00    +0.000 A 
ATOM      4  C   UNL     1       1.528   8.063  20.219  0.00  0.00    +0.000 A 
ATOM      5  C   UNL     1       1.525   9.015  19.191  0.00  0.00    +0.000 A 
ATOM      6  C   UNL     1       0.578  10.059  19.175  0.00  0.00    +0.000 A 
ENDROOT
BRANCH   1  12
ATOM      7  C   UNL     1      -3.403  12.109  18.766  0.00  0.00    +0.000 C 
ATOM      8  C   UNL     1      -4.381  11.474  17.763  0.00  0.00    +0.000 C 
ATOM      9  C   UNL     1      -3.549  10.476  16.992  0.00  0.00    +0.000 C 
ATOM     10  C   UNL     1      -2.509  10.001  17.992  0.00  0.00    +0.000 C 
ATOM     11  N   UNL     1      -2.459  11.009  19.044  0.00  0.00    +0.000 N 
ATOM     12  C   UNL     1      -1.523  11.118  20.070  0.00  0.00    +0.000 C 
ATOM     13  O   UNL     1      -1.582  12.015  20.910  0.00  0.00    +0.000 OA
BRANCH   7  14
ATOM     14  C   UNL     1      -4.308  12.708  19.857  0.00  0.00    +0.000 C 
ATOM     15  O   UNL     1      -4.061  13.768  20.415  0.00  0.00    +0.000 OA
BRANCH  14  17
ATOM     16  C   UNL     1      -6.336  12.487  21.002  0.00  0.00    +0.000 C 
ATOM     17  O   UNL     1      -5.487  12.032  19.950  0.00  0.00    +0.000 OA
ENDBRANCH  14  17
ENDBRANCH   7  14
ENDBRANCH   1  12
BRANCH   4  18
ATOM     18  O   UNL     1       2.447   7.068  20.171  0.00  0.00    +0.000 OA
BRANCH  18  19
ATOM     19  C   UNL     1       2.196   5.748  19.629  0.00  0.00    +0.000 C 
ATOM     20  C   UNL     1       2.884   4.479  20.157  0.00  0.00    +0.000 C 
ATOM     21  C   UNL     1       4.131   3.996  19.390  0.00  0.00    +0.000 C 
ATOM     22  N   UNL     1       4.083   4.152  17.928  0.00  0.00    +0.000 NA
ATOM     23  C   UNL     1       3.553   5.459  17.505  0.00  0.00    +0.000 C 
ATOM     24  C   UNL     1       2.190   5.779  18.103  0.00  0.00    +0.000 C 
BRANCH  22  25
ATOM     25  C   UNL     1       5.447   3.996  17.340  0.00  0.00    +0.000 C 
BRANCH  25  26
ATOM     26  C   UNL     1       6.487   5.041  17.716  0.00  0.00    +0.000 A 
ATOM     27  C   UNL     1       6.636   6.204  16.962  0.00  0.00    +0.000 A 
ATOM     28  C   UNL     1       7.529   7.182  17.398  0.00  0.00    +0.000 A 
ATOM     29  C   UNL     1       8.243   6.981  18.573  0.00  0.00    +0.000 A 
ATOM     30  C   UNL     1       8.036   5.802  19.267  0.00  0.00    +0.000 A 
ATOM     31  N   UNL     1       7.181   4.832  18.868  0.00  0.00    +0.000 NA
ENDBRANCH  25  26
ENDBRANCH  22  25
ENDBRANCH  18  19
ENDBRANCH   4  18
TORSDOF 7
ENDMDL
