MODEL 1
REMARK VINA RESULT:     -10.2      0.000      0.000
REMARK  Name = 
REMARK  6 active torsions:
REMARK  status: ('A' for Active; 'I' for Inactive)
REMARK    1  A    between atoms: N_6  and  C_7
REMARK    2  A    between atoms: C_7  and  C_8
REMARK    3  A    between atoms: N_16  and  C_17
REMARK    4  A    between atoms: C_17  and  C_18
REMARK    5  A    between atoms: N_27  and  C_28
REMARK    6  A    between atoms: C_28  and  C_29
REMARK                            x       y       z     vdW  Elec       q    Type
REMARK                         _______ _______ _______ _____ _____    ______ ____
ROOT
ATOM      1  C   UNL     1       2.856   7.713  18.165  0.00  0.00    +0.000 C 
ENDROOT
BRANCH   1   7
ATOM      2  O   UNL     1      -0.551  10.675  21.316  0.00  0.00    +0.000 OA
ATOM      3  C   UNL     1       0.238  10.047  20.615  0.00  0.00    +0.000 A 
ATOM      4  C   UNL     1       0.957   8.873  21.149  0.00  0.00    +0.000 A 
ATOM      5  F   UNL     1       0.804   8.600  22.461  0.00  0.00    +0.000 F 
ATOM      6  C   UNL     1       1.706   8.111  20.344  0.00  0.00    +0.000 A 
ATOM      7  N   UNL     1       1.930   8.465  19.025  0.00  0.00    +0.000 N 
ATOM      8  C   UNL     1       1.526   9.718  18.556  0.00  0.00    +0.000 A 
ATOM      9  O   UNL     1       2.026  10.218  17.549  0.00  0.00    +0.000 OA
ATOM     10  N   UNL     1       0.537  10.370  19.308  0.00  0.00    +0.000 N 
BRANCH  10  11
ATOM     11  C   UNL     1      -0.140  11.486  18.660  0.00  0.00    +0.000 C 
BRANCH  11  12
ATOM     12  C   UNL     1      -1.548  11.122  18.233  0.00  0.00    +0.000 A 
ATOM     13  C   UNL     1      -1.776  10.109  17.288  0.00  0.00    +0.000 A 
ATOM     14  C   UNL     1      -3.077   9.808  16.869  0.00  0.00    +0.000 A 
ATOM     15  C   UNL     1      -4.163  10.511  17.390  0.00  0.00    +0.000 A 
ATOM     16  C   UNL     1      -3.949  11.508  18.340  0.00  0.00    +0.000 A 
ATOM     17  C   UNL     1      -2.653  11.803  18.756  0.00  0.00    +0.000 A 
ATOM     18  F   UNL     1      -2.481  12.761  19.679  0.00  0.00    +0.000 F 
ENDBRANCH  11  12
ENDBRANCH  10  11
ENDBRANCH   1   7
BRANCH   1  19
ATOM     19  C   UNL     1       2.932   6.235  18.432  0.00  0.00    +0.000 A 
ATOM     20  N   UNL     1       3.035   5.641  19.620  0.00  0.00    +0.000 NA
ATOM     21  C   UNL     1       3.195   4.297  19.341  0.00  0.00    +0.000 A 
ATOM     22  C   UNL     1       3.661   3.215  20.097  0.00  0.00    +0.000 A 
ATOM     23  C   UNL     1       3.614   1.936  19.517  0.00  0.00    +0.000 A 
ATOM     24  C   UNL     1       3.024   1.732  18.264  0.00  0.00    +0.000 A 
ATOM     25  C   UNL     1       2.660   2.812  17.457  0.00  0.00    +0.000 A 
ATOM     26  C   UNL     1       2.898   4.073  18.007  0.00  0.00    +0.000 A 
ATOM     27  N   UNL     1       3.309   5.293  17.481  0.00  0.00    +0.000 N 
BRANCH  27  28
ATOM     28  C   UNL     1       4.551   5.359  16.666  0.00  0.00    +0.000 C 
BRANCH  28  29
ATOM     29  C   UNL     1       5.805   5.996  17.279  0.00  0.00    +0.000 A 
ATOM     30  C   UNL     1       6.299   7.293  17.055  0.00  0.00    +0.000 A 
ATOM     31  C   UNL     1       7.450   7.775  17.701  0.00  0.00    +0.000 A 
ATOM     32  C   UNL     1       8.152   6.967  18.585  0.00  0.00    +0.000 A 
ATOM     33  C   UNL     1       7.709   5.668  18.807  0.00  0.00    +0.000 A 
ATOM     34  C   UNL     1       6.560   5.201  18.156  0.00  0.00    +0.000 A 
ATOM     35  F   UNL     1       6.176   3.936  18.392  0.00  0.00    +0.000 F 
ENDBRANCH  28  29
ENDBRANCH  27  28
ENDBRANCH   1  19
TORSDOF 6
ENDMDL
MODEL 2
REMARK VINA RESULT:     -10.0      0.790      1.133
REMARK  Name = 
REMARK  6 active torsions:
REMARK  status: ('A' for Active; 'I' for Inactive)
REMARK    1  A    between atoms: N_6  and  C_7
REMARK    2  A    between atoms: C_7  and  C_8
REMARK    3  A    between atoms: N_16  and  C_17
REMARK    4  A    between atoms: C_17  and  C_18
REMARK    5  A    between atoms: N_27  and  C_28
REMARK    6  A    between atoms: C_28  and  C_29
REMARK                            x       y       z     vdW  Elec       q    Type
REMARK                         _______ _______ _______ _____ _____    ______ ____
ROOT
ATOM      1  C   UNL     1       2.852   7.715  18.159  0.00  0.00    +0.000 C 
ENDROOT
BRANCH   1   7
ATOM      2  O   UNL     1      -0.575  10.670  21.294  0.00  0.00    +0.000 OA
ATOM      3  C   UNL     1       0.218  10.044  20.597  0.00  0.00    +0.000 A 
ATOM      4  C   UNL     1       0.922   8.859  21.129  0.00  0.00    +0.000 A 
ATOM      5  F   UNL     1       0.750   8.575  22.436  0.00  0.00    +0.000 F 
ATOM      6  C   UNL     1       1.676   8.100  20.326  0.00  0.00    +0.000 A 
ATOM      7  N   UNL     1       1.920   8.466  19.014  0.00  0.00    +0.000 N 
ATOM      8  C   UNL     1       1.531   9.726  18.552  0.00  0.00    +0.000 A 
ATOM      9  O   UNL     1       2.047  10.233  17.557  0.00  0.00    +0.000 OA
ATOM     10  N   UNL     1       0.536  10.378  19.298  0.00  0.00    +0.000 N 
BRANCH  10  11
ATOM     11  C   UNL     1      -0.124  11.505  18.653  0.00  0.00    +0.000 C 
BRANCH  11  12
ATOM     12  C   UNL     1      -1.576  11.204  18.337  0.00  0.00    +0.000 A 
ATOM     13  C   UNL     1      -2.610  11.968  18.902  0.00  0.00    +0.000 A 
ATOM     14  C   UNL     1      -3.948  11.657  18.639  0.00  0.00    +0.000 A 
ATOM     15  C   UNL     1      -4.269  10.583  17.808  0.00  0.00    +0.000 A 
ATOM     16  C   UNL     1      -3.250   9.829  17.229  0.00  0.00    +0.000 A 
ATOM     17  C   UNL     1      -1.919  10.144  17.493  0.00  0.00    +0.000 A 
ATOM     18  F   UNL     1      -0.961   9.404  16.913  0.00  0.00    +0.000 F 
ENDBRANCH  11  12
ENDBRANCH  10  11
ENDBRANCH   1   7
BRANCH   1  19
ATOM     19  C   UNL     1       2.930   6.237  18.426  0.00  0.00    +0.000 A 
ATOM     20  N   UNL     1       3.032   5.644  19.614  0.00  0.00    +0.000 NA
ATOM     21  C   UNL     1       3.195   4.300  19.335  0.00  0.00    +0.000 A 
ATOM     22  C   UNL     1       3.661   3.219  20.092  0.00  0.00    +0.000 A 
ATOM     23  C   UNL     1       3.617   1.940  19.511  0.00  0.00    +0.000 A 
ATOM     24  C   UNL     1       3.028   1.735  18.258  0.00  0.00    +0.000 A 
ATOM     25  C   UNL     1       2.662   2.815  17.451  0.00  0.00    +0.000 A 
ATOM     26  C   UNL     1       2.899   4.076  18.001  0.00  0.00    +0.000 A 
ATOM     27  N   UNL     1       3.308   5.297  17.475  0.00  0.00    +0.000 N 
BRANCH  27  28
ATOM     28  C   UNL     1       4.551   5.363  16.661  0.00  0.00    +0.000 C 
BRANCH  28  29
ATOM     29  C   UNL     1       5.805   5.997  17.277  0.00  0.00    +0.000 A 
ATOM     30  C   UNL     1       6.301   7.294  17.057  0.00  0.00    +0.000 A 
ATOM     31  C   UNL     1       7.452   7.773  17.706  0.00  0.00    +0.000 A 
ATOM     32  C   UNL     1       8.153   6.962  18.588  0.00  0.00    +0.000 A 
ATOM     33  C   UNL     1       7.708   5.663  18.805  0.00  0.00    +0.000 A 
ATOM     34  C   UNL     1       6.559   5.198  18.151  0.00  0.00    +0.000 A 
ATOM     35  F   UNL     1       6.174   3.933  18.382  0.00  0.00    +0.000 F 
ENDBRANCH  28  29
ENDBRANCH  27  28
ENDBRANCH   1  19
TORSDOF 6
ENDMDL
MODEL 3
REMARK VINA RESULT:     -10.0      1.228      1.470
REMARK  Name = 
REMARK  6 active torsions:
REMARK  status: ('A' for Active; 'I' for Inactive)
REMARK    1  A    between atoms: N_6  and  C_7
REMARK    2  A    between atoms: C_7  and  C_8
REMARK    3  A    between atoms: N_16  and  C_17
REMARK    4  A    between atoms: C_17  and  C_18
REMARK    5  A    between atoms: N_27  and  C_28
REMARK    6  A    between atoms: C_28  and  C_29
REMARK                            x       y       z     vdW  Elec       q    Type
REMARK                         _______ _______ _______ _____ _____    ______ ____
ROOT
ATOM      1  C   UNL     1       2.421   7.822  19.125  0.00  0.00    +0.000 C 
ENDROOT
BRANCH   1   7
ATOM      2  O   UNL     1      -0.989  11.282  21.715  0.00  0.00    +0.000 OA
ATOM      3  C   UNL     1      -0.198  10.542  21.136  0.00  0.00    +0.000 A 
ATOM      4  C   UNL     1       0.460   9.428  21.850  0.00  0.00    +0.000 A 
ATOM      5  F   UNL     1       0.250   9.339  23.179  0.00  0.00    +0.000 F 
ATOM      6  C   UNL     1       1.209   8.543  21.183  0.00  0.00    +0.000 A 
ATOM      7  N   UNL     1       1.492   8.711  19.839  0.00  0.00    +0.000 N 
ATOM      8  C   UNL     1       1.150   9.901  19.192  0.00  0.00    +0.000 A 
ATOM      9  O   UNL     1       1.703  10.247  18.149  0.00  0.00    +0.000 OA
ATOM     10  N   UNL     1       0.159  10.678  19.811  0.00  0.00    +0.000 N 
BRANCH  10  11
ATOM     11  C   UNL     1      -0.454  11.717  18.994  0.00  0.00    +0.000 C 
BRANCH  11  12
ATOM     12  C   UNL     1      -1.767  11.260  18.390  0.00  0.00    +0.000 A 
ATOM     13  C   UNL     1      -1.798  10.271  17.394  0.00  0.00    +0.000 A 
ATOM     14  C   UNL     1      -3.010   9.885  16.813  0.00  0.00    +0.000 A 
ATOM     15  C   UNL     1      -4.205  10.479  17.220  0.00  0.00    +0.000 A 
ATOM     16  C   UNL     1      -4.188  11.450  18.220  0.00  0.00    +0.000 A 
ATOM     17  C   UNL     1      -2.978  11.830  18.797  0.00  0.00    +0.000 A 
ATOM     18  F   UNL     1      -2.996  12.760  19.763  0.00  0.00    +0.000 F 
ENDBRANCH  11  12
ENDBRANCH  10  11
ENDBRANCH   1   7
BRANCH   1  19
ATOM     19  C   UNL     1       2.239   6.352  19.382  0.00  0.00    +0.000 A 
ATOM     20  N   UNL     1       2.361   5.724  20.551  0.00  0.00    +0.000 NA
ATOM     21  C   UNL     1       2.224   4.380  20.257  0.00  0.00    +0.000 A 
ATOM     22  C   UNL     1       2.555   3.213  20.954  0.00  0.00    +0.000 A 
ATOM     23  C   UNL     1       2.194   1.980  20.385  0.00  0.00    +0.000 A 
ATOM     24  C   UNL     1       1.434   1.921  19.210  0.00  0.00    +0.000 A 
ATOM     25  C   UNL     1       1.196   3.068  18.451  0.00  0.00    +0.000 A 
ATOM     26  C   UNL     1       1.737   4.247  18.967  0.00  0.00    +0.000 A 
ATOM     27  N   UNL     1       2.313   5.376  18.395  0.00  0.00    +0.000 N 
BRANCH  27  28
ATOM     28  C   UNL     1       3.442   5.218  17.440  0.00  0.00    +0.000 C 
BRANCH  28  29
ATOM     29  C   UNL     1       4.860   5.568  17.906  0.00  0.00    +0.000 A 
ATOM     30  C   UNL     1       5.529   5.083  19.044  0.00  0.00    +0.000 A 
ATOM     31  C   UNL     1       6.848   5.459  19.352  0.00  0.00    +0.000 A 
ATOM     32  C   UNL     1       7.537   6.345  18.535  0.00  0.00    +0.000 A 
ATOM     33  C   UNL     1       6.895   6.868  17.418  0.00  0.00    +0.000 A 
ATOM     34  C   UNL     1       5.580   6.485  17.123  0.00  0.00    +0.000 A 
ATOM     35  F   UNL     1       4.997   7.025  16.041  0.00  0.00    +0.000 F 
ENDBRANCH  28  29
ENDBRANCH  27  28
ENDBRANCH   1  19
TORSDOF 6
ENDMDL
MODEL 4
REMARK VINA RESULT:     -10.0      1.678      1.957
REMARK  Name = 
REMARK  6 active torsions:
REMARK  status: ('A' for Active; 'I' for Inactive)
REMARK    1  A    between atoms: N_6  and  C_7
REMARK    2  A    between atoms: C_7  and  C_8
REMARK    3  A    between atoms: N_16  and  C_17
REMARK    4  A    between atoms: C_17  and  C_18
REMARK    5  A    between atoms: N_27  and  C_28
REMARK    6  A    between atoms: C_28  and  C_29
REMARK                            x       y       z     vdW  Elec       q    Type
REMARK                         _______ _______ _______ _____ _____    ______ ____
ROOT
ATOM      1  C   UNL     1       2.255   8.068  19.737  0.00  0.00    +0.000 C 
ENDROOT
BRANCH   1   7
ATOM      2  O   UNL     1      -1.394  11.438  22.111  0.00  0.00    +0.000 OA
ATOM      3  C   UNL     1      -0.551  10.719  21.582  0.00  0.00    +0.000 A 
ATOM      4  C   UNL     1       0.100   9.630  22.339  0.00  0.00    +0.000 A 
ATOM      5  F   UNL     1      -0.180   9.542  23.655  0.00  0.00    +0.000 F 
ATOM      6  C   UNL     1       0.911   8.765  21.720  0.00  0.00    +0.000 A 
ATOM      7  N   UNL     1       1.262   8.933  20.393  0.00  0.00    +0.000 N 
ATOM      8  C   UNL     1       0.920  10.108  19.719  0.00  0.00    +0.000 A 
ATOM      9  O   UNL     1       1.518  10.464  18.705  0.00  0.00    +0.000 OA
ATOM     10  N   UNL     1      -0.127  10.858  20.277  0.00  0.00    +0.000 N 
BRANCH  10  11
ATOM     11  C   UNL     1      -0.725  11.873  19.420  0.00  0.00    +0.000 C 
BRANCH  11  12
ATOM     12  C   UNL     1      -1.967  11.359  18.719  0.00  0.00    +0.000 A 
ATOM     13  C   UNL     1      -1.883  10.347  17.749  0.00  0.00    +0.000 A 
ATOM     14  C   UNL     1      -3.028   9.909  17.077  0.00  0.00    +0.000 A 
ATOM     15  C   UNL     1      -4.271  10.472  17.367  0.00  0.00    +0.000 A 
ATOM     16  C   UNL     1      -4.369  11.466  18.339  0.00  0.00    +0.000 A 
ATOM     17  C   UNL     1      -3.226  11.898  19.007  0.00  0.00    +0.000 A 
ATOM     18  F   UNL     1      -3.355  12.850  19.943  0.00  0.00    +0.000 F 
ENDBRANCH  11  12
ENDBRANCH  10  11
ENDBRANCH   1   7
BRANCH   1  19
ATOM     19  C   UNL     1       1.957   6.595  19.773  0.00  0.00    +0.000 A 
ATOM     20  N   UNL     1       1.398   5.917  20.774  0.00  0.00    +0.000 NA
ATOM     21  C   UNL     1       1.448   4.591  20.386  0.00  0.00    +0.000 A 
ATOM     22  C   UNL     1       1.326   3.387  21.089  0.00  0.00    +0.000 A 
ATOM     23  C   UNL     1       1.347   2.189  20.354  0.00  0.00    +0.000 A 
ATOM     24  C   UNL     1       1.382   2.200  18.955  0.00  0.00    +0.000 A 
ATOM     25  C   UNL     1       1.615   3.385  18.251  0.00  0.00    +0.000 A 
ATOM     26  C   UNL     1       1.773   4.525  19.041  0.00  0.00    +0.000 A 
ATOM     27  N   UNL     1       2.573   5.659  18.951  0.00  0.00    +0.000 N 
BRANCH  27  28
ATOM     28  C   UNL     1       4.044   5.506  18.791  0.00  0.00    +0.000 C 
BRANCH  28  29
ATOM     29  C   UNL     1       4.628   5.404  17.376  0.00  0.00    +0.000 A 
ATOM     30  C   UNL     1       4.861   6.454  16.471  0.00  0.00    +0.000 A 
ATOM     31  C   UNL     1       5.431   6.237  15.205  0.00  0.00    +0.000 A 
ATOM     32  C   UNL     1       5.775   4.955  14.798  0.00  0.00    +0.000 A 
ATOM     33  C   UNL     1       5.530   3.888  15.656  0.00  0.00    +0.000 A 
ATOM     34  C   UNL     1       4.961   4.120  16.915  0.00  0.00    +0.000 A 
ATOM     35  F   UNL     1       4.731   3.058  17.704  0.00  0.00    +0.000 F 
ENDBRANCH  28  29
ENDBRANCH  27  28
ENDBRANCH   1  19
TORSDOF 6
ENDMDL
MODEL 5
REMARK VINA RESULT:      -9.9      1.410      1.815
REMARK  Name = 
REMARK  6 active torsions:
REMARK  status: ('A' for Active; 'I' for Inactive)
REMARK    1  A    between atoms: N_6  and  C_7
REMARK    2  A    between atoms: C_7  and  C_8
REMARK    3  A    between atoms: N_16  and  C_17
REMARK    4  A    between atoms: C_17  and  C_18
REMARK    5  A    between atoms: N_27  and  C_28
REMARK    6  A    between atoms: C_28  and  C_29
REMARK                            x       y       z     vdW  Elec       q    Type
REMARK                         _______ _______ _______ _____ _____    ______ ____
ROOT
ATOM      1  C   UNL     1       2.427   7.801  18.965  0.00  0.00    +0.000 C 
ENDROOT
BRANCH   1   7
ATOM      2  O   UNL     1      -0.854  11.368  21.577  0.00  0.00    +0.000 OA
ATOM      3  C   UNL     1      -0.092  10.604  20.992  0.00  0.00    +0.000 A 
ATOM      4  C   UNL     1       0.574   9.498  21.711  0.00  0.00    +0.000 A 
ATOM      5  F   UNL     1       0.404   9.443  23.048  0.00  0.00    +0.000 F 
ATOM      6  C   UNL     1       1.290   8.587  21.043  0.00  0.00    +0.000 A 
ATOM      7  N   UNL     1       1.533   8.720  19.687  0.00  0.00    +0.000 N 
ATOM      8  C   UNL     1       1.186   9.899  19.022  0.00  0.00    +0.000 A 
ATOM      9  O   UNL     1       1.710  10.212  17.955  0.00  0.00    +0.000 OA
ATOM     10  N   UNL     1       0.225  10.703  19.654  0.00  0.00    +0.000 N 
BRANCH  10  11
ATOM     11  C   UNL     1      -0.400  11.732  18.831  0.00  0.00    +0.000 C 
BRANCH  11  12
ATOM     12  C   UNL     1      -1.829  11.377  18.472  0.00  0.00    +0.000 A 
ATOM     13  C   UNL     1      -2.909  12.079  19.029  0.00  0.00    +0.000 A 
ATOM     14  C   UNL     1      -4.226  11.717  18.724  0.00  0.00    +0.000 A 
ATOM     15  C   UNL     1      -4.479  10.653  17.859  0.00  0.00    +0.000 A 
ATOM     16  C   UNL     1      -3.414   9.959  17.287  0.00  0.00    +0.000 A 
ATOM     17  C   UNL     1      -2.105  10.324  17.592  0.00  0.00    +0.000 A 
ATOM     18  F   UNL     1      -1.102   9.643  17.019  0.00  0.00    +0.000 F 
ENDBRANCH  11  12
ENDBRANCH  10  11
ENDBRANCH   1   7
BRANCH   1  19
ATOM     19  C   UNL     1       2.242   6.341  19.272  0.00  0.00    +0.000 A 
ATOM     20  N   UNL     1       2.340   5.756  20.465  0.00  0.00    +0.000 NA
ATOM     21  C   UNL     1       2.211   4.403  20.217  0.00  0.00    +0.000 A 
ATOM     22  C   UNL     1       2.529   3.262  20.964  0.00  0.00    +0.000 A 
ATOM     23  C   UNL     1       2.183   2.008  20.432  0.00  0.00    +0.000 A 
ATOM     24  C   UNL     1       1.449   1.905  19.244  0.00  0.00    +0.000 A 
ATOM     25  C   UNL     1       1.225   3.023  18.438  0.00  0.00    +0.000 A 
ATOM     26  C   UNL     1       1.753   4.222  18.923  0.00  0.00    +0.000 A 
ATOM     27  N   UNL     1       2.339   5.330  18.323  0.00  0.00    +0.000 N 
BRANCH  27  28
ATOM     28  C   UNL     1       3.489   5.140  17.399  0.00  0.00    +0.000 C 
BRANCH  28  29
ATOM     29  C   UNL     1       4.894   5.525  17.877  0.00  0.00    +0.000 A 
ATOM     30  C   UNL     1       5.566   5.052  19.018  0.00  0.00    +0.000 A 
ATOM     31  C   UNL     1       6.873   5.461  19.338  0.00  0.00    +0.000 A 
ATOM     32  C   UNL     1       7.545   6.367  18.530  0.00  0.00    +0.000 A 
ATOM     33  C   UNL     1       6.899   6.878  17.410  0.00  0.00    +0.000 A 
ATOM     34  C   UNL     1       5.597   6.463  17.103  0.00  0.00    +0.000 A 
ATOM     35  F   UNL     1       5.008   6.992  16.019  0.00  0.00    +0.000 F 
ENDBRANCH  28  29
ENDBRANCH  27  28
ENDBRANCH   1  19
TORSDOF 6
ENDMDL
MODEL 6
REMARK VINA RESULT:      -9.9      1.876      2.399
REMARK  Name = 
REMARK  6 active torsions:
REMARK  status: ('A' for Active; 'I' for Inactive)
REMARK    1  A    between atoms: N_6  and  C_7
REMARK    2  A    between atoms: C_7  and  C_8
REMARK    3  A    between atoms: N_16  and  C_17
REMARK    4  A    between atoms: C_17  and  C_18
REMARK    5  A    between atoms: N_27  and  C_28
REMARK    6  A    between atoms: C_28  and  C_29
REMARK                            x       y       z     vdW  Elec       q    Type
REMARK                         _______ _______ _______ _____ _____    ______ ____
ROOT
ATOM      1  C   UNL     1       2.286   7.979  19.548  0.00  0.00    +0.000 C 
ENDROOT
BRANCH   1   7
ATOM      2  O   UNL     1      -1.324  11.436  21.855  0.00  0.00    +0.000 OA
ATOM      3  C   UNL     1      -0.489  10.697  21.340  0.00  0.00    +0.000 A 
ATOM      4  C   UNL     1       0.138   9.607  22.115  0.00  0.00    +0.000 A 
ATOM      5  F   UNL     1      -0.153   9.539  23.430  0.00  0.00    +0.000 F 
ATOM      6  C   UNL     1       0.939   8.720  21.513  0.00  0.00    +0.000 A 
ATOM      7  N   UNL     1       1.302   8.867  20.186  0.00  0.00    +0.000 N 
ATOM      8  C   UNL     1       0.985  10.040  19.496  0.00  0.00    +0.000 A 
ATOM      9  O   UNL     1       1.597  10.374  18.483  0.00  0.00    +0.000 OA
ATOM     10  N   UNL     1      -0.053  10.814  20.038  0.00  0.00    +0.000 N 
BRANCH  10  11
ATOM     11  C   UNL     1      -0.628  11.829  19.164  0.00  0.00    +0.000 C 
BRANCH  11  12
ATOM     12  C   UNL     1      -2.001  11.428  18.660  0.00  0.00    +0.000 A 
ATOM     13  C   UNL     1      -3.158  12.068  19.130  0.00  0.00    +0.000 A 
ATOM     14  C   UNL     1      -4.423  11.663  18.691  0.00  0.00    +0.000 A 
ATOM     15  C   UNL     1      -4.547  10.618  17.775  0.00  0.00    +0.000 A 
ATOM     16  C   UNL     1      -3.404   9.986  17.289  0.00  0.00    +0.000 A 
ATOM     17  C   UNL     1      -2.146  10.394  17.728  0.00  0.00    +0.000 A 
ATOM     18  F   UNL     1      -1.064   9.773  17.235  0.00  0.00    +0.000 F 
ENDBRANCH  11  12
ENDBRANCH  10  11
ENDBRANCH   1   7
BRANCH   1  19
ATOM     19  C   UNL     1       2.005   6.507  19.670  0.00  0.00    +0.000 A 
ATOM     20  N   UNL     1       1.428   5.886  20.698  0.00  0.00    +0.000 NA
ATOM     21  C   UNL     1       1.505   4.539  20.398  0.00  0.00    +0.000 A 
ATOM     22  C   UNL     1       1.380   3.380  21.173  0.00  0.00    +0.000 A 
ATOM     23  C   UNL     1       1.436   2.139  20.517  0.00  0.00    +0.000 A 
ATOM     24  C   UNL     1       1.508   2.061  19.121  0.00  0.00    +0.000 A 
ATOM     25  C   UNL     1       1.746   3.201  18.350  0.00  0.00    +0.000 A 
ATOM     26  C   UNL     1       1.868   4.392  19.069  0.00  0.00    +0.000 A 
ATOM     27  N   UNL     1       2.655   5.529  18.927  0.00  0.00    +0.000 N 
BRANCH  27  28
ATOM     28  C   UNL     1       4.132   5.387  18.815  0.00  0.00    +0.000 C 
BRANCH  28  29
ATOM     29  C   UNL     1       4.749   5.135  17.434  0.00  0.00    +0.000 A 
ATOM     30  C   UNL     1       5.258   3.924  16.934  0.00  0.00    +0.000 A 
ATOM     31  C   UNL     1       5.775   3.811  15.632  0.00  0.00    +0.000 A 
ATOM     32  C   UNL     1       5.811   4.915  14.791  0.00  0.00    +0.000 A 
ATOM     33  C   UNL     1       5.343   6.136  15.263  0.00  0.00    +0.000 A 
ATOM     34  C   UNL     1       4.831   6.234  16.563  0.00  0.00    +0.000 A 
ATOM     35  F   UNL     1       4.402   7.436  16.980  0.00  0.00    +0.000 F 
ENDBRANCH  28  29
ENDBRANCH  27  28
ENDBRANCH   1  19
TORSDOF 6
ENDMDL
MODEL 7
REMARK VINA RESULT:      -9.7      1.494      2.018
REMARK  Name = 
REMARK  6 active torsions:
REMARK  status: ('A' for Active; 'I' for Inactive)
REMARK    1  A    between atoms: N_6  and  C_7
REMARK    2  A    between atoms: C_7  and  C_8
REMARK    3  A    between atoms: N_16  and  C_17
REMARK    4  A    between atoms: C_17  and  C_18
REMARK    5  A    between atoms: N_27  and  C_28
REMARK    6  A    between atoms: C_28  and  C_29
REMARK                            x       y       z     vdW  Elec       q    Type
REMARK                         _______ _______ _______ _____ _____    ______ ____
ROOT
ATOM      1  C   UNL     1       2.387   7.917  19.319  0.00  0.00    +0.000 C 
ENDROOT
BRANCH   1   7
ATOM      2  O   UNL     1      -1.181  11.405  21.645  0.00  0.00    +0.000 OA
ATOM      3  C   UNL     1      -0.355  10.660  21.125  0.00  0.00    +0.000 A 
ATOM      4  C   UNL     1       0.292   9.585  21.904  0.00  0.00    +0.000 A 
ATOM      5  F   UNL     1       0.031   9.540  23.227  0.00  0.00    +0.000 F 
ATOM      6  C   UNL     1       1.082   8.690  21.301  0.00  0.00    +0.000 A 
ATOM      7  N   UNL     1       1.415   8.814  19.964  0.00  0.00    +0.000 N 
ATOM      8  C   UNL     1       1.079   9.973  19.260  0.00  0.00    +0.000 A 
ATOM      9  O   UNL     1       1.667  10.291  18.227  0.00  0.00    +0.000 OA
ATOM     10  N   UNL     1       0.051  10.754  19.811  0.00  0.00    +0.000 N 
BRANCH  10  11
ATOM     11  C   UNL     1      -0.547  11.751  18.932  0.00  0.00    +0.000 C 
BRANCH  11  12
ATOM     12  C   UNL     1      -1.941  11.352  18.490  0.00  0.00    +0.000 A 
ATOM     13  C   UNL     1      -3.073  12.026  18.975  0.00  0.00    +0.000 A 
ATOM     14  C   UNL     1      -4.357  11.624  18.594  0.00  0.00    +0.000 A 
ATOM     15  C   UNL     1      -4.527  10.547  17.724  0.00  0.00    +0.000 A 
ATOM     16  C   UNL     1      -3.410   9.881  17.224  0.00  0.00    +0.000 A 
ATOM     17  C   UNL     1      -2.132  10.286  17.605  0.00  0.00    +0.000 A 
ATOM     18  F   UNL     1      -1.077   9.631  17.099  0.00  0.00    +0.000 F 
ENDBRANCH  11  12
ENDBRANCH  10  11
ENDBRANCH   1   7
BRANCH   1  19
ATOM     19  C   UNL     1       2.150   6.447  19.529  0.00  0.00    +0.000 A 
ATOM     20  N   UNL     1       1.470   5.881  20.525  0.00  0.00    +0.000 NA
ATOM     21  C   UNL     1       1.638   4.520  20.350  0.00  0.00    +0.000 A 
ATOM     22  C   UNL     1       1.458   3.421  21.198  0.00  0.00    +0.000 A 
ATOM     23  C   UNL     1       1.646   2.136  20.660  0.00  0.00    +0.000 A 
ATOM     24  C   UNL     1       1.900   1.953  19.296  0.00  0.00    +0.000 A 
ATOM     25  C   UNL     1       2.190   3.040  18.468  0.00  0.00    +0.000 A 
ATOM     26  C   UNL     1       2.173   4.287  19.094  0.00  0.00    +0.000 A 
ATOM     27  N   UNL     1       2.928   5.447  18.956  0.00  0.00    +0.000 N 
BRANCH  27  28
ATOM     28  C   UNL     1       4.411   5.369  19.042  0.00  0.00    +0.000 C 
BRANCH  28  29
ATOM     29  C   UNL     1       5.211   5.075  17.767  0.00  0.00    +0.000 A 
ATOM     30  C   UNL     1       4.706   4.871  16.471  0.00  0.00    +0.000 A 
ATOM     31  C   UNL     1       5.548   4.636  15.370  0.00  0.00    +0.000 A 
ATOM     32  C   UNL     1       6.926   4.587  15.535  0.00  0.00    +0.000 A 
ATOM     33  C   UNL     1       7.457   4.754  16.808  0.00  0.00    +0.000 A 
ATOM     34  C   UNL     1       6.607   4.987  17.896  0.00  0.00    +0.000 A 
ATOM     35  F   UNL     1       7.164   5.131  19.109  0.00  0.00    +0.000 F 
ENDBRANCH  28  29
ENDBRANCH  27  28
ENDBRANCH   1  19
TORSDOF 6
ENDMDL
MODEL 8
REMARK VINA RESULT:      -9.4      1.686      2.098
REMARK  Name = 
REMARK  6 active torsions:
REMARK  status: ('A' for Active; 'I' for Inactive)
REMARK    1  A    between atoms: N_6  and  C_7
REMARK    2  A    between atoms: C_7  and  C_8
REMARK    3  A    between atoms: N_16  and  C_17
REMARK    4  A    between atoms: C_17  and  C_18
REMARK    5  A    between atoms: N_27  and  C_28
REMARK    6  A    between atoms: C_28  and  C_29
REMARK                            x       y       z     vdW  Elec       q    Type
REMARK                         _______ _______ _______ _____ _____    ______ ____
ROOT
ATOM      1  C   UNL     1       2.165   8.111  19.360  0.00  0.00    +0.000 C 
ENDROOT
BRANCH   1   7
ATOM      2  O   UNL     1      -1.177  11.472  22.161  0.00  0.00    +0.000 OA
ATOM      3  C   UNL     1      -0.402  10.754  21.535  0.00  0.00    +0.000 A 
ATOM      4  C   UNL     1       0.284   9.623  22.194  0.00  0.00    +0.000 A 
ATOM      5  F   UNL     1       0.117   9.492  23.525  0.00  0.00    +0.000 F 
ATOM      6  C   UNL     1       1.016   8.763  21.477  0.00  0.00    +0.000 A 
ATOM      7  N   UNL     1       1.255   8.973  20.131  0.00  0.00    +0.000 N 
ATOM      8  C   UNL     1       0.887  10.180  19.531  0.00  0.00    +0.000 A 
ATOM      9  O   UNL     1       1.405  10.560  18.482  0.00  0.00    +0.000 OA
ATOM     10  N   UNL     1      -0.088  10.932  20.204  0.00  0.00    +0.000 N 
BRANCH  10  11
ATOM     11  C   UNL     1      -0.732  11.992  19.439  0.00  0.00    +0.000 C 
BRANCH  11  12
ATOM     12  C   UNL     1      -2.087  11.564  18.911  0.00  0.00    +0.000 A 
ATOM     13  C   UNL     1      -2.204  10.508  17.994  0.00  0.00    +0.000 A 
ATOM     14  C   UNL     1      -3.454  10.147  17.480  0.00  0.00    +0.000 A 
ATOM     15  C   UNL     1      -4.601  10.834  17.878  0.00  0.00    +0.000 A 
ATOM     16  C   UNL     1      -4.499  11.874  18.800  0.00  0.00    +0.000 A 
ATOM     17  C   UNL     1      -3.252  12.228  19.311  0.00  0.00    +0.000 A 
ATOM     18  F   UNL     1      -3.188  13.227  20.204  0.00  0.00    +0.000 F 
ENDBRANCH  11  12
ENDBRANCH  10  11
ENDBRANCH   1   7
BRANCH   1  19
ATOM     19  C   UNL     1       2.070   6.640  19.655  0.00  0.00    +0.000 A 
ATOM     20  N   UNL     1       1.561   6.075  20.750  0.00  0.00    +0.000 NA
ATOM     21  C   UNL     1       1.811   4.723  20.610  0.00  0.00    +0.000 A 
ATOM     22  C   UNL     1       1.821   3.656  21.516  0.00  0.00    +0.000 A 
ATOM     23  C   UNL     1       2.041   2.364  21.010  0.00  0.00    +0.000 A 
ATOM     24  C   UNL     1       2.141   2.133  19.633  0.00  0.00    +0.000 A 
ATOM     25  C   UNL     1       2.244   3.196  18.733  0.00  0.00    +0.000 A 
ATOM     26  C   UNL     1       2.206   4.469  19.307  0.00  0.00    +0.000 A 
ATOM     27  N   UNL     1       2.847   5.671  19.031  0.00  0.00    +0.000 N 
BRANCH  27  28
ATOM     28  C   UNL     1       4.331   5.705  18.934  0.00  0.00    +0.000 C 
BRANCH  28  29
ATOM     29  C   UNL     1       4.990   5.456  17.572  0.00  0.00    +0.000 A 
ATOM     30  C   UNL     1       5.840   4.394  17.216  0.00  0.00    +0.000 A 
ATOM     31  C   UNL     1       6.362   4.258  15.918  0.00  0.00    +0.000 A 
ATOM     32  C   UNL     1       6.058   5.191  14.935  0.00  0.00    +0.000 A 
ATOM     33  C   UNL     1       5.245   6.271  15.261  0.00  0.00    +0.000 A 
ATOM     34  C   UNL     1       4.732   6.394  16.558  0.00  0.00    +0.000 A 
ATOM     35  F   UNL     1       3.961   7.459  16.830  0.00  0.00    +0.000 F 
ENDBRANCH  28  29
ENDBRANCH  27  28
ENDBRANCH   1  19
TORSDOF 6
ENDMDL
MODEL 9
REMARK VINA RESULT:      -9.4      1.931      2.330
REMARK  Name = 
REMARK  6 active torsions:
REMARK  status: ('A' for Active; 'I' for Inactive)
REMARK    1  A    between atoms: N_6  and  C_7
REMARK    2  A    between atoms: C_7  and  C_8
REMARK    3  A    between atoms: N_16  and  C_17
REMARK    4  A    between atoms: C_17  and  C_18
REMARK    5  A    between atoms: N_27  and  C_28
REMARK    6  A    between atoms: C_28  and  C_29
REMARK                            x       y       z     vdW  Elec       q    Type
REMARK                         _______ _______ _______ _____ _____    ______ ____
ROOT
ATOM      1  C   UNL     1       2.174   8.084  19.762  0.00  0.00    +0.000 C 
ENDROOT
BRANCH   1   7
ATOM      2  O   UNL     1      -1.343  11.210  22.621  0.00  0.00    +0.000 OA
ATOM      3  C   UNL     1      -0.530  10.546  21.983  0.00  0.00    +0.000 A 
ATOM      4  C   UNL     1       0.214   9.441  22.621  0.00  0.00    +0.000 A 
ATOM      5  F   UNL     1       0.055   9.278  23.950  0.00  0.00    +0.000 F 
ATOM      6  C   UNL     1       0.991   8.635  21.889  0.00  0.00    +0.000 A 
ATOM      7  N   UNL     1       1.219   8.882  20.547  0.00  0.00    +0.000 N 
ATOM      8  C   UNL     1       0.787  10.079  19.969  0.00  0.00    +0.000 A 
ATOM      9  O   UNL     1       1.283  10.505  18.928  0.00  0.00    +0.000 OA
ATOM     10  N   UNL     1      -0.227  10.765  20.656  0.00  0.00    +0.000 N 
BRANCH  10  11
ATOM     11  C   UNL     1      -0.927  11.803  19.909  0.00  0.00    +0.000 C 
BRANCH  11  12
ATOM     12  C   UNL     1      -1.708  11.231  18.743  0.00  0.00    +0.000 A 
ATOM     13  C   UNL     1      -2.467  10.059  18.889  0.00  0.00    +0.000 A 
ATOM     14  C   UNL     1      -3.152   9.515  17.797  0.00  0.00    +0.000 A 
ATOM     15  C   UNL     1      -3.088  10.135  16.549  0.00  0.00    +0.000 A 
ATOM     16  C   UNL     1      -2.351  11.308  16.397  0.00  0.00    +0.000 A 
ATOM     17  C   UNL     1      -1.673  11.847  17.488  0.00  0.00    +0.000 A 
ATOM     18  F   UNL     1      -0.979  12.981  17.312  0.00  0.00    +0.000 F 
ENDBRANCH  11  12
ENDBRANCH  10  11
ENDBRANCH   1   7
BRANCH   1  19
ATOM     19  C   UNL     1       1.934   6.600  19.763  0.00  0.00    +0.000 A 
ATOM     20  N   UNL     1       1.340   5.887  20.720  0.00  0.00    +0.000 NA
ATOM     21  C   UNL     1       1.470   4.570  20.323  0.00  0.00    +0.000 A 
ATOM     22  C   UNL     1       1.352   3.353  21.004  0.00  0.00    +0.000 A 
ATOM     23  C   UNL     1       1.469   2.167  20.260  0.00  0.00    +0.000 A 
ATOM     24  C   UNL     1       1.592   2.197  18.866  0.00  0.00    +0.000 A 
ATOM     25  C   UNL     1       1.821   3.398  18.191  0.00  0.00    +0.000 A 
ATOM     26  C   UNL     1       1.882   4.534  19.001  0.00  0.00    +0.000 A 
ATOM     27  N   UNL     1       2.639   5.700  18.973  0.00  0.00    +0.000 N 
BRANCH  27  28
ATOM     28  C   UNL     1       4.122   5.608  18.906  0.00  0.00    +0.000 C 
BRANCH  28  29
ATOM     29  C   UNL     1       4.785   5.316  17.554  0.00  0.00    +0.000 A 
ATOM     30  C   UNL     1       5.453   4.140  17.167  0.00  0.00    +0.000 A 
ATOM     31  C   UNL     1       5.998   3.980  15.882  0.00  0.00    +0.000 A 
ATOM     32  C   UNL     1       5.901   4.998  14.943  0.00  0.00    +0.000 A 
ATOM     33  C   UNL     1       5.274   6.186  15.302  0.00  0.00    +0.000 A 
ATOM     34  C   UNL     1       4.736   6.333  16.587  0.00  0.00    +0.000 A 
ATOM     35  F   UNL     1       4.150   7.501  16.892  0.00  0.00    +0.000 F 
ENDBRANCH  28  29
ENDBRANCH  27  28
ENDBRANCH   1  19
TORSDOF 6
ENDMDL
