MODEL 1
REMARK VINA RESULT:      -7.3      0.000      0.000
REMARK  Name = 
REMARK  12 active torsions:
REMARK  status: ('A' for Active; 'I' for Inactive)
REMARK    1  A    between atoms: C_1  and  C_2
REMARK    2  A    between atoms: C_2  and  O_3
REMARK    3  A    between atoms: O_3  and  C_4
REMARK    4  A    between atoms: C_4  and  C_6
REMARK    5  A    between atoms: C_6  and  C_7
REMARK    6  A    between atoms: C_6  and  N_20
REMARK    7  A    between atoms: C_7  and  C_8
REMARK    8  A    between atoms: C_13  and  O_15
REMARK    9  A    between atoms: O_15  and  C_16
REMARK   10  A    between atoms: C_16  and  C_17
REMARK   11  A    between atoms: C_16  and  C_18
REMARK   12  A    between atoms: C_16  and  C_19
REMARK                            x       y       z     vdW  Elec       q    Type
REMARK                         _______ _______ _______ _____ _____    ______ ____
ROOT
ATOM      1  C   UNL     1       4.195   5.781  17.271  0.00  0.00    +0.000 A 
ATOM      2  C   UNL     1       3.704   7.068  17.099  0.00  0.00    +0.000 A 
ATOM      3  C   UNL     1       2.984   7.431  18.249  0.00  0.00    +0.000 A 
ATOM      4  C   UNL     1       3.008   6.350  19.092  0.00  0.00    +0.000 A 
ATOM      5  N   UNL     1       3.739   5.312  18.520  0.00  0.00    +0.000 N 
ATOM      6  C   UNL     1       3.935   4.036  19.106  0.00  0.00    +0.000 C 
ATOM      7  O   UNL     1       4.597   3.171  18.551  0.00  0.00    +0.000 OA
ENDROOT
BRANCH   1   8
ATOM      8  C   UNL     1       5.020   4.977  16.287  0.00  0.00    +0.000 C 
BRANCH   8   9
ATOM      9  C   UNL     1       6.215   5.689  15.643  0.00  0.00    +0.000 C 
BRANCH   9  10
ATOM     10  N   UNL     1       7.286   5.912  16.662  0.00  0.00    +0.000 N 
ATOM     11  O   UNL     1       7.725   7.056  16.850  0.00  0.00    +0.000 OA
ATOM     12  O   UNL     1       7.689   4.903  17.262  0.00  0.00    +0.000 OA
ENDBRANCH   9  10
BRANCH   9  13
ATOM     13  C   UNL     1       6.777   4.995  14.435  0.00  0.00    +0.000 C 
ATOM     14  O   UNL     1       7.904   5.182  13.982  0.00  0.00    +0.000 OA
BRANCH  13  15
ATOM     15  O   UNL     1       5.923   4.036  13.968  0.00  0.00    +0.000 OA
BRANCH  15  17
ATOM     16  C   UNL     1       4.909   3.227  11.903  0.00  0.00    +0.000 C 
ATOM     17  C   UNL     1       6.196   3.544  12.645  0.00  0.00    +0.000 C 
ENDBRANCH  15  17
ENDBRANCH  13  15
ENDBRANCH   9  13
ENDBRANCH   8   9
ENDBRANCH   1   8
BRANCH   6  18
ATOM     18  O   UNL     1       3.271   3.936  20.291  0.00  0.00    +0.000 OA
BRANCH  18  19
ATOM     19  C   UNL     1       2.032   3.179  20.343  0.00  0.00    +0.000 C 
ATOM     20  C   UNL     1       2.005   2.101  19.252  0.00  0.00    +0.000 C 
ATOM     21  C   UNL     1       2.022   2.478  21.711  0.00  0.00    +0.000 C 
ATOM     22  C   UNL     1       0.809   4.104  20.277  0.00  0.00    +0.000 C 
ENDBRANCH  18  19
ENDBRANCH   6  18
TORSDOF 8
ENDMDL
MODEL 2
REMARK VINA RESULT:      -6.8      1.271      1.879
REMARK  Name = 
REMARK  12 active torsions:
REMARK  status: ('A' for Active; 'I' for Inactive)
REMARK    1  A    between atoms: C_1  and  C_2
REMARK    2  A    between atoms: C_2  and  O_3
REMARK    3  A    between atoms: O_3  and  C_4
REMARK    4  A    between atoms: C_4  and  C_6
REMARK    5  A    between atoms: C_6  and  C_7
REMARK    6  A    between atoms: C_6  and  N_20
REMARK    7  A    between atoms: C_7  and  C_8
REMARK    8  A    between atoms: C_13  and  O_15
REMARK    9  A    between atoms: O_15  and  C_16
REMARK   10  A    between atoms: C_16  and  C_17
REMARK   11  A    between atoms: C_16  and  C_18
REMARK   12  A    between atoms: C_16  and  C_19
REMARK                            x       y       z     vdW  Elec       q    Type
REMARK                         _______ _______ _______ _____ _____    ______ ____
ROOT
ATOM      1  C   UNL     1       4.716   5.248  16.533  0.00  0.00    +0.000 A 
ATOM      2  C   UNL     1       4.710   6.623  16.341  0.00  0.00    +0.000 A 
ATOM      3  C   UNL     1       4.174   7.234  17.487  0.00  0.00    +0.000 A 
ATOM      4  C   UNL     1       3.822   6.227  18.348  0.00  0.00    +0.000 A 
ATOM      5  N   UNL     1       4.134   4.989  17.791  0.00  0.00    +0.000 N 
ATOM      6  C   UNL     1       3.872   3.735  18.398  0.00  0.00    +0.000 C 
ATOM      7  O   UNL     1       4.180   2.684  17.856  0.00  0.00    +0.000 OA
ENDROOT
BRANCH   1   8
ATOM      8  C   UNL     1       5.195   4.190  15.560  0.00  0.00    +0.000 C 
BRANCH   8   9
ATOM      9  C   UNL     1       5.913   4.684  14.300  0.00  0.00    +0.000 C 
BRANCH   9  10
ATOM     10  N   UNL     1       7.345   4.981  14.611  0.00  0.00    +0.000 N 
ATOM     11  O   UNL     1       7.828   4.609  15.690  0.00  0.00    +0.000 OA
ATOM     12  O   UNL     1       7.971   5.614  13.746  0.00  0.00    +0.000 OA
ENDBRANCH   9  10
BRANCH   9  13
ATOM     13  C   UNL     1       5.813   3.758  13.121  0.00  0.00    +0.000 C 
ATOM     14  O   UNL     1       6.626   2.875  12.855  0.00  0.00    +0.000 OA
BRANCH  13  15
ATOM     15  O   UNL     1       4.639   3.937  12.445  0.00  0.00    +0.000 OA
BRANCH  15  17
ATOM     16  C   UNL     1       3.347   3.561  10.410  0.00  0.00    +0.000 C 
ATOM     17  C   UNL     1       4.388   3.013  11.372  0.00  0.00    +0.000 C 
ENDBRANCH  15  17
ENDBRANCH  13  15
ENDBRANCH   9  13
ENDBRANCH   8   9
ENDBRANCH   1   8
BRANCH   6  18
ATOM     18  O   UNL     1       3.226   3.894  19.586  0.00  0.00    +0.000 OA
BRANCH  18  19
ATOM     19  C   UNL     1       1.814   3.560  19.671  0.00  0.00    +0.000 C 
ATOM     20  C   UNL     1       1.614   2.196  20.341  0.00  0.00    +0.000 C 
ATOM     21  C   UNL     1       1.179   4.635  20.570  0.00  0.00    +0.000 C 
ATOM     22  C   UNL     1       1.139   3.637  18.295  0.00  0.00    +0.000 C 
ENDBRANCH  18  19
ENDBRANCH   6  18
TORSDOF 8
ENDMDL
MODEL 3
REMARK VINA RESULT:      -6.7      1.427      1.906
REMARK  Name = 
REMARK  12 active torsions:
REMARK  status: ('A' for Active; 'I' for Inactive)
REMARK    1  A    between atoms: C_1  and  C_2
REMARK    2  A    between atoms: C_2  and  O_3
REMARK    3  A    between atoms: O_3  and  C_4
REMARK    4  A    between atoms: C_4  and  C_6
REMARK    5  A    between atoms: C_6  and  C_7
REMARK    6  A    between atoms: C_6  and  N_20
REMARK    7  A    between atoms: C_7  and  C_8
REMARK    8  A    between atoms: C_13  and  O_15
REMARK    9  A    between atoms: O_15  and  C_16
REMARK   10  A    between atoms: C_16  and  C_17
REMARK   11  A    between atoms: C_16  and  C_18
REMARK   12  A    between atoms: C_16  and  C_19
REMARK                            x       y       z     vdW  Elec       q    Type
REMARK                         _______ _______ _______ _____ _____    ______ ____
ROOT
ATOM      1  C   UNL     1       4.552   5.279  16.488  0.00  0.00    +0.000 A 
ATOM      2  C   UNL     1       4.781   6.647  16.488  0.00  0.00    +0.000 A 
ATOM      3  C   UNL     1       3.990   7.236  17.488  0.00  0.00    +0.000 A 
ATOM      4  C   UNL     1       3.257   6.228  18.060  0.00  0.00    +0.000 A 
ATOM      5  N   UNL     1       3.571   5.009  17.464  0.00  0.00    +0.000 N 
ATOM      6  C   UNL     1       2.972   3.767  17.791  0.00  0.00    +0.000 C 
ATOM      7  O   UNL     1       3.301   2.731  17.232  0.00  0.00    +0.000 OA
ENDROOT
BRANCH   1   8
ATOM      8  C   UNL     1       5.178   4.245  15.575  0.00  0.00    +0.000 C 
BRANCH   8   9
ATOM      9  C   UNL     1       5.992   4.774  14.388  0.00  0.00    +0.000 C 
BRANCH   9  10
ATOM     10  N   UNL     1       7.410   5.005  14.803  0.00  0.00    +0.000 N 
ATOM     11  O   UNL     1       8.158   5.677  14.080  0.00  0.00    +0.000 OA
ATOM     12  O   UNL     1       7.758   4.478  15.872  0.00  0.00    +0.000 OA
ENDBRANCH   9  10
BRANCH   9  13
ATOM     13  C   UNL     1       5.938   3.909  13.161  0.00  0.00    +0.000 C 
ATOM     14  O   UNL     1       6.920   3.418  12.607  0.00  0.00    +0.000 OA
BRANCH  13  15
ATOM     15  O   UNL     1       4.649   3.633  12.801  0.00  0.00    +0.000 OA
BRANCH  15  17
ATOM     16  C   UNL     1       3.626   3.739  10.589  0.00  0.00    +0.000 C 
ATOM     17  C   UNL     1       4.482   2.936  11.555  0.00  0.00    +0.000 C 
ENDBRANCH  15  17
ENDBRANCH  13  15
ENDBRANCH   9  13
ENDBRANCH   8   9
ENDBRANCH   1   8
BRANCH   6  18
ATOM     18  O   UNL     1       2.005   3.924  18.737  0.00  0.00    +0.000 OA
BRANCH  18  19
ATOM     19  C   UNL     1       2.292   3.543  20.109  0.00  0.00    +0.000 C 
ATOM     20  C   UNL     1       2.254   4.765  21.034  0.00  0.00    +0.000 C 
ATOM     21  C   UNL     1       1.162   2.588  20.528  0.00  0.00    +0.000 C 
ATOM     22  C   UNL     1       3.619   2.778  20.210  0.00  0.00    +0.000 C 
ENDBRANCH  18  19
ENDBRANCH   6  18
TORSDOF 8
ENDMDL
MODEL 4
REMARK VINA RESULT:      -6.7      2.140      3.252
REMARK  Name = 
REMARK  12 active torsions:
REMARK  status: ('A' for Active; 'I' for Inactive)
REMARK    1  A    between atoms: C_1  and  C_2
REMARK    2  A    between atoms: C_2  and  O_3
REMARK    3  A    between atoms: O_3  and  C_4
REMARK    4  A    between atoms: C_4  and  C_6
REMARK    5  A    between atoms: C_6  and  C_7
REMARK    6  A    between atoms: C_6  and  N_20
REMARK    7  A    between atoms: C_7  and  C_8
REMARK    8  A    between atoms: C_13  and  O_15
REMARK    9  A    between atoms: O_15  and  C_16
REMARK   10  A    between atoms: C_16  and  C_17
REMARK   11  A    between atoms: C_16  and  C_18
REMARK   12  A    between atoms: C_16  and  C_19
REMARK                            x       y       z     vdW  Elec       q    Type
REMARK                         _______ _______ _______ _____ _____    ______ ____
ROOT
ATOM      1  C   UNL     1       4.046   6.293  18.120  0.00  0.00    +0.000 A 
ATOM      2  C   UNL     1       3.403   7.479  17.795  0.00  0.00    +0.000 A 
ATOM      3  C   UNL     1       2.350   7.683  18.702  0.00  0.00    +0.000 A 
ATOM      4  C   UNL     1       2.335   6.602  19.544  0.00  0.00    +0.000 A 
ATOM      5  N   UNL     1       3.361   5.721  19.212  0.00  0.00    +0.000 N 
ATOM      6  C   UNL     1       3.611   4.484  19.858  0.00  0.00    +0.000 C 
ATOM      7  O   UNL     1       4.536   3.760  19.520  0.00  0.00    +0.000 OA
ENDROOT
BRANCH   1   8
ATOM      8  C   UNL     1       5.230   5.668  17.412  0.00  0.00    +0.000 C 
BRANCH   8   9
ATOM      9  C   UNL     1       6.616   6.214  17.770  0.00  0.00    +0.000 C 
BRANCH   9  10
ATOM     10  N   UNL     1       7.316   5.266  18.690  0.00  0.00    +0.000 N 
ATOM     11  O   UNL     1       7.286   5.463  19.913  0.00  0.00    +0.000 OA
ATOM     12  O   UNL     1       7.914   4.322  18.149  0.00  0.00    +0.000 OA
ENDBRANCH   9  10
BRANCH   9  13
ATOM     13  C   UNL     1       7.485   6.536  16.587  0.00  0.00    +0.000 C 
ATOM     14  O   UNL     1       7.509   5.891  15.541  0.00  0.00    +0.000 OA
BRANCH  13  15
ATOM     15  O   UNL     1       8.160   7.710  16.769  0.00  0.00    +0.000 OA
BRANCH  15  17
ATOM     16  C   UNL     1       8.626   9.428  18.436  0.00  0.00    +0.000 C 
ATOM     17  C   UNL     1       7.563   8.639  17.690  0.00  0.00    +0.000 C 
ENDBRANCH  15  17
ENDBRANCH  13  15
ENDBRANCH   9  13
ENDBRANCH   8   9
ENDBRANCH   1   8
BRANCH   6  18
ATOM     18  O   UNL     1       2.682   4.241  20.823  0.00  0.00    +0.000 OA
BRANCH  18  19
ATOM     19  C   UNL     1       1.741   3.150  20.638  0.00  0.00    +0.000 C 
ATOM     20  C   UNL     1       0.445   3.650  19.989  0.00  0.00    +0.000 C 
ATOM     21  C   UNL     1       2.417   2.168  19.666  0.00  0.00    +0.000 C 
ATOM     22  C   UNL     1       1.482   2.406  21.956  0.00  0.00    +0.000 C 
ENDBRANCH  18  19
ENDBRANCH   6  18
TORSDOF 8
ENDMDL
MODEL 5
REMARK VINA RESULT:      -6.7      2.412      3.626
REMARK  Name = 
REMARK  12 active torsions:
REMARK  status: ('A' for Active; 'I' for Inactive)
REMARK    1  A    between atoms: C_1  and  C_2
REMARK    2  A    between atoms: C_2  and  O_3
REMARK    3  A    between atoms: O_3  and  C_4
REMARK    4  A    between atoms: C_4  and  C_6
REMARK    5  A    between atoms: C_6  and  C_7
REMARK    6  A    between atoms: C_6  and  N_20
REMARK    7  A    between atoms: C_7  and  C_8
REMARK    8  A    between atoms: C_13  and  O_15
REMARK    9  A    between atoms: O_15  and  C_16
REMARK   10  A    between atoms: C_16  and  C_17
REMARK   11  A    between atoms: C_16  and  C_18
REMARK   12  A    between atoms: C_16  and  C_19
REMARK                            x       y       z     vdW  Elec       q    Type
REMARK                         _______ _______ _______ _____ _____    ______ ____
ROOT
ATOM      1  C   UNL     1       4.473   6.215  17.965  0.00  0.00    +0.000 A 
ATOM      2  C   UNL     1       3.818   7.290  17.381  0.00  0.00    +0.000 A 
ATOM      3  C   UNL     1       2.598   7.489  18.048  0.00  0.00    +0.000 A 
ATOM      4  C   UNL     1       2.503   6.510  19.003  0.00  0.00    +0.000 A 
ATOM      5  N   UNL     1       3.637   5.702  18.977  0.00  0.00    +0.000 N 
ATOM      6  C   UNL     1       3.850   4.573  19.807  0.00  0.00    +0.000 C 
ATOM      7  O   UNL     1       4.875   3.911  19.737  0.00  0.00    +0.000 OA
ENDROOT
BRANCH   1   8
ATOM      8  C   UNL     1       5.815   5.636  17.567  0.00  0.00    +0.000 C 
BRANCH   8   9
ATOM      9  C   UNL     1       7.047   6.179  18.300  0.00  0.00    +0.000 C 
BRANCH   9  10
ATOM     10  N   UNL     1       7.971   5.056  18.648  0.00  0.00    +0.000 N 
ATOM     11  O   UNL     1       8.232   4.192  17.799  0.00  0.00    +0.000 OA
ATOM     12  O   UNL     1       8.417   5.055  19.806  0.00  0.00    +0.000 OA
ENDBRANCH   9  10
BRANCH   9  13
ATOM     13  C   UNL     1       7.787   7.258  17.562  0.00  0.00    +0.000 C 
ATOM     14  O   UNL     1       7.865   7.341  16.338  0.00  0.00    +0.000 OA
BRANCH  13  15
ATOM     15  O   UNL     1       8.264   8.210  18.418  0.00  0.00    +0.000 OA
BRANCH  15  17
ATOM     16  C   UNL     1       9.302  10.417  18.440  0.00  0.00    +0.000 C 
ATOM     17  C   UNL     1       8.126   9.572  17.979  0.00  0.00    +0.000 C 
ENDBRANCH  15  17
ENDBRANCH  13  15
ENDBRANCH   9  13
ENDBRANCH   8   9
ENDBRANCH   1   8
BRANCH   6  18
ATOM     18  O   UNL     1       2.774   4.347  20.611  0.00  0.00    +0.000 OA
BRANCH  18  19
ATOM     19  C   UNL     1       1.934   3.190  20.355  0.00  0.00    +0.000 C 
ATOM     20  C   UNL     1       2.590   2.254  19.333  0.00  0.00    +0.000 C 
ATOM     21  C   UNL     1       1.828   2.441  21.694  0.00  0.00    +0.000 C 
ATOM     22  C   UNL     1       0.519   3.609  19.935  0.00  0.00    +0.000 C 
ENDBRANCH  18  19
ENDBRANCH   6  18
TORSDOF 8
ENDMDL
MODEL 6
REMARK VINA RESULT:      -6.7      1.276      1.835
REMARK  Name = 
REMARK  12 active torsions:
REMARK  status: ('A' for Active; 'I' for Inactive)
REMARK    1  A    between atoms: C_1  and  C_2
REMARK    2  A    between atoms: C_2  and  O_3
REMARK    3  A    between atoms: O_3  and  C_4
REMARK    4  A    between atoms: C_4  and  C_6
REMARK    5  A    between atoms: C_6  and  C_7
REMARK    6  A    between atoms: C_6  and  N_20
REMARK    7  A    between atoms: C_7  and  C_8
REMARK    8  A    between atoms: C_13  and  O_15
REMARK    9  A    between atoms: O_15  and  C_16
REMARK   10  A    between atoms: C_16  and  C_17
REMARK   11  A    between atoms: C_16  and  C_18
REMARK   12  A    between atoms: C_16  and  C_19
REMARK                            x       y       z     vdW  Elec       q    Type
REMARK                         _______ _______ _______ _____ _____    ______ ____
ROOT
ATOM      1  C   UNL     1       4.725   5.207  16.485  0.00  0.00    +0.000 A 
ATOM      2  C   UNL     1       4.693   6.583  16.309  0.00  0.00    +0.000 A 
ATOM      3  C   UNL     1       4.135   7.170  17.456  0.00  0.00    +0.000 A 
ATOM      4  C   UNL     1       3.796   6.147  18.303  0.00  0.00    +0.000 A 
ATOM      5  N   UNL     1       4.137   4.922  17.735  0.00  0.00    +0.000 N 
ATOM      6  C   UNL     1       3.894   3.656  18.326  0.00  0.00    +0.000 C 
ATOM      7  O   UNL     1       4.228   2.618  17.775  0.00  0.00    +0.000 OA
ENDROOT
BRANCH   1   8
ATOM      8  C   UNL     1       5.234   4.169  15.506  0.00  0.00    +0.000 C 
BRANCH   8   9
ATOM      9  C   UNL     1       5.979   4.690  14.273  0.00  0.00    +0.000 C 
BRANCH   9  10
ATOM     10  N   UNL     1       7.400   4.993  14.625  0.00  0.00    +0.000 N 
ATOM     11  O   UNL     1       7.865   4.589  15.700  0.00  0.00    +0.000 OA
ATOM     12  O   UNL     1       8.037   5.665  13.797  0.00  0.00    +0.000 OA
ENDBRANCH   9  10
BRANCH   9  13
ATOM     13  C   UNL     1       5.917   3.783  13.077  0.00  0.00    +0.000 C 
ATOM     14  O   UNL     1       6.855   3.103  12.664  0.00  0.00    +0.000 OA
BRANCH  13  15
ATOM     15  O   UNL     1       4.650   3.712  12.571  0.00  0.00    +0.000 OA
BRANCH  15  17
ATOM     16  C   UNL     1       3.358   3.489  10.513  0.00  0.00    +0.000 C 
ATOM     17  C   UNL     1       4.501   2.953  11.359  0.00  0.00    +0.000 C 
ENDBRANCH  15  17
ENDBRANCH  13  15
ENDBRANCH   9  13
ENDBRANCH   8   9
ENDBRANCH   1   8
BRANCH   6  18
ATOM     18  O   UNL     1       3.234   3.788  19.509  0.00  0.00    +0.000 OA
BRANCH  18  19
ATOM     19  C   UNL     1       1.883   3.267  19.625  0.00  0.00    +0.000 C 
ATOM     20  C   UNL     1       1.021   3.713  18.437  0.00  0.00    +0.000 C 
ATOM     21  C   UNL     1       2.014   1.736  19.575  0.00  0.00    +0.000 C 
ATOM     22  C   UNL     1       1.253   3.643  20.974  0.00  0.00    +0.000 C 
ENDBRANCH  18  19
ENDBRANCH   6  18
TORSDOF 8
ENDMDL
MODEL 7
REMARK VINA RESULT:      -6.6      0.889      1.265
REMARK  Name = 
REMARK  12 active torsions:
REMARK  status: ('A' for Active; 'I' for Inactive)
REMARK    1  A    between atoms: C_1  and  C_2
REMARK    2  A    between atoms: C_2  and  O_3
REMARK    3  A    between atoms: O_3  and  C_4
REMARK    4  A    between atoms: C_4  and  C_6
REMARK    5  A    between atoms: C_6  and  C_7
REMARK    6  A    between atoms: C_6  and  N_20
REMARK    7  A    between atoms: C_7  and  C_8
REMARK    8  A    between atoms: C_13  and  O_15
REMARK    9  A    between atoms: O_15  and  C_16
REMARK   10  A    between atoms: C_16  and  C_17
REMARK   11  A    between atoms: C_16  and  C_18
REMARK   12  A    between atoms: C_16  and  C_19
REMARK                            x       y       z     vdW  Elec       q    Type
REMARK                         _______ _______ _______ _____ _____    ______ ____
ROOT
ATOM      1  C   UNL     1       4.001   6.084  17.499  0.00  0.00    +0.000 A 
ATOM      2  C   UNL     1       3.427   7.339  17.353  0.00  0.00    +0.000 A 
ATOM      3  C   UNL     1       2.659   7.618  18.496  0.00  0.00    +0.000 A 
ATOM      4  C   UNL     1       2.740   6.517  19.308  0.00  0.00    +0.000 A 
ATOM      5  N   UNL     1       3.552   5.548  18.724  0.00  0.00    +0.000 N 
ATOM      6  C   UNL     1       3.823   4.272  19.278  0.00  0.00    +0.000 C 
ATOM      7  O   UNL     1       4.554   3.471  18.714  0.00  0.00    +0.000 OA
ENDROOT
BRANCH   1   8
ATOM      8  C   UNL     1       4.900   5.368  16.513  0.00  0.00    +0.000 C 
BRANCH   8   9
ATOM      9  C   UNL     1       6.258   6.015  16.219  0.00  0.00    +0.000 C 
BRANCH   9  10
ATOM     10  N   UNL     1       6.773   6.702  17.443  0.00  0.00    +0.000 N 
ATOM     11  O   UNL     1       6.876   6.069  18.503  0.00  0.00    +0.000 OA
ATOM     12  O   UNL     1       7.058   7.903  17.316  0.00  0.00    +0.000 OA
ENDBRANCH   9  10
BRANCH   9  13
ATOM     13  C   UNL     1       7.292   5.073  15.671  0.00  0.00    +0.000 C 
ATOM     14  O   UNL     1       7.942   4.278  16.347  0.00  0.00    +0.000 OA
BRANCH  13  15
ATOM     15  O   UNL     1       7.337   5.121  14.306  0.00  0.00    +0.000 OA
BRANCH  15  17
ATOM     16  C   UNL     1       6.996   4.012  12.161  0.00  0.00    +0.000 C 
ATOM     17  C   UNL     1       6.577   4.113  13.618  0.00  0.00    +0.000 C 
ENDBRANCH  15  17
ENDBRANCH  13  15
ENDBRANCH   9  13
ENDBRANCH   8   9
ENDBRANCH   1   8
BRANCH   6  18
ATOM     18  O   UNL     1       3.142   4.091  20.443  0.00  0.00    +0.000 OA
BRANCH  18  19
ATOM     19  C   UNL     1       1.982   3.217  20.455  0.00  0.00    +0.000 C 
ATOM     20  C   UNL     1       2.091   2.151  19.358  0.00  0.00    +0.000 C 
ATOM     21  C   UNL     1       2.000   2.507  21.818  0.00  0.00    +0.000 C 
ATOM     22  C   UNL     1       0.677   4.020  20.358  0.00  0.00    +0.000 C 
ENDBRANCH  18  19
ENDBRANCH   6  18
TORSDOF 8
ENDMDL
MODEL 8
REMARK VINA RESULT:      -6.6      2.518      3.966
REMARK  Name = 
REMARK  12 active torsions:
REMARK  status: ('A' for Active; 'I' for Inactive)
REMARK    1  A    between atoms: C_1  and  C_2
REMARK    2  A    between atoms: C_2  and  O_3
REMARK    3  A    between atoms: O_3  and  C_4
REMARK    4  A    between atoms: C_4  and  C_6
REMARK    5  A    between atoms: C_6  and  C_7
REMARK    6  A    between atoms: C_6  and  N_20
REMARK    7  A    between atoms: C_7  and  C_8
REMARK    8  A    between atoms: C_13  and  O_15
REMARK    9  A    between atoms: O_15  and  C_16
REMARK   10  A    between atoms: C_16  and  C_17
REMARK   11  A    between atoms: C_16  and  C_18
REMARK   12  A    between atoms: C_16  and  C_19
REMARK                            x       y       z     vdW  Elec       q    Type
REMARK                         _______ _______ _______ _____ _____    ______ ____
ROOT
ATOM      1  C   UNL     1       4.360   6.409  17.653  0.00  0.00    +0.000 A 
ATOM      2  C   UNL     1       3.907   7.721  17.639  0.00  0.00    +0.000 A 
ATOM      3  C   UNL     1       2.531   7.724  17.920  0.00  0.00    +0.000 A 
ATOM      4  C   UNL     1       2.151   6.415  18.063  0.00  0.00    +0.000 A 
ATOM      5  N   UNL     1       3.249   5.575  17.898  0.00  0.00    +0.000 N 
ATOM      6  C   UNL     1       3.205   4.159  17.946  0.00  0.00    +0.000 C 
ATOM      7  O   UNL     1       4.212   3.482  17.800  0.00  0.00    +0.000 OA
ENDROOT
BRANCH   1   8
ATOM      8  C   UNL     1       5.772   5.925  17.393  0.00  0.00    +0.000 C 
BRANCH   8   9
ATOM      9  C   UNL     1       6.863   6.437  18.339  0.00  0.00    +0.000 C 
BRANCH   9  10
ATOM     10  N   UNL     1       7.580   5.284  18.964  0.00  0.00    +0.000 N 
ATOM     11  O   UNL     1       7.989   4.357  18.251  0.00  0.00    +0.000 OA
ATOM     12  O   UNL     1       7.709   5.325  20.198  0.00  0.00    +0.000 OA
ENDBRANCH   9  10
BRANCH   9  13
ATOM     13  C   UNL     1       7.843   7.384  17.706  0.00  0.00    +0.000 C 
ATOM     14  O   UNL     1       8.016   7.506  16.495  0.00  0.00    +0.000 OA
BRANCH  13  15
ATOM     15  O   UNL     1       8.436   8.185  18.641  0.00  0.00    +0.000 OA
BRANCH  15  17
ATOM     16  C   UNL     1       9.321  10.344  19.354  0.00  0.00    +0.000 C 
ATOM     17  C   UNL     1       8.563   9.573  18.286  0.00  0.00    +0.000 C 
ENDBRANCH  15  17
ENDBRANCH  13  15
ENDBRANCH   9  13
ENDBRANCH   8   9
ENDBRANCH   1   8
BRANCH   6  18
ATOM     18  O   UNL     1       1.931   3.716  18.129  0.00  0.00    +0.000 OA
BRANCH  18  19
ATOM     19  C   UNL     1       1.570   3.109  19.399  0.00  0.00    +0.000 C 
ATOM     20  C   UNL     1       0.907   4.134  20.326  0.00  0.00    +0.000 C 
ATOM     21  C   UNL     1       0.535   2.020  19.068  0.00  0.00    +0.000 C 
ATOM     22  C   UNL     1       2.779   2.427  20.055  0.00  0.00    +0.000 C 
ENDBRANCH  18  19
ENDBRANCH   6  18
TORSDOF 8
ENDMDL
MODEL 9
REMARK VINA RESULT:      -6.5      1.033      1.430
REMARK  Name = 
REMARK  12 active torsions:
REMARK  status: ('A' for Active; 'I' for Inactive)
REMARK    1  A    between atoms: C_1  and  C_2
REMARK    2  A    between atoms: C_2  and  O_3
REMARK    3  A    between atoms: O_3  and  C_4
REMARK    4  A    between atoms: C_4  and  C_6
REMARK    5  A    between atoms: C_6  and  C_7
REMARK    6  A    between atoms: C_6  and  N_20
REMARK    7  A    between atoms: C_7  and  C_8
REMARK    8  A    between atoms: C_13  and  O_15
REMARK    9  A    between atoms: O_15  and  C_16
REMARK   10  A    between atoms: C_16  and  C_17
REMARK   11  A    between atoms: C_16  and  C_18
REMARK   12  A    between atoms: C_16  and  C_19
REMARK                            x       y       z     vdW  Elec       q    Type
REMARK                         _______ _______ _______ _____ _____    ______ ____
ROOT
ATOM      1  C   UNL     1       4.469   6.448  17.867  0.00  0.00    +0.000 A 
ATOM      2  C   UNL     1       3.781   7.516  17.310  0.00  0.00    +0.000 A 
ATOM      3  C   UNL     1       2.569   7.679  18.000  0.00  0.00    +0.000 A 
ATOM      4  C   UNL     1       2.511   6.686  18.943  0.00  0.00    +0.000 A 
ATOM      5  N   UNL     1       3.661   5.903  18.886  0.00  0.00    +0.000 N 
ATOM      6  C   UNL     1       3.914   4.768  19.697  0.00  0.00    +0.000 C 
ATOM      7  O   UNL     1       4.951   4.129  19.600  0.00  0.00    +0.000 OA
ENDROOT
BRANCH   1   8
ATOM      8  C   UNL     1       5.816   5.903  17.439  0.00  0.00    +0.000 C 
BRANCH   8   9
ATOM      9  C   UNL     1       5.968   5.517  15.964  0.00  0.00    +0.000 C 
BRANCH   9  10
ATOM     10  N   UNL     1       7.400   5.210  15.661  0.00  0.00    +0.000 N 
ATOM     11  O   UNL     1       7.921   5.666  14.634  0.00  0.00    +0.000 OA
ATOM     12  O   UNL     1       7.986   4.481  16.478  0.00  0.00    +0.000 OA
ENDBRANCH   9  10
BRANCH   9  13
ATOM     13  C   UNL     1       5.084   4.386  15.521  0.00  0.00    +0.000 C 
ATOM     14  O   UNL     1       4.546   3.580  16.278  0.00  0.00    +0.000 OA
BRANCH  13  15
ATOM     15  O   UNL     1       4.849   4.434  14.176  0.00  0.00    +0.000 OA
BRANCH  15  17
ATOM     16  C   UNL     1       5.013   3.287  12.029  0.00  0.00    +0.000 C 
ATOM     17  C   UNL     1       5.674   3.580  13.365  0.00  0.00    +0.000 C 
ENDBRANCH  15  17
ENDBRANCH  13  15
ENDBRANCH   9  13
ENDBRANCH   8   9
ENDBRANCH   1   8
BRANCH   6  18
ATOM     18  O   UNL     1       2.857   4.508  20.516  0.00  0.00    +0.000 OA
BRANCH  18  19
ATOM     19  C   UNL     1       2.105   3.279  20.328  0.00  0.00    +0.000 C 
ATOM     20  C   UNL     1       2.791   2.370  19.301  0.00  0.00    +0.000 C 
ATOM     21  C   UNL     1       2.119   2.563  21.689  0.00  0.00    +0.000 C 
ATOM     22  C   UNL     1       0.643   3.570  19.962  0.00  0.00    +0.000 C 
ENDBRANCH  18  19
ENDBRANCH   6  18
TORSDOF 8
ENDMDL
