MODEL 1
REMARK VINA RESULT:      -7.3      0.000      0.000
REMARK  Name = 
REMARK  2 active torsions:
REMARK  status: ('A' for Active; 'I' for Inactive)
REMARK    1  A    between atoms: C_2  and  C_3
REMARK    2  A    between atoms: C_3  and  N_4
REMARK                            x       y       z     vdW  Elec       q    Type
REMARK                         _______ _______ _______ _____ _____    ______ ____
ROOT
ATOM      1  N   UNL     1       5.011   5.269  18.279  0.00  0.00    +0.000 NA
ATOM      2  C   UNL     1       3.790   5.949  18.733  0.00  0.00    +0.000 C 
ATOM      3  C   UNL     1       2.494   5.863  17.907  0.00  0.00    +0.000 C 
ATOM      4  C   UNL     1       1.792   4.502  17.886  0.00  0.00    +0.000 C 
ATOM      5  C   UNL     1       2.550   3.524  16.987  0.00  0.00    +0.000 C 
ATOM      6  C   UNL     1       3.684   2.989  17.864  0.00  0.00    +0.000 C 
ATOM      7  C   UNL     1       4.946   3.866  17.807  0.00  0.00    +0.000 C 
ATOM      8  C   UNL     1       3.021   2.957  19.213  0.00  0.00    +0.000 A 
ATOM      9  C   UNL     1       3.440   2.318  20.367  0.00  0.00    +0.000 A 
ATOM     10  C   UNL     1       2.710   2.534  21.536  0.00  0.00    +0.000 A 
ATOM     11  C   UNL     1       1.578   3.367  21.535  0.00  0.00    +0.000 A 
ATOM     12  C   UNL     1       1.159   4.006  20.365  0.00  0.00    +0.000 A 
ATOM     13  C   UNL     1       1.896   3.795  19.213  0.00  0.00    +0.000 A 
ENDROOT
BRANCH   1  14
ATOM     14  C   UNL     1       6.058   5.377  19.321  0.00  0.00    +0.000 C 
BRANCH  14  16
ATOM     15  C   UNL     1       7.515   6.797  17.841  0.00  0.00    +0.000 C 
ATOM     16  C   UNL     1       7.378   5.864  18.793  0.00  0.00    +0.000 C 
ENDBRANCH  14  16
ENDBRANCH   1  14
TORSDOF 2
ENDMDL
MODEL 2
REMARK VINA RESULT:      -6.9      2.214      3.734
REMARK  Name = 
REMARK  2 active torsions:
REMARK  status: ('A' for Active; 'I' for Inactive)
REMARK    1  A    between atoms: C_2  and  C_3
REMARK    2  A    between atoms: C_3  and  N_4
REMARK                            x       y       z     vdW  Elec       q    Type
REMARK                         _______ _______ _______ _____ _____    ______ ____
ROOT
ATOM      1  N   UNL     1       6.532   5.150  16.305  0.00  0.00    +0.000 NA
ATOM      2  C   UNL     1       6.892   4.590  17.615  0.00  0.00    +0.000 C 
ATOM      3  C   UNL     1       6.575   5.361  18.909  0.00  0.00    +0.000 C 
ATOM      4  C   UNL     1       5.096   5.458  19.296  0.00  0.00    +0.000 C 
ATOM      5  C   UNL     1       4.372   6.463  18.399  0.00  0.00    +0.000 C 
ATOM      6  C   UNL     1       4.047   5.681  17.124  0.00  0.00    +0.000 C 
ATOM      7  C   UNL     1       5.185   5.726  16.090  0.00  0.00    +0.000 C 
ATOM      8  C   UNL     1       3.779   4.311  17.681  0.00  0.00    +0.000 A 
ATOM      9  C   UNL     1       3.175   3.230  17.063  0.00  0.00    +0.000 A 
ATOM     10  C   UNL     1       3.145   2.016  17.750  0.00  0.00    +0.000 A 
ATOM     11  C   UNL     1       3.704   1.901  19.035  0.00  0.00    +0.000 A 
ATOM     12  C   UNL     1       4.309   2.998  19.654  0.00  0.00    +0.000 A 
ATOM     13  C   UNL     1       4.344   4.195  18.960  0.00  0.00    +0.000 A 
ENDROOT
BRANCH   1  14
ATOM     14  C   UNL     1       6.802   4.150  15.246  0.00  0.00    +0.000 C 
BRANCH  14  16
ATOM     15  C   UNL     1       5.982   3.666  12.918  0.00  0.00    +0.000 C 
ATOM     16  C   UNL     1       5.774   4.149  14.150  0.00  0.00    +0.000 C 
ENDBRANCH  14  16
ENDBRANCH   1  14
TORSDOF 2
ENDMDL
MODEL 3
REMARK VINA RESULT:      -6.6      2.763      4.516
REMARK  Name = 
REMARK  2 active torsions:
REMARK  status: ('A' for Active; 'I' for Inactive)
REMARK    1  A    between atoms: C_2  and  C_3
REMARK    2  A    between atoms: C_3  and  N_4
REMARK                            x       y       z     vdW  Elec       q    Type
REMARK                         _______ _______ _______ _____ _____    ______ ____
ROOT
ATOM      1  N   UNL     1       6.154   5.001  15.104  0.00  0.00    +0.000 NA
ATOM      2  C   UNL     1       6.720   4.112  16.129  0.00  0.00    +0.000 C 
ATOM      3  C   UNL     1       7.451   4.694  17.351  0.00  0.00    +0.000 C 
ATOM      4  C   UNL     1       6.580   5.415  18.383  0.00  0.00    +0.000 C 
ATOM      5  C   UNL     1       6.154   6.788  17.858  0.00  0.00    +0.000 C 
ATOM      6  C   UNL     1       4.950   6.502  16.956  0.00  0.00    +0.000 C 
ATOM      7  C   UNL     1       5.354   6.181  15.507  0.00  0.00    +0.000 C 
ATOM      8  C   UNL     1       4.307   5.353  17.682  0.00  0.00    +0.000 A 
ATOM      9  C   UNL     1       3.039   4.825  17.512  0.00  0.00    +0.000 A 
ATOM     10  C   UNL     1       2.709   3.673  18.227  0.00  0.00    +0.000 A 
ATOM     11  C   UNL     1       3.636   3.076  19.099  0.00  0.00    +0.000 A 
ATOM     12  C   UNL     1       4.913   3.617  19.267  0.00  0.00    +0.000 A 
ATOM     13  C   UNL     1       5.235   4.752  18.546  0.00  0.00    +0.000 A 
ENDROOT
BRANCH   1  14
ATOM     14  C   UNL     1       5.377   4.204  14.128  0.00  0.00    +0.000 C 
BRANCH  14  16
ATOM     15  C   UNL     1       5.720   2.968  11.964  0.00  0.00    +0.000 C 
ATOM     16  C   UNL     1       6.205   3.683  12.988  0.00  0.00    +0.000 C 
ENDBRANCH  14  16
ENDBRANCH   1  14
TORSDOF 2
ENDMDL
MODEL 4
REMARK VINA RESULT:      -6.4      1.009      1.025
REMARK  Name = 
REMARK  2 active torsions:
REMARK  status: ('A' for Active; 'I' for Inactive)
REMARK    1  A    between atoms: C_2  and  C_3
REMARK    2  A    between atoms: C_3  and  N_4
REMARK                            x       y       z     vdW  Elec       q    Type
REMARK                         _______ _______ _______ _____ _____    ______ ____
ROOT
ATOM      1  N   UNL     1       4.828   4.899  17.632  0.00  0.00    +0.000 NA
ATOM      2  C   UNL     1       4.059   5.810  18.491  0.00  0.00    +0.000 C 
ATOM      3  C   UNL     1       2.608   6.181  18.136  0.00  0.00    +0.000 C 
ATOM      4  C   UNL     1       1.567   5.069  18.293  0.00  0.00    +0.000 C 
ATOM      5  C   UNL     1       1.693   4.053  17.156  0.00  0.00    +0.000 C 
ATOM      6  C   UNL     1       2.832   3.126  17.588  0.00  0.00    +0.000 C 
ATOM      7  C   UNL     1       4.215   3.639  17.152  0.00  0.00    +0.000 C 
ATOM      8  C   UNL     1       2.632   3.091  19.077  0.00  0.00    +0.000 A 
ATOM      9  C   UNL     1       3.177   2.217  20.001  0.00  0.00    +0.000 A 
ATOM     10  C   UNL     1       2.935   2.460  21.354  0.00  0.00    +0.000 A 
ATOM     11  C   UNL     1       2.153   3.556  21.760  0.00  0.00    +0.000 A 
ATOM     12  C   UNL     1       1.603   4.431  20.820  0.00  0.00    +0.000 A 
ATOM     13  C   UNL     1       1.858   4.189  19.482  0.00  0.00    +0.000 A 
ENDROOT
BRANCH   1  14
ATOM     14  C   UNL     1       6.126   4.588  18.273  0.00  0.00    +0.000 C 
BRANCH  14  16
ATOM     15  C   UNL     1       7.281   5.259  16.141  0.00  0.00    +0.000 C 
ATOM     16  C   UNL     1       7.287   4.622  17.320  0.00  0.00    +0.000 C 
ENDBRANCH  14  16
ENDBRANCH   1  14
TORSDOF 2
ENDMDL
MODEL 5
REMARK VINA RESULT:      -6.4      1.809      3.458
REMARK  Name = 
REMARK  2 active torsions:
REMARK  status: ('A' for Active; 'I' for Inactive)
REMARK    1  A    between atoms: C_2  and  C_3
REMARK    2  A    between atoms: C_3  and  N_4
REMARK                            x       y       z     vdW  Elec       q    Type
REMARK                         _______ _______ _______ _____ _____    ______ ____
ROOT
ATOM      1  N   UNL     1       5.269   6.209  16.864  0.00  0.00    +0.000 NA
ATOM      2  C   UNL     1       5.963   5.245  17.730  0.00  0.00    +0.000 C 
ATOM      3  C   UNL     1       5.849   5.345  19.261  0.00  0.00    +0.000 C 
ATOM      4  C   UNL     1       4.488   4.988  19.865  0.00  0.00    +0.000 C 
ATOM      5  C   UNL     1       3.480   6.112  19.614  0.00  0.00    +0.000 C 
ATOM      6  C   UNL     1       2.976   5.870  18.189  0.00  0.00    +0.000 C 
ATOM      7  C   UNL     1       3.852   6.551  17.124  0.00  0.00    +0.000 C 
ATOM      8  C   UNL     1       2.988   4.369  18.125  0.00  0.00    +0.000 A 
ATOM      9  C   UNL     1       2.389   3.539  17.193  0.00  0.00    +0.000 A 
ATOM     10  C   UNL     1       2.643   2.169  17.277  0.00  0.00    +0.000 A 
ATOM     11  C   UNL     1       3.475   1.652  18.285  0.00  0.00    +0.000 A 
ATOM     12  C   UNL     1       4.073   2.496  19.224  0.00  0.00    +0.000 A 
ATOM     13  C   UNL     1       3.825   3.853  19.126  0.00  0.00    +0.000 A 
ENDROOT
BRANCH   1  14
ATOM     14  C   UNL     1       5.414   5.800  15.448  0.00  0.00    +0.000 C 
BRANCH  14  16
ATOM     15  C   UNL     1       6.079   3.772  14.115  0.00  0.00    +0.000 C 
ATOM     16  C   UNL     1       5.729   4.340  15.277  0.00  0.00    +0.000 C 
ENDBRANCH  14  16
ENDBRANCH   1  14
TORSDOF 2
ENDMDL
MODEL 6
REMARK VINA RESULT:      -6.3      1.689      4.430
REMARK  Name = 
REMARK  2 active torsions:
REMARK  status: ('A' for Active; 'I' for Inactive)
REMARK    1  A    between atoms: C_2  and  C_3
REMARK    2  A    between atoms: C_3  and  N_4
REMARK                            x       y       z     vdW  Elec       q    Type
REMARK                         _______ _______ _______ _____ _____    ______ ____
ROOT
ATOM      1  N   UNL     1       2.164   3.635  20.323  0.00  0.00    +0.000 NA
ATOM      2  C   UNL     1       3.553   3.163  20.225  0.00  0.00    +0.000 C 
ATOM      3  C   UNL     1       3.935   2.065  19.217  0.00  0.00    +0.000 C 
ATOM      4  C   UNL     1       3.909   2.462  17.738  0.00  0.00    +0.000 C 
ATOM      5  C   UNL     1       2.468   2.562  17.237  0.00  0.00    +0.000 C 
ATOM      6  C   UNL     1       1.999   3.951  17.677  0.00  0.00    +0.000 C 
ATOM      7  C   UNL     1       1.402   3.956  19.095  0.00  0.00    +0.000 C 
ATOM      8  C   UNL     1       3.268   4.744  17.543  0.00  0.00    +0.000 A 
ATOM      9  C   UNL     1       3.431   6.119  17.538  0.00  0.00    +0.000 A 
ATOM     10  C   UNL     1       4.732   6.624  17.519  0.00  0.00    +0.000 A 
ATOM     11  C   UNL     1       5.840   5.759  17.497  0.00  0.00    +0.000 A 
ATOM     12  C   UNL     1       5.667   4.372  17.499  0.00  0.00    +0.000 A 
ATOM     13  C   UNL     1       4.373   3.881  17.529  0.00  0.00    +0.000 A 
ENDROOT
BRANCH   1  14
ATOM     14  C   UNL     1       2.096   4.790  21.247  0.00  0.00    +0.000 C 
BRANCH  14  16
ATOM     15  C   UNL     1       1.845   7.234  20.704  0.00  0.00    +0.000 C 
ATOM     16  C   UNL     1       1.381   5.978  20.667  0.00  0.00    +0.000 C 
ENDBRANCH  14  16
ENDBRANCH   1  14
TORSDOF 2
ENDMDL
MODEL 7
REMARK VINA RESULT:      -6.3      2.675      4.178
REMARK  Name = 
REMARK  2 active torsions:
REMARK  status: ('A' for Active; 'I' for Inactive)
REMARK    1  A    between atoms: C_2  and  C_3
REMARK    2  A    between atoms: C_3  and  N_4
REMARK                            x       y       z     vdW  Elec       q    Type
REMARK                         _______ _______ _______ _____ _____    ______ ____
ROOT
ATOM      1  N   UNL     1       6.560   4.923  15.365  0.00  0.00    +0.000 NA
ATOM      2  C   UNL     1       7.099   4.298  16.582  0.00  0.00    +0.000 C 
ATOM      3  C   UNL     1       7.309   5.129  17.860  0.00  0.00    +0.000 C 
ATOM      4  C   UNL     1       6.041   5.582  18.590  0.00  0.00    +0.000 C 
ATOM      5  C   UNL     1       5.369   6.730  17.833  0.00  0.00    +0.000 C 
ATOM      6  C   UNL     1       4.558   6.044  16.730  0.00  0.00    +0.000 C 
ATOM      7  C   UNL     1       5.376   5.807  15.449  0.00  0.00    +0.000 C 
ATOM      8  C   UNL     1       4.128   4.783  17.424  0.00  0.00    +0.000 A 
ATOM      9  C   UNL     1       3.151   3.878  17.044  0.00  0.00    +0.000 A 
ATOM     10  C   UNL     1       3.013   2.710  17.796  0.00  0.00    +0.000 A 
ATOM     11  C   UNL     1       3.836   2.470  18.910  0.00  0.00    +0.000 A 
ATOM     12  C   UNL     1       4.817   3.390  19.289  0.00  0.00    +0.000 A 
ATOM     13  C   UNL     1       4.954   4.539  18.531  0.00  0.00    +0.000 A 
ENDROOT
BRANCH   1  14
ATOM     14  C   UNL     1       6.313   3.883  14.340  0.00  0.00    +0.000 C 
BRANCH  14  16
ATOM     15  C   UNL     1       7.782   5.116  12.712  0.00  0.00    +0.000 C 
ATOM     16  C   UNL     1       6.764   4.282  12.963  0.00  0.00    +0.000 C 
ENDBRANCH  14  16
ENDBRANCH   1  14
TORSDOF 2
ENDMDL
MODEL 8
REMARK VINA RESULT:      -6.3      1.457      4.237
REMARK  Name = 
REMARK  2 active torsions:
REMARK  status: ('A' for Active; 'I' for Inactive)
REMARK    1  A    between atoms: C_2  and  C_3
REMARK    2  A    between atoms: C_3  and  N_4
REMARK                            x       y       z     vdW  Elec       q    Type
REMARK                         _______ _______ _______ _____ _____    ______ ____
ROOT
ATOM      1  N   UNL     1       4.665   2.912  19.378  0.00  0.00    +0.000 NA
ATOM      2  C   UNL     1       5.437   4.163  19.391  0.00  0.00    +0.000 C 
ATOM      3  C   UNL     1       6.270   4.581  18.167  0.00  0.00    +0.000 C 
ATOM      4  C   UNL     1       5.483   5.016  16.927  0.00  0.00    +0.000 C 
ATOM      5  C   UNL     1       4.874   3.801  16.226  0.00  0.00    +0.000 C 
ATOM      6  C   UNL     1       3.591   3.504  17.006  0.00  0.00    +0.000 C 
ATOM      7  C   UNL     1       3.826   2.572  18.206  0.00  0.00    +0.000 C 
ATOM      8  C   UNL     1       3.152   4.891  17.385  0.00  0.00    +0.000 A 
ATOM      9  C   UNL     1       1.923   5.306  17.868  0.00  0.00    +0.000 A 
ATOM     10  C   UNL     1       1.791   6.638  18.263  0.00  0.00    +0.000 A 
ATOM     11  C   UNL     1       2.874   7.530  18.164  0.00  0.00    +0.000 A 
ATOM     12  C   UNL     1       4.110   7.104  17.672  0.00  0.00    +0.000 A 
ATOM     13  C   UNL     1       4.234   5.778  17.293  0.00  0.00    +0.000 A 
ENDROOT
BRANCH   1  14
ATOM     14  C   UNL     1       3.838   2.825  20.603  0.00  0.00    +0.000 C 
BRANCH  14  16
ATOM     15  C   UNL     1       1.390   3.241  21.012  0.00  0.00    +0.000 C 
ATOM     16  C   UNL     1       2.373   2.644  20.323  0.00  0.00    +0.000 C 
ENDBRANCH  14  16
ENDBRANCH   1  14
TORSDOF 2
ENDMDL
MODEL 9
REMARK VINA RESULT:      -6.3      1.593      2.845
REMARK  Name = 
REMARK  2 active torsions:
REMARK  status: ('A' for Active; 'I' for Inactive)
REMARK    1  A    between atoms: C_2  and  C_3
REMARK    2  A    between atoms: C_3  and  N_4
REMARK                            x       y       z     vdW  Elec       q    Type
REMARK                         _______ _______ _______ _____ _____    ______ ____
ROOT
ATOM      1  N   UNL     1       4.835   4.539  17.742  0.00  0.00    +0.000 NA
ATOM      2  C   UNL     1       3.751   3.793  17.086  0.00  0.00    +0.000 C 
ATOM      3  C   UNL     1       3.721   2.256  17.132  0.00  0.00    +0.000 C 
ATOM      4  C   UNL     1       3.405   1.624  18.492  0.00  0.00    +0.000 C 
ATOM      5  C   UNL     1       4.612   1.730  19.425  0.00  0.00    +0.000 C 
ATOM      6  C   UNL     1       4.535   3.147  20.000  0.00  0.00    +0.000 C 
ATOM      7  C   UNL     1       5.247   4.187  19.120  0.00  0.00    +0.000 C 
ATOM      8  C   UNL     1       3.048   3.342  20.098  0.00  0.00    +0.000 A 
ATOM      9  C   UNL     1       2.348   4.314  20.791  0.00  0.00    +0.000 A 
ATOM     10  C   UNL     1       0.962   4.361  20.633  0.00  0.00    +0.000 A 
ATOM     11  C   UNL     1       0.301   3.441  19.802  0.00  0.00    +0.000 A 
ATOM     12  C   UNL     1       1.014   2.460  19.108  0.00  0.00    +0.000 A 
ATOM     13  C   UNL     1       2.389   2.429  19.262  0.00  0.00    +0.000 A 
ENDROOT
BRANCH   1  14
ATOM     14  C   UNL     1       4.546   5.991  17.682  0.00  0.00    +0.000 C 
BRANCH  14  16
ATOM     15  C   UNL     1       2.588   7.301  18.566  0.00  0.00    +0.000 C 
ATOM     16  C   UNL     1       3.083   6.314  17.806  0.00  0.00    +0.000 C 
ENDBRANCH  14  16
ENDBRANCH   1  14
TORSDOF 2
ENDMDL
