MODEL 1
REMARK VINA RESULT:      -7.6      0.000      0.000
REMARK  Name = 
REMARK  12 active torsions:
REMARK  status: ('A' for Active; 'I' for Inactive)
REMARK    1  A    between atoms: C_1  and  O_2
REMARK    2  A    between atoms: O_2  and  C_3
REMARK    3  A    between atoms: C_5  and  C_6
REMARK    4  A    between atoms: C_6  and  C_7
REMARK    5  A    between atoms: C_7  and  C_8
REMARK    6  A    between atoms: N_10  and  N_11
REMARK    7  A    between atoms: C_12  and  C_14
REMARK    8  A    between atoms: C_17  and  C_18
REMARK    9  A    between atoms: C_22  and  O_23
REMARK   10  A    between atoms: O_23  and  C_24
REMARK   11  A    between atoms: C_25  and  O_26
REMARK   12  A    between atoms: O_26  and  C_27
REMARK                            x       y       z     vdW  Elec       q    Type
REMARK                         _______ _______ _______ _____ _____    ______ ____
ROOT
ATOM      1  C   UNL     1       2.282   4.157  20.582  0.00  0.00    +0.000 C 
ATOM      2  O   UNL     1       1.346   3.861  21.326  0.00  0.00    +0.000 OA
ATOM      3  N   UNL     1       2.604   5.463  20.280  0.00  0.00    +0.000 N 
ATOM      4  H   UNL     1       3.391   5.753  19.704  0.00  0.00    +0.000 HD
ENDROOT
BRANCH   3   5
ATOM      5  N   UNL     1       1.879   6.487  20.902  0.00  0.00    +0.000 N 
ATOM      6  C   UNL     1       1.771   7.707  20.260  0.00  0.00    +0.000 C 
ATOM      7  O   UNL     1       2.302   7.938  19.176  0.00  0.00    +0.000 OA
ATOM      8  H   UNL     1       1.322   6.217  21.709  0.00  0.00    +0.000 HD
BRANCH   6   9
ATOM      9  C   UNL     1       0.934   8.732  20.944  0.00  0.00    +0.000 A 
ATOM     10  C   UNL     1       0.847   8.800  22.339  0.00  0.00    +0.000 A 
ATOM     11  C   UNL     1       0.051   9.776  22.949  0.00  0.00    +0.000 A 
ATOM     12  C   UNL     1      -0.659  10.700  22.174  0.00  0.00    +0.000 A 
ATOM     13  C   UNL     1      -1.514  11.746  22.824  0.00  0.00    +0.000 C 
ATOM     14  C   UNL     1      -0.555  10.641  20.778  0.00  0.00    +0.000 A 
ATOM     15  C   UNL     1       0.242   9.669  20.166  0.00  0.00    +0.000 A 
ENDBRANCH   6   9
ENDBRANCH   3   5
BRANCH   1  16
ATOM     16  C   UNL     1       3.155   3.110  19.914  0.00  0.00    +0.000 C 
BRANCH  16  17
ATOM     17  C   UNL     1       3.310   3.402  18.425  0.00  0.00    +0.000 C 
BRANCH  17  20
ATOM     18  C   UNL     1       5.815   5.362  16.316  0.00  0.00    +0.000 A 
ATOM     19  C   UNL     1       4.801   4.463  16.695  0.00  0.00    +0.000 A 
ATOM     20  C   UNL     1       4.557   4.160  18.035  0.00  0.00    +0.000 A 
ATOM     21  C   UNL     1       5.421   4.693  18.991  0.00  0.00    +0.000 A 
ATOM     22  C   UNL     1       6.498   5.529  18.632  0.00  0.00    +0.000 A 
ATOM     23  C   UNL     1       6.711   5.873  17.278  0.00  0.00    +0.000 A 
BRANCH  18  25
ATOM     24  C   UNL     1       6.764   4.889  14.199  0.00  0.00    +0.000 C 
ATOM     25  O   UNL     1       5.933   5.736  14.998  0.00  0.00    +0.000 OA
ENDBRANCH  18  25
BRANCH  22  26
ATOM     26  O   UNL     1       7.199   5.937  19.742  0.00  0.00    +0.000 OA
ATOM     27  C   UNL     1       8.442   5.327  20.055  0.00  0.00    +0.000 C 
ENDBRANCH  22  26
BRANCH  23  28
ATOM     28  O   UNL     1       7.783   6.686  17.030  0.00  0.00    +0.000 OA
ATOM     29  C   UNL     1       7.797   8.043  17.435  0.00  0.00    +0.000 C 
ENDBRANCH  23  28
ENDBRANCH  17  20
ENDBRANCH  16  17
ENDBRANCH   1  16
TORSDOF 8
ENDMDL
MODEL 2
REMARK VINA RESULT:      -7.5      2.510      4.375
REMARK  Name = 
REMARK  12 active torsions:
REMARK  status: ('A' for Active; 'I' for Inactive)
REMARK    1  A    between atoms: C_1  and  O_2
REMARK    2  A    between atoms: O_2  and  C_3
REMARK    3  A    between atoms: C_5  and  C_6
REMARK    4  A    between atoms: C_6  and  C_7
REMARK    5  A    between atoms: C_7  and  C_8
REMARK    6  A    between atoms: N_10  and  N_11
REMARK    7  A    between atoms: C_12  and  C_14
REMARK    8  A    between atoms: C_17  and  C_18
REMARK    9  A    between atoms: C_22  and  O_23
REMARK   10  A    between atoms: O_23  and  C_24
REMARK   11  A    between atoms: C_25  and  O_26
REMARK   12  A    between atoms: O_26  and  C_27
REMARK                            x       y       z     vdW  Elec       q    Type
REMARK                         _______ _______ _______ _____ _____    ______ ____
ROOT
ATOM      1  C   UNL     1       1.084   9.243  20.013  0.00  0.00    +0.000 C 
ATOM      2  O   UNL     1       1.241  10.283  19.372  0.00  0.00    +0.000 OA
ATOM      3  N   UNL     1       0.222   9.157  21.085  0.00  0.00    +0.000 N 
ATOM      4  H   UNL     1       0.032   8.310  21.617  0.00  0.00    +0.000 HD
ENDROOT
BRANCH   3   5
ATOM      5  N   UNL     1      -0.551  10.279  21.408  0.00  0.00    +0.000 N 
ATOM      6  C   UNL     1      -0.609  10.687  22.729  0.00  0.00    +0.000 C 
ATOM      7  O   UNL     1      -0.026  10.095  23.634  0.00  0.00    +0.000 OA
ATOM      8  H   UNL     1      -0.884  10.836  20.626  0.00  0.00    +0.000 HD
BRANCH   6   9
ATOM      9  C   UNL     1      -1.396  11.923  22.996  0.00  0.00    +0.000 A 
ATOM     10  C   UNL     1      -0.861  13.198  22.774  0.00  0.00    +0.000 A 
ATOM     11  C   UNL     1      -1.629  14.339  23.034  0.00  0.00    +0.000 A 
ATOM     12  C   UNL     1      -2.939  14.221  23.511  0.00  0.00    +0.000 A 
ATOM     13  C   UNL     1      -3.763  15.441  23.794  0.00  0.00    +0.000 C 
ATOM     14  C   UNL     1      -3.477  12.944  23.715  0.00  0.00    +0.000 A 
ATOM     15  C   UNL     1      -2.715  11.801  23.452  0.00  0.00    +0.000 A 
ENDBRANCH   6   9
ENDBRANCH   3   5
BRANCH   1  16
ATOM     16  C   UNL     1       1.839   7.966  19.694  0.00  0.00    +0.000 C 
BRANCH  16  17
ATOM     17  C   UNL     1       2.285   7.948  18.236  0.00  0.00    +0.000 C 
BRANCH  17  20
ATOM     18  C   UNL     1       3.682   4.522  17.301  0.00  0.00    +0.000 A 
ATOM     19  C   UNL     1       2.873   5.529  17.860  0.00  0.00    +0.000 A 
ATOM     20  C   UNL     1       3.273   6.866  17.868  0.00  0.00    +0.000 A 
ATOM     21  C   UNL     1       4.551   7.167  17.401  0.00  0.00    +0.000 A 
ATOM     22  C   UNL     1       5.416   6.166  16.915  0.00  0.00    +0.000 A 
ATOM     23  C   UNL     1       4.989   4.820  16.861  0.00  0.00    +0.000 A 
BRANCH  18  25
ATOM     24  C   UNL     1       3.370   2.423  18.351  0.00  0.00    +0.000 C 
ATOM     25  O   UNL     1       3.194   3.241  17.191  0.00  0.00    +0.000 OA
ENDBRANCH  18  25
BRANCH  22  26
ATOM     26  O   UNL     1       6.613   6.703  16.503  0.00  0.00    +0.000 OA
ATOM     27  C   UNL     1       7.469   7.326  17.449  0.00  0.00    +0.000 C 
ENDBRANCH  22  26
BRANCH  23  28
ATOM     28  O   UNL     1       5.901   3.922  16.378  0.00  0.00    +0.000 OA
ATOM     29  C   UNL     1       6.156   3.797  14.990  0.00  0.00    +0.000 C 
ENDBRANCH  23  28
ENDBRANCH  17  20
ENDBRANCH  16  17
ENDBRANCH   1  16
TORSDOF 8
ENDMDL
MODEL 3
REMARK VINA RESULT:      -7.5      2.416      4.329
REMARK  Name = 
REMARK  12 active torsions:
REMARK  status: ('A' for Active; 'I' for Inactive)
REMARK    1  A    between atoms: C_1  and  O_2
REMARK    2  A    between atoms: O_2  and  C_3
REMARK    3  A    between atoms: C_5  and  C_6
REMARK    4  A    between atoms: C_6  and  C_7
REMARK    5  A    between atoms: C_7  and  C_8
REMARK    6  A    between atoms: N_10  and  N_11
REMARK    7  A    between atoms: C_12  and  C_14
REMARK    8  A    between atoms: C_17  and  C_18
REMARK    9  A    between atoms: C_22  and  O_23
REMARK   10  A    between atoms: O_23  and  C_24
REMARK   11  A    between atoms: C_25  and  O_26
REMARK   12  A    between atoms: O_26  and  C_27
REMARK                            x       y       z     vdW  Elec       q    Type
REMARK                         _______ _______ _______ _____ _____    ______ ____
ROOT
ATOM      1  C   UNL     1       0.941   9.614  18.704  0.00  0.00    +0.000 C 
ATOM      2  O   UNL     1       0.012  10.181  18.127  0.00  0.00    +0.000 OA
ATOM      3  N   UNL     1       1.094   9.649  20.073  0.00  0.00    +0.000 N 
ATOM      4  H   UNL     1       1.822   9.163  20.593  0.00  0.00    +0.000 HD
ENDROOT
BRANCH   3   5
ATOM      5  N   UNL     1       0.114  10.298  20.836  0.00  0.00    +0.000 N 
ATOM      6  C   UNL     1       0.434  11.497  21.445  0.00  0.00    +0.000 C 
ATOM      7  O   UNL     1       1.548  12.009  21.362  0.00  0.00    +0.000 OA
ATOM      8  H   UNL     1      -0.832   9.937  20.751  0.00  0.00    +0.000 HD
BRANCH   6   9
ATOM      9  C   UNL     1      -0.670  12.167  22.187  0.00  0.00    +0.000 A 
ATOM     10  C   UNL     1      -0.785  13.561  22.234  0.00  0.00    +0.000 A 
ATOM     11  C   UNL     1      -1.836  14.158  22.940  0.00  0.00    +0.000 A 
ATOM     12  C   UNL     1      -2.786  13.371  23.599  0.00  0.00    +0.000 A 
ATOM     13  C   UNL     1      -3.912  14.007  24.359  0.00  0.00    +0.000 C 
ATOM     14  C   UNL     1      -2.678  11.976  23.536  0.00  0.00    +0.000 A 
ATOM     15  C   UNL     1      -1.632  11.376  22.828  0.00  0.00    +0.000 A 
ENDBRANCH   6   9
ENDBRANCH   3   5
BRANCH   1  16
ATOM     16  C   UNL     1       2.013   8.841  17.958  0.00  0.00    +0.000 C 
BRANCH  16  17
ATOM     17  C   UNL     1       2.239   7.473  18.593  0.00  0.00    +0.000 C 
BRANCH  17  20
ATOM     18  C   UNL     1       5.400   6.286  16.814  0.00  0.00    +0.000 A 
ATOM     19  C   UNL     1       4.359   7.109  17.284  0.00  0.00    +0.000 A 
ATOM     20  C   UNL     1       3.212   6.572  17.872  0.00  0.00    +0.000 A 
ATOM     21  C   UNL     1       3.076   5.184  17.886  0.00  0.00    +0.000 A 
ATOM     22  C   UNL     1       4.064   4.337  17.345  0.00  0.00    +0.000 A 
ATOM     23  C   UNL     1       5.247   4.884  16.796  0.00  0.00    +0.000 A 
BRANCH  18  25
ATOM     24  C   UNL     1       7.520   7.168  17.390  0.00  0.00    +0.000 C 
ATOM     25  O   UNL     1       6.568   6.857  16.368  0.00  0.00    +0.000 OA
ENDBRANCH  18  25
BRANCH  22  26
ATOM     26  O   UNL     1       3.713   3.015  17.481  0.00  0.00    +0.000 OA
ATOM     27  C   UNL     1       2.358   2.665  17.717  0.00  0.00    +0.000 C 
ENDBRANCH  22  26
BRANCH  23  28
ATOM     28  O   UNL     1       6.144   3.982  16.292  0.00  0.00    +0.000 OA
ATOM     29  C   UNL     1       6.304   3.793  14.897  0.00  0.00    +0.000 C 
ENDBRANCH  23  28
ENDBRANCH  17  20
ENDBRANCH  16  17
ENDBRANCH   1  16
TORSDOF 8
ENDMDL
MODEL 4
REMARK VINA RESULT:      -7.5      2.705      4.557
REMARK  Name = 
REMARK  12 active torsions:
REMARK  status: ('A' for Active; 'I' for Inactive)
REMARK    1  A    between atoms: C_1  and  O_2
REMARK    2  A    between atoms: O_2  and  C_3
REMARK    3  A    between atoms: C_5  and  C_6
REMARK    4  A    between atoms: C_6  and  C_7
REMARK    5  A    between atoms: C_7  and  C_8
REMARK    6  A    between atoms: N_10  and  N_11
REMARK    7  A    between atoms: C_12  and  C_14
REMARK    8  A    between atoms: C_17  and  C_18
REMARK    9  A    between atoms: C_22  and  O_23
REMARK   10  A    between atoms: O_23  and  C_24
REMARK   11  A    between atoms: C_25  and  O_26
REMARK   12  A    between atoms: O_26  and  C_27
REMARK                            x       y       z     vdW  Elec       q    Type
REMARK                         _______ _______ _______ _____ _____    ______ ____
ROOT
ATOM      1  C   UNL     1       0.557   9.748  18.296  0.00  0.00    +0.000 C 
ATOM      2  O   UNL     1      -0.477   9.738  17.627  0.00  0.00    +0.000 OA
ATOM      3  N   UNL     1       0.628  10.335  19.541  0.00  0.00    +0.000 N 
ATOM      4  H   UNL     1       1.448  10.332  20.144  0.00  0.00    +0.000 HD
ENDROOT
BRANCH   3   5
ATOM      5  N   UNL     1      -0.542  10.878  20.088  0.00  0.00    +0.000 N 
ATOM      6  C   UNL     1      -0.543  11.247  21.421  0.00  0.00    +0.000 C 
ATOM      7  O   UNL     1       0.434  11.100  22.152  0.00  0.00    +0.000 OA
ATOM      8  H   UNL     1      -1.270  11.135  19.426  0.00  0.00    +0.000 HD
BRANCH   6   9
ATOM      9  C   UNL     1      -1.795  11.876  21.923  0.00  0.00    +0.000 A 
ATOM     10  C   UNL     1      -2.179  11.780  23.266  0.00  0.00    +0.000 A 
ATOM     11  C   UNL     1      -3.363  12.384  23.705  0.00  0.00    +0.000 A 
ATOM     12  C   UNL     1      -4.171  13.097  22.813  0.00  0.00    +0.000 A 
ATOM     13  C   UNL     1      -5.441  13.743  23.279  0.00  0.00    +0.000 C 
ATOM     14  C   UNL     1      -3.774  13.206  21.473  0.00  0.00    +0.000 A 
ATOM     15  C   UNL     1      -2.591  12.607  21.032  0.00  0.00    +0.000 A 
ENDBRANCH   6   9
ENDBRANCH   3   5
BRANCH   1  16
ATOM     16  C   UNL     1       1.853   9.131  17.804  0.00  0.00    +0.000 C 
BRANCH  16  17
ATOM     17  C   UNL     1       2.220   7.903  18.629  0.00  0.00    +0.000 C 
BRANCH  17  20
ATOM     18  C   UNL     1       5.221   6.314  16.889  0.00  0.00    +0.000 A 
ATOM     19  C   UNL     1       4.285   7.264  17.339  0.00  0.00    +0.000 A 
ATOM     20  C   UNL     1       3.080   6.878  17.929  0.00  0.00    +0.000 A 
ATOM     21  C   UNL     1       2.778   5.518  17.965  0.00  0.00    +0.000 A 
ATOM     22  C   UNL     1       3.660   4.549  17.443  0.00  0.00    +0.000 A 
ATOM     23  C   UNL     1       4.901   4.940  16.892  0.00  0.00    +0.000 A 
BRANCH  18  25
ATOM     24  C   UNL     1       7.401   7.034  17.466  0.00  0.00    +0.000 C 
ATOM     25  O   UNL     1       6.451   6.733  16.439  0.00  0.00    +0.000 OA
ENDBRANCH  18  25
BRANCH  22  26
ATOM     26  O   UNL     1       3.152   3.282  17.600  0.00  0.00    +0.000 OA
ATOM     27  C   UNL     1       1.846   3.104  18.127  0.00  0.00    +0.000 C 
ENDBRANCH  22  26
BRANCH  23  28
ATOM     28  O   UNL     1       5.685   3.929  16.409  0.00  0.00    +0.000 OA
ATOM     29  C   UNL     1       6.044   3.856  15.040  0.00  0.00    +0.000 C 
ENDBRANCH  23  28
ENDBRANCH  17  20
ENDBRANCH  16  17
ENDBRANCH   1  16
TORSDOF 8
ENDMDL
MODEL 5
REMARK VINA RESULT:      -7.4      3.165      9.962
REMARK  Name = 
REMARK  12 active torsions:
REMARK  status: ('A' for Active; 'I' for Inactive)
REMARK    1  A    between atoms: C_1  and  O_2
REMARK    2  A    between atoms: O_2  and  C_3
REMARK    3  A    between atoms: C_5  and  C_6
REMARK    4  A    between atoms: C_6  and  C_7
REMARK    5  A    between atoms: C_7  and  C_8
REMARK    6  A    between atoms: N_10  and  N_11
REMARK    7  A    between atoms: C_12  and  C_14
REMARK    8  A    between atoms: C_17  and  C_18
REMARK    9  A    between atoms: C_22  and  O_23
REMARK   10  A    between atoms: O_23  and  C_24
REMARK   11  A    between atoms: C_25  and  O_26
REMARK   12  A    between atoms: O_26  and  C_27
REMARK                            x       y       z     vdW  Elec       q    Type
REMARK                         _______ _______ _______ _____ _____    ______ ____
ROOT
ATOM      1  C   UNL     1       1.173   8.273  20.645  0.00  0.00    +0.000 C 
ATOM      2  O   UNL     1       1.224   9.026  19.672  0.00  0.00    +0.000 OA
ATOM      3  N   UNL     1       1.936   7.130  20.738  0.00  0.00    +0.000 N 
ATOM      4  H   UNL     1       1.955   6.502  21.539  0.00  0.00    +0.000 HD
ENDROOT
BRANCH   3   5
ATOM      5  N   UNL     1       2.853   6.857  19.715  0.00  0.00    +0.000 N 
ATOM      6  C   UNL     1       2.662   5.731  18.935  0.00  0.00    +0.000 C 
ATOM      7  O   UNL     1       1.732   4.947  19.115  0.00  0.00    +0.000 OA
ATOM      8  H   UNL     1       3.508   7.601  19.489  0.00  0.00    +0.000 HD
BRANCH   6   9
ATOM      9  C   UNL     1       3.634   5.533  17.824  0.00  0.00    +0.000 A 
ATOM     10  C   UNL     1       4.289   6.613  17.220  0.00  0.00    +0.000 A 
ATOM     11  C   UNL     1       5.198   6.392  16.178  0.00  0.00    +0.000 A 
ATOM     12  C   UNL     1       5.468   5.092  15.736  0.00  0.00    +0.000 A 
ATOM     13  C   UNL     1       6.440   4.852  14.618  0.00  0.00    +0.000 C 
ATOM     14  C   UNL     1       4.825   4.013  16.355  0.00  0.00    +0.000 A 
ATOM     15  C   UNL     1       3.919   4.230  17.398  0.00  0.00    +0.000 A 
ENDBRANCH   6   9
ENDBRANCH   3   5
BRANCH   1  16
ATOM     16  C   UNL     1       0.249   8.525  21.823  0.00  0.00    +0.000 C 
BRANCH  16  17
ATOM     17  C   UNL     1       0.399   9.953  22.337  0.00  0.00    +0.000 C 
BRANCH  17  20
ATOM     18  C   UNL     1      -2.404  12.491  22.852  0.00  0.00    +0.000 A 
ATOM     19  C   UNL     1      -1.485  11.449  23.079  0.00  0.00    +0.000 A 
ATOM     20  C   UNL     1      -0.754  10.879  22.035  0.00  0.00    +0.000 A 
ATOM     21  C   UNL     1      -1.038  11.299  20.736  0.00  0.00    +0.000 A 
ATOM     22  C   UNL     1      -2.015  12.281  20.472  0.00  0.00    +0.000 A 
ATOM     23  C   UNL     1      -2.717  12.891  21.536  0.00  0.00    +0.000 A 
BRANCH  18  25
ATOM     24  C   UNL     1      -4.150  12.446  24.450  0.00  0.00    +0.000 C 
ATOM     25  O   UNL     1      -3.000  13.115  23.922  0.00  0.00    +0.000 OA
ENDBRANCH  18  25
BRANCH  22  26
ATOM     26  O   UNL     1      -2.111  12.535  19.125  0.00  0.00    +0.000 OA
ATOM     27  C   UNL     1      -1.223  11.894  18.221  0.00  0.00    +0.000 C 
ENDBRANCH  22  26
BRANCH  23  28
ATOM     28  O   UNL     1      -3.647  13.828  21.179  0.00  0.00    +0.000 OA
ATOM     29  C   UNL     1      -5.005  13.484  20.969  0.00  0.00    +0.000 C 
ENDBRANCH  23  28
ENDBRANCH  17  20
ENDBRANCH  16  17
ENDBRANCH   1  16
TORSDOF 8
ENDMDL
MODEL 6
REMARK VINA RESULT:      -7.4      2.608      5.232
REMARK  Name = 
REMARK  12 active torsions:
REMARK  status: ('A' for Active; 'I' for Inactive)
REMARK    1  A    between atoms: C_1  and  O_2
REMARK    2  A    between atoms: O_2  and  C_3
REMARK    3  A    between atoms: C_5  and  C_6
REMARK    4  A    between atoms: C_6  and  C_7
REMARK    5  A    between atoms: C_7  and  C_8
REMARK    6  A    between atoms: N_10  and  N_11
REMARK    7  A    between atoms: C_12  and  C_14
REMARK    8  A    between atoms: C_17  and  C_18
REMARK    9  A    between atoms: C_22  and  O_23
REMARK   10  A    between atoms: O_23  and  C_24
REMARK   11  A    between atoms: C_25  and  O_26
REMARK   12  A    between atoms: O_26  and  C_27
REMARK                            x       y       z     vdW  Elec       q    Type
REMARK                         _______ _______ _______ _____ _____    ______ ____
ROOT
ATOM      1  C   UNL     1       0.826   9.990  19.666  0.00  0.00    +0.000 C 
ATOM      2  O   UNL     1       0.928  11.102  19.147  0.00  0.00    +0.000 OA
ATOM      3  N   UNL     1       0.031   9.756  20.767  0.00  0.00    +0.000 N 
ATOM      4  H   UNL     1      -0.113   8.847  21.203  0.00  0.00    +0.000 HD
ENDROOT
BRANCH   3   5
ATOM      5  N   UNL     1      -0.741  10.812  21.267  0.00  0.00    +0.000 N 
ATOM      6  C   UNL     1      -0.774  11.021  22.634  0.00  0.00    +0.000 C 
ATOM      7  O   UNL     1      -0.170  10.307  23.431  0.00  0.00    +0.000 OA
ATOM      8  H   UNL     1      -1.092  11.475  20.581  0.00  0.00    +0.000 HD
BRANCH   6   9
ATOM      9  C   UNL     1      -1.561  12.199  23.095  0.00  0.00    +0.000 A 
ATOM     10  C   UNL     1      -1.003  13.482  23.148  0.00  0.00    +0.000 A 
ATOM     11  C   UNL     1      -1.771  14.566  23.586  0.00  0.00    +0.000 A 
ATOM     12  C   UNL     1      -3.105  14.385  23.966  0.00  0.00    +0.000 A 
ATOM     13  C   UNL     1      -3.930  15.545  24.438  0.00  0.00    +0.000 C 
ATOM     14  C   UNL     1      -3.666  13.103  23.895  0.00  0.00    +0.000 A 
ATOM     15  C   UNL     1      -2.903  12.017  23.454  0.00  0.00    +0.000 A 
ENDBRANCH   6   9
ENDBRANCH   3   5
BRANCH   1  16
ATOM     16  C   UNL     1       1.583   8.779  19.152  0.00  0.00    +0.000 C 
BRANCH  16  17
ATOM     17  C   UNL     1       1.842   7.782  20.277  0.00  0.00    +0.000 C 
BRANCH  17  20
ATOM     18  C   UNL     1       4.039   5.012  18.839  0.00  0.00    +0.000 A 
ATOM     19  C   UNL     1       3.452   6.271  19.065  0.00  0.00    +0.000 A 
ATOM     20  C   UNL     1       2.299   6.410  19.840  0.00  0.00    +0.000 A 
ATOM     21  C   UNL     1       1.679   5.249  20.301  0.00  0.00    +0.000 A 
ATOM     22  C   UNL     1       2.198   3.970  20.017  0.00  0.00    +0.000 A 
ATOM     23  C   UNL     1       3.394   3.836  19.274  0.00  0.00    +0.000 A 
BRANCH  18  25
ATOM     24  C   UNL     1       5.274   5.537  16.889  0.00  0.00    +0.000 C 
ATOM     25  O   UNL     1       5.246   4.934  18.186  0.00  0.00    +0.000 OA
ENDBRANCH  18  25
BRANCH  22  26
ATOM     26  O   UNL     1       1.424   2.985  20.581  0.00  0.00    +0.000 OA
ATOM     27  C   UNL     1       1.699   2.539  21.901  0.00  0.00    +0.000 C 
ENDBRANCH  22  26
BRANCH  23  28
ATOM     28  O   UNL     1       3.815   2.554  19.047  0.00  0.00    +0.000 OA
ATOM     29  C   UNL     1       3.364   1.811  17.928  0.00  0.00    +0.000 C 
ENDBRANCH  23  28
ENDBRANCH  17  20
ENDBRANCH  16  17
ENDBRANCH   1  16
TORSDOF 8
ENDMDL
MODEL 7
REMARK VINA RESULT:      -7.3      2.643      4.685
REMARK  Name = 
REMARK  12 active torsions:
REMARK  status: ('A' for Active; 'I' for Inactive)
REMARK    1  A    between atoms: C_1  and  O_2
REMARK    2  A    between atoms: O_2  and  C_3
REMARK    3  A    between atoms: C_5  and  C_6
REMARK    4  A    between atoms: C_6  and  C_7
REMARK    5  A    between atoms: C_7  and  C_8
REMARK    6  A    between atoms: N_10  and  N_11
REMARK    7  A    between atoms: C_12  and  C_14
REMARK    8  A    between atoms: C_17  and  C_18
REMARK    9  A    between atoms: C_22  and  O_23
REMARK   10  A    between atoms: O_23  and  C_24
REMARK   11  A    between atoms: C_25  and  O_26
REMARK   12  A    between atoms: O_26  and  C_27
REMARK                            x       y       z     vdW  Elec       q    Type
REMARK                         _______ _______ _______ _____ _____    ______ ____
ROOT
ATOM      1  C   UNL     1       1.307   9.030  18.775  0.00  0.00    +0.000 C 
ATOM      2  O   UNL     1       1.519   8.588  19.905  0.00  0.00    +0.000 OA
ATOM      3  N   UNL     1       0.229   9.839  18.486  0.00  0.00    +0.000 N 
ATOM      4  H   UNL     1       0.039  10.257  17.578  0.00  0.00    +0.000 HD
ENDROOT
BRANCH   3   5
ATOM      5  N   UNL     1      -0.613  10.224  19.536  0.00  0.00    +0.000 N 
ATOM      6  C   UNL     1      -0.577  11.538  19.968  0.00  0.00    +0.000 C 
ATOM      7  O   UNL     1       0.178  12.377  19.482  0.00  0.00    +0.000 OA
ATOM      8  H   UNL     1      -1.333   9.557  19.802  0.00  0.00    +0.000 HD
BRANCH   6   9
ATOM      9  C   UNL     1      -1.542  11.898  21.043  0.00  0.00    +0.000 A 
ATOM     10  C   UNL     1      -2.697  12.644  20.775  0.00  0.00    +0.000 A 
ATOM     11  C   UNL     1      -3.583  12.965  21.810  0.00  0.00    +0.000 A 
ATOM     12  C   UNL     1      -3.332  12.539  23.119  0.00  0.00    +0.000 A 
ATOM     13  C   UNL     1      -4.279  12.883  24.229  0.00  0.00    +0.000 C 
ATOM     14  C   UNL     1      -2.186  11.777  23.379  0.00  0.00    +0.000 A 
ATOM     15  C   UNL     1      -1.299  11.452  22.348  0.00  0.00    +0.000 A 
ENDBRANCH   6   9
ENDBRANCH   3   5
BRANCH   1  16
ATOM     16  C   UNL     1       2.203   8.708  17.593  0.00  0.00    +0.000 C 
BRANCH  16  17
ATOM     17  C   UNL     1       3.406   7.880  18.031  0.00  0.00    +0.000 C 
BRANCH  17  20
ATOM     18  C   UNL     1       4.386   4.350  16.962  0.00  0.00    +0.000 A 
ATOM     19  C   UNL     1       4.314   5.754  17.033  0.00  0.00    +0.000 A 
ATOM     20  C   UNL     1       3.311   6.397  17.760  0.00  0.00    +0.000 A 
ATOM     21  C   UNL     1       2.312   5.609  18.329  0.00  0.00    +0.000 A 
ATOM     22  C   UNL     1       2.312   4.206  18.201  0.00  0.00    +0.000 A 
ATOM     23  C   UNL     1       3.357   3.554  17.507  0.00  0.00    +0.000 A 
BRANCH  18  25
ATOM     24  C   UNL     1       6.722   4.400  16.580  0.00  0.00    +0.000 C 
ATOM     25  O   UNL     1       5.465   3.756  16.351  0.00  0.00    +0.000 OA
ENDBRANCH  18  25
BRANCH  22  26
ATOM     26  O   UNL     1       1.236   3.648  18.851  0.00  0.00    +0.000 OA
ATOM     27  C   UNL     1       0.955   4.016  20.193  0.00  0.00    +0.000 C 
ENDBRANCH  22  26
BRANCH  23  28
ATOM     28  O   UNL     1       3.266   2.191  17.433  0.00  0.00    +0.000 OA
ATOM     29  C   UNL     1       3.687   1.360  18.501  0.00  0.00    +0.000 C 
ENDBRANCH  23  28
ENDBRANCH  17  20
ENDBRANCH  16  17
ENDBRANCH   1  16
TORSDOF 8
ENDMDL
MODEL 8
REMARK VINA RESULT:      -7.3      2.686      5.497
REMARK  Name = 
REMARK  12 active torsions:
REMARK  status: ('A' for Active; 'I' for Inactive)
REMARK    1  A    between atoms: C_1  and  O_2
REMARK    2  A    between atoms: O_2  and  C_3
REMARK    3  A    between atoms: C_5  and  C_6
REMARK    4  A    between atoms: C_6  and  C_7
REMARK    5  A    between atoms: C_7  and  C_8
REMARK    6  A    between atoms: N_10  and  N_11
REMARK    7  A    between atoms: C_12  and  C_14
REMARK    8  A    between atoms: C_17  and  C_18
REMARK    9  A    between atoms: C_22  and  O_23
REMARK   10  A    between atoms: O_23  and  C_24
REMARK   11  A    between atoms: C_25  and  O_26
REMARK   12  A    between atoms: O_26  and  C_27
REMARK                            x       y       z     vdW  Elec       q    Type
REMARK                         _______ _______ _______ _____ _____    ______ ____
ROOT
ATOM      1  C   UNL     1       0.732   9.820  19.420  0.00  0.00    +0.000 C 
ATOM      2  O   UNL     1      -0.132  10.333  18.708  0.00  0.00    +0.000 OA
ATOM      3  N   UNL     1       0.969  10.234  20.713  0.00  0.00    +0.000 N 
ATOM      4  H   UNL     1       1.643   9.813  21.349  0.00  0.00    +0.000 HD
ENDROOT
BRANCH   3   5
ATOM      5  N   UNL     1       0.145  11.229  21.254  0.00  0.00    +0.000 N 
ATOM      6  C   UNL     1      -0.633  10.921  22.355  0.00  0.00    +0.000 C 
ATOM      7  O   UNL     1      -0.647   9.804  22.868  0.00  0.00    +0.000 OA
ATOM      8  H   UNL     1       0.300  12.174  20.913  0.00  0.00    +0.000 HD
BRANCH   6   9
ATOM      9  C   UNL     1      -1.437  12.041  22.920  0.00  0.00    +0.000 A 
ATOM     10  C   UNL     1      -2.743  11.846  23.384  0.00  0.00    +0.000 A 
ATOM     11  C   UNL     1      -3.471  12.920  23.910  0.00  0.00    +0.000 A 
ATOM     12  C   UNL     1      -2.900  14.196  23.986  0.00  0.00    +0.000 A 
ATOM     13  C   UNL     1      -3.678  15.349  24.547  0.00  0.00    +0.000 C 
ATOM     14  C   UNL     1      -1.586  14.382  23.537  0.00  0.00    +0.000 A 
ATOM     15  C   UNL     1      -0.855  13.311  23.015  0.00  0.00    +0.000 A 
ENDBRANCH   6   9
ENDBRANCH   3   5
BRANCH   1  16
ATOM     16  C   UNL     1       1.629   8.696  18.933  0.00  0.00    +0.000 C 
BRANCH  16  17
ATOM     17  C   UNL     1       1.967   7.737  20.069  0.00  0.00    +0.000 C 
BRANCH  17  20
ATOM     18  C   UNL     1       1.684   3.937  19.866  0.00  0.00    +0.000 A 
ATOM     19  C   UNL     1       1.647   5.256  20.355  0.00  0.00    +0.000 A 
ATOM     20  C   UNL     1       2.241   6.310  19.658  0.00  0.00    +0.000 A 
ATOM     21  C   UNL     1       2.968   6.003  18.509  0.00  0.00    +0.000 A 
ATOM     22  C   UNL     1       3.093   4.679  18.043  0.00  0.00    +0.000 A 
ATOM     23  C   UNL     1       2.449   3.621  18.724  0.00  0.00    +0.000 A 
BRANCH  18  25
ATOM     24  C   UNL     1       1.532   2.517  21.754  0.00  0.00    +0.000 C 
ATOM     25  O   UNL     1       0.972   2.953  20.512  0.00  0.00    +0.000 OA
ENDBRANCH  18  25
BRANCH  22  26
ATOM     26  O   UNL     1       3.846   4.627  16.894  0.00  0.00    +0.000 OA
ATOM     27  C   UNL     1       4.856   5.599  16.667  0.00  0.00    +0.000 C 
ENDBRANCH  22  26
BRANCH  23  28
ATOM     28  O   UNL     1       2.633   2.372  18.197  0.00  0.00    +0.000 OA
ATOM     29  C   UNL     1       3.655   1.511  18.668  0.00  0.00    +0.000 C 
ENDBRANCH  23  28
ENDBRANCH  17  20
ENDBRANCH  16  17
ENDBRANCH   1  16
TORSDOF 8
ENDMDL
MODEL 9
REMARK VINA RESULT:      -7.3      2.716      5.057
REMARK  Name = 
REMARK  12 active torsions:
REMARK  status: ('A' for Active; 'I' for Inactive)
REMARK    1  A    between atoms: C_1  and  O_2
REMARK    2  A    between atoms: O_2  and  C_3
REMARK    3  A    between atoms: C_5  and  C_6
REMARK    4  A    between atoms: C_6  and  C_7
REMARK    5  A    between atoms: C_7  and  C_8
REMARK    6  A    between atoms: N_10  and  N_11
REMARK    7  A    between atoms: C_12  and  C_14
REMARK    8  A    between atoms: C_17  and  C_18
REMARK    9  A    between atoms: C_22  and  O_23
REMARK   10  A    between atoms: O_23  and  C_24
REMARK   11  A    between atoms: C_25  and  O_26
REMARK   12  A    between atoms: O_26  and  C_27
REMARK                            x       y       z     vdW  Elec       q    Type
REMARK                         _______ _______ _______ _____ _____    ______ ____
ROOT
ATOM      1  C   UNL     1       0.758  10.008  18.764  0.00  0.00    +0.000 C 
ATOM      2  O   UNL     1      -0.245  10.005  18.050  0.00  0.00    +0.000 OA
ATOM      3  N   UNL     1       0.725  10.397  20.086  0.00  0.00    +0.000 N 
ATOM      4  H   UNL     1       1.519  10.376  20.722  0.00  0.00    +0.000 HD
ENDROOT
BRANCH   3   5
ATOM      5  N   UNL     1      -0.512  10.735  20.649  0.00  0.00    +0.000 N 
ATOM      6  C   UNL     1      -0.571  11.800  21.529  0.00  0.00    +0.000 C 
ATOM      7  O   UNL     1       0.420  12.451  21.854  0.00  0.00    +0.000 OA
ATOM      8  H   UNL     1      -1.329  10.289  20.240  0.00  0.00    +0.000 HD
BRANCH   6   9
ATOM      9  C   UNL     1      -1.926  12.149  22.042  0.00  0.00    +0.000 A 
ATOM     10  C   UNL     1      -2.271  11.970  23.387  0.00  0.00    +0.000 A 
ATOM     11  C   UNL     1      -3.552  12.309  23.836  0.00  0.00    +0.000 A 
ATOM     12  C   UNL     1      -4.499  12.836  22.951  0.00  0.00    +0.000 A 
ATOM     13  C   UNL     1      -5.874  13.197  23.429  0.00  0.00    +0.000 C 
ATOM     14  C   UNL     1      -4.145  13.029  21.610  0.00  0.00    +0.000 A 
ATOM     15  C   UNL     1      -2.864  12.696  21.159  0.00  0.00    +0.000 A 
ENDBRANCH   6   9
ENDBRANCH   3   5
BRANCH   1  16
ATOM     16  C   UNL     1       2.126   9.600  18.250  0.00  0.00    +0.000 C 
BRANCH  16  17
ATOM     17  C   UNL     1       2.064   8.246  17.551  0.00  0.00    +0.000 C 
BRANCH  17  20
ATOM     18  C   UNL     1       3.063   5.356  19.834  0.00  0.00    +0.000 A 
ATOM     19  C   UNL     1       2.454   6.529  19.351  0.00  0.00    +0.000 A 
ATOM     20  C   UNL     1       2.890   7.149  18.179  0.00  0.00    +0.000 A 
ATOM     21  C   UNL     1       4.022   6.632  17.551  0.00  0.00    +0.000 A 
ATOM     22  C   UNL     1       4.704   5.508  18.060  0.00  0.00    +0.000 A 
ATOM     23  C   UNL     1       4.229   4.853  19.219  0.00  0.00    +0.000 A 
BRANCH  18  25
ATOM     24  C   UNL     1       1.281   4.033  20.656  0.00  0.00    +0.000 C 
ATOM     25  O   UNL     1       2.518   4.703  20.914  0.00  0.00    +0.000 OA
ENDBRANCH  18  25
BRANCH  22  26
ATOM     26  O   UNL     1       5.779   5.180  17.269  0.00  0.00    +0.000 OA
ATOM     27  C   UNL     1       7.028   5.822  17.474  0.00  0.00    +0.000 C 
ENDBRANCH  22  26
BRANCH  23  28
ATOM     28  O   UNL     1       4.960   3.775  19.638  0.00  0.00    +0.000 OA
ATOM     29  C   UNL     1       4.458   2.454  19.541  0.00  0.00    +0.000 C 
ENDBRANCH  23  28
ENDBRANCH  17  20
ENDBRANCH  16  17
ENDBRANCH   1  16
TORSDOF 8
ENDMDL
