MODEL 1
REMARK VINA RESULT:      -7.6      0.000      0.000
REMARK  Name = 
REMARK  8 active torsions:
REMARK  status: ('A' for Active; 'I' for Inactive)
REMARK    1  A    between atoms: C_1  and  C_2
REMARK    2  A    between atoms: C_2  and  C_3
REMARK    3  A    between atoms: C_2  and  C_4
REMARK    4  A    between atoms: C_2  and  N_5
REMARK    5  A    between atoms: C_6  and  C_8
REMARK    6  A    between atoms: C_8  and  N_9
REMARK    7  A    between atoms: C_13  and  C_14
REMARK    8  A    between atoms: C_14  and  C_15
REMARK                            x       y       z     vdW  Elec       q    Type
REMARK                         _______ _______ _______ _____ _____    ______ ____
ROOT
ATOM      1  N   UNL     1       7.635   7.934  17.427  0.00  0.00    +0.000 N 
ATOM      2  C   UNL     1       7.091   6.700  17.481  0.00  0.00    +0.000 A 
ATOM      3  N   UNL     1       7.297   5.786  18.403  0.00  0.00    +0.000 NA
ATOM      4  N   UNL     1       6.587   4.626  18.175  0.00  0.00    +0.000 NA
ATOM      5  C   UNL     1       5.829   4.718  17.103  0.00  0.00    +0.000 A 
ATOM      6  S   UNL     1       5.950   6.222  16.285  0.00  0.00    +0.000 S 
ATOM      7  H   UNL     1       7.894   8.293  16.514  0.00  0.00    +0.000 HD
ENDROOT
BRANCH   1   8
ATOM      8  C   UNL     1       8.456   8.423  18.537  0.00  0.00    +0.000 C 
BRANCH   8  10
ATOM      9  N   UNL     1       9.799  10.383  19.097  0.00  0.00    +0.000 N 
ATOM     10  C   UNL     1       8.729   9.921  18.356  0.00  0.00    +0.000 C 
ATOM     11  O   UNL     1       8.066  10.619  17.590  0.00  0.00    +0.000 OA
ATOM     12  H   UNL     1      10.190   9.709  19.750  0.00  0.00    +0.000 HD
BRANCH   9  14
ATOM     13  C   UNL     1      11.522  11.877  20.039  0.00  0.00    +0.000 C 
ATOM     14  C   UNL     1      10.280  11.772  19.142  0.00  0.00    +0.000 C 
ATOM     15  C   UNL     1       9.175  12.713  19.650  0.00  0.00    +0.000 C 
ATOM     16  C   UNL     1      10.670  12.212  17.723  0.00  0.00    +0.000 C 
ENDBRANCH   9  14
ENDBRANCH   8  10
ENDBRANCH   1   8
BRANCH   5  17
ATOM     17  C   UNL     1       4.963   3.620  16.573  0.00  0.00    +0.000 C 
BRANCH  17  18
ATOM     18  C   UNL     1       3.726   3.410  17.420  0.00  0.00    +0.000 A 
ATOM     19  C   UNL     1       3.507   2.173  18.053  0.00  0.00    +0.000 A 
ATOM     20  C   UNL     1       2.342   1.952  18.786  0.00  0.00    +0.000 A 
ATOM     21  C   UNL     1       1.402   2.968  18.898  0.00  0.00    +0.000 A 
ATOM     22  F   UNL     1       0.277   2.753  19.593  0.00  0.00    +0.000 F 
ATOM     23  C   UNL     1       1.607   4.204  18.296  0.00  0.00    +0.000 A 
ATOM     24  C   UNL     1       2.769   4.427  17.555  0.00  0.00    +0.000 A 
ENDBRANCH  17  18
ENDBRANCH   5  17
TORSDOF 5
ENDMDL
MODEL 2
REMARK VINA RESULT:      -7.5      1.431      1.579
REMARK  Name = 
REMARK  8 active torsions:
REMARK  status: ('A' for Active; 'I' for Inactive)
REMARK    1  A    between atoms: C_1  and  C_2
REMARK    2  A    between atoms: C_2  and  C_3
REMARK    3  A    between atoms: C_2  and  C_4
REMARK    4  A    between atoms: C_2  and  N_5
REMARK    5  A    between atoms: C_6  and  C_8
REMARK    6  A    between atoms: C_8  and  N_9
REMARK    7  A    between atoms: C_13  and  C_14
REMARK    8  A    between atoms: C_14  and  C_15
REMARK                            x       y       z     vdW  Elec       q    Type
REMARK                         _______ _______ _______ _____ _____    ______ ____
ROOT
ATOM      1  N   UNL     1       8.167   7.892  18.138  0.00  0.00    +0.000 N 
ATOM      2  C   UNL     1       7.184   7.062  17.730  0.00  0.00    +0.000 A 
ATOM      3  N   UNL     1       6.186   7.355  16.925  0.00  0.00    +0.000 NA
ATOM      4  N   UNL     1       5.350   6.282  16.696  0.00  0.00    +0.000 NA
ATOM      5  C   UNL     1       5.771   5.194  17.306  0.00  0.00    +0.000 A 
ATOM      6  S   UNL     1       7.206   5.413  18.221  0.00  0.00    +0.000 S 
ATOM      7  H   UNL     1       8.488   7.803  19.096  0.00  0.00    +0.000 HD
ENDROOT
BRANCH   1   8
ATOM      8  C   UNL     1       8.268   9.241  17.577  0.00  0.00    +0.000 C 
BRANCH   8  10
ATOM      9  N   UNL     1       9.627  11.241  17.913  0.00  0.00    +0.000 N 
ATOM     10  C   UNL     1       9.072  10.136  18.528  0.00  0.00    +0.000 C 
ATOM     11  O   UNL     1       9.170   9.892  19.730  0.00  0.00    +0.000 OA
ATOM     12  H   UNL     1       9.535  11.258  16.901  0.00  0.00    +0.000 HD
BRANCH   9  14
ATOM     13  C   UNL     1      11.699  11.607  19.201  0.00  0.00    +0.000 C 
ATOM     14  C   UNL     1      10.464  12.260  18.564  0.00  0.00    +0.000 C 
ATOM     15  C   UNL     1       9.658  13.025  19.627  0.00  0.00    +0.000 C 
ATOM     16  C   UNL     1      10.941  13.266  17.505  0.00  0.00    +0.000 C 
ENDBRANCH   9  14
ENDBRANCH   8  10
ENDBRANCH   1   8
BRANCH   5  17
ATOM     17  C   UNL     1       5.068   3.875  17.278  0.00  0.00    +0.000 C 
BRANCH  17  18
ATOM     18  C   UNL     1       3.799   3.888  18.102  0.00  0.00    +0.000 A 
ATOM     19  C   UNL     1       2.562   3.596  17.498  0.00  0.00    +0.000 A 
ATOM     20  C   UNL     1       1.382   3.665  18.236  0.00  0.00    +0.000 A 
ATOM     21  C   UNL     1       1.436   4.010  19.580  0.00  0.00    +0.000 A 
ATOM     22  F   UNL     1       0.301   4.086  20.288  0.00  0.00    +0.000 F 
ATOM     23  C   UNL     1       2.649   4.283  20.202  0.00  0.00    +0.000 A 
ATOM     24  C   UNL     1       3.831   4.224  19.464  0.00  0.00    +0.000 A 
ENDBRANCH  17  18
ENDBRANCH   5  17
TORSDOF 5
ENDMDL
MODEL 3
REMARK VINA RESULT:      -7.5      1.502      1.870
REMARK  Name = 
REMARK  8 active torsions:
REMARK  status: ('A' for Active; 'I' for Inactive)
REMARK    1  A    between atoms: C_1  and  C_2
REMARK    2  A    between atoms: C_2  and  C_3
REMARK    3  A    between atoms: C_2  and  C_4
REMARK    4  A    between atoms: C_2  and  N_5
REMARK    5  A    between atoms: C_6  and  C_8
REMARK    6  A    between atoms: C_8  and  N_9
REMARK    7  A    between atoms: C_13  and  C_14
REMARK    8  A    between atoms: C_14  and  C_15
REMARK                            x       y       z     vdW  Elec       q    Type
REMARK                         _______ _______ _______ _____ _____    ______ ____
ROOT
ATOM      1  N   UNL     1       8.253   8.115  18.299  0.00  0.00    +0.000 N 
ATOM      2  C   UNL     1       7.304   7.266  17.852  0.00  0.00    +0.000 A 
ATOM      3  N   UNL     1       6.358   7.528  16.978  0.00  0.00    +0.000 NA
ATOM      4  N   UNL     1       5.546   6.443  16.726  0.00  0.00    +0.000 NA
ATOM      5  C   UNL     1       5.935   5.375  17.390  0.00  0.00    +0.000 A 
ATOM      6  S   UNL     1       7.308   5.631  18.388  0.00  0.00    +0.000 S 
ATOM      7  H   UNL     1       8.513   8.054  19.278  0.00  0.00    +0.000 HD
ENDROOT
BRANCH   1   8
ATOM      8  C   UNL     1       8.380   9.450  17.710  0.00  0.00    +0.000 C 
BRANCH   8  10
ATOM      9  N   UNL     1       9.975  11.290  17.888  0.00  0.00    +0.000 N 
ATOM     10  C   UNL     1       9.288  10.318  18.589  0.00  0.00    +0.000 C 
ATOM     11  O   UNL     1       9.356  10.168  19.808  0.00  0.00    +0.000 OA
ATOM     12  H   UNL     1       9.885  11.231  16.876  0.00  0.00    +0.000 HD
BRANCH   9  14
ATOM     13  C   UNL     1      11.591  13.072  17.340  0.00  0.00    +0.000 C 
ATOM     14  C   UNL     1      10.930  12.251  18.458  0.00  0.00    +0.000 C 
ATOM     15  C   UNL     1      12.000  11.525  19.289  0.00  0.00    +0.000 C 
ATOM     16  C   UNL     1      10.175  13.217  19.384  0.00  0.00    +0.000 C 
ENDBRANCH   9  14
ENDBRANCH   8  10
ENDBRANCH   1   8
BRANCH   5  17
ATOM     17  C   UNL     1       5.245   4.049  17.354  0.00  0.00    +0.000 C 
BRANCH  17  18
ATOM     18  C   UNL     1       3.929   4.070  18.101  0.00  0.00    +0.000 A 
ATOM     19  C   UNL     1       3.899   4.402  19.468  0.00  0.00    +0.000 A 
ATOM     20  C   UNL     1       2.700   4.366  20.178  0.00  0.00    +0.000 A 
ATOM     21  C   UNL     1       1.528   4.012  19.521  0.00  0.00    +0.000 A 
ATOM     22  F   UNL     1       0.377   3.967  20.205  0.00  0.00    +0.000 F 
ATOM     23  C   UNL     1       1.532   3.699  18.167  0.00  0.00    +0.000 A 
ATOM     24  C   UNL     1       2.732   3.727  17.456  0.00  0.00    +0.000 A 
ENDBRANCH  17  18
ENDBRANCH   5  17
TORSDOF 5
ENDMDL
MODEL 4
REMARK VINA RESULT:      -7.5      0.487      1.035
REMARK  Name = 
REMARK  8 active torsions:
REMARK  status: ('A' for Active; 'I' for Inactive)
REMARK    1  A    between atoms: C_1  and  C_2
REMARK    2  A    between atoms: C_2  and  C_3
REMARK    3  A    between atoms: C_2  and  C_4
REMARK    4  A    between atoms: C_2  and  N_5
REMARK    5  A    between atoms: C_6  and  C_8
REMARK    6  A    between atoms: C_8  and  N_9
REMARK    7  A    between atoms: C_13  and  C_14
REMARK    8  A    between atoms: C_14  and  C_15
REMARK                            x       y       z     vdW  Elec       q    Type
REMARK                         _______ _______ _______ _____ _____    ______ ____
ROOT
ATOM      1  N   UNL     1       7.428   8.170  17.480  0.00  0.00    +0.000 N 
ATOM      2  C   UNL     1       6.987   6.895  17.465  0.00  0.00    +0.000 A 
ATOM      3  N   UNL     1       7.509   5.872  18.106  0.00  0.00    +0.000 NA
ATOM      4  N   UNL     1       6.822   4.697  17.888  0.00  0.00    +0.000 NA
ATOM      5  C   UNL     1       5.769   4.880  17.119  0.00  0.00    +0.000 A 
ATOM      6  S   UNL     1       5.561   6.499  16.588  0.00  0.00    +0.000 S 
ATOM      7  H   UNL     1       7.377   8.694  16.613  0.00  0.00    +0.000 HD
ENDROOT
BRANCH   1   8
ATOM      8  C   UNL     1       8.523   8.558  18.372  0.00  0.00    +0.000 C 
BRANCH   8  10
ATOM      9  N   UNL     1       9.840  10.513  19.007  0.00  0.00    +0.000 N 
ATOM     10  C   UNL     1       8.757  10.071  18.273  0.00  0.00    +0.000 C 
ATOM     11  O   UNL     1       8.055  10.798  17.572  0.00  0.00    +0.000 OA
ATOM     12  H   UNL     1      10.266   9.810  19.606  0.00  0.00    +0.000 HD
BRANCH   9  14
ATOM     13  C   UNL     1       9.190  12.774  19.750  0.00  0.00    +0.000 C 
ATOM     14  C   UNL     1      10.292  11.908  19.122  0.00  0.00    +0.000 C 
ATOM     15  C   UNL     1      10.687  12.465  17.744  0.00  0.00    +0.000 C 
ATOM     16  C   UNL     1      11.527  11.960  20.034  0.00  0.00    +0.000 C 
ENDBRANCH   9  14
ENDBRANCH   8  10
ENDBRANCH   1   8
BRANCH   5  17
ATOM     17  C   UNL     1       4.838   3.798  16.675  0.00  0.00    +0.000 C 
BRANCH  17  18
ATOM     18  C   UNL     1       3.716   3.569  17.664  0.00  0.00    +0.000 A 
ATOM     19  C   UNL     1       3.939   2.797  18.818  0.00  0.00    +0.000 A 
ATOM     20  C   UNL     1       2.895   2.531  19.703  0.00  0.00    +0.000 A 
ATOM     21  C   UNL     1       1.632   3.048  19.445  0.00  0.00    +0.000 A 
ATOM     22  F   UNL     1       0.626   2.785  20.290  0.00  0.00    +0.000 F 
ATOM     23  C   UNL     1       1.394   3.829  18.320  0.00  0.00    +0.000 A 
ATOM     24  C   UNL     1       2.435   4.090  17.428  0.00  0.00    +0.000 A 
ENDBRANCH  17  18
ENDBRANCH   5  17
TORSDOF 5
ENDMDL
MODEL 5
REMARK VINA RESULT:      -7.4      1.477      1.713
REMARK  Name = 
REMARK  8 active torsions:
REMARK  status: ('A' for Active; 'I' for Inactive)
REMARK    1  A    between atoms: C_1  and  C_2
REMARK    2  A    between atoms: C_2  and  C_3
REMARK    3  A    between atoms: C_2  and  C_4
REMARK    4  A    between atoms: C_2  and  N_5
REMARK    5  A    between atoms: C_6  and  C_8
REMARK    6  A    between atoms: C_8  and  N_9
REMARK    7  A    between atoms: C_13  and  C_14
REMARK    8  A    between atoms: C_14  and  C_15
REMARK                            x       y       z     vdW  Elec       q    Type
REMARK                         _______ _______ _______ _____ _____    ______ ____
ROOT
ATOM      1  N   UNL     1       8.272   8.235  18.339  0.00  0.00    +0.000 N 
ATOM      2  C   UNL     1       7.431   7.338  17.783  0.00  0.00    +0.000 A 
ATOM      3  N   UNL     1       6.589   7.550  16.796  0.00  0.00    +0.000 NA
ATOM      4  N   UNL     1       5.872   6.424  16.452  0.00  0.00    +0.000 NA
ATOM      5  C   UNL     1       6.229   5.378  17.168  0.00  0.00    +0.000 A 
ATOM      6  S   UNL     1       7.450   5.706  18.328  0.00  0.00    +0.000 S 
ATOM      7  H   UNL     1       8.410   8.189  19.343  0.00  0.00    +0.000 HD
ENDROOT
BRANCH   1   8
ATOM      8  C   UNL     1       8.404   9.574  17.760  0.00  0.00    +0.000 C 
BRANCH   8  10
ATOM      9  N   UNL     1      10.029  11.389  17.920  0.00  0.00    +0.000 N 
ATOM     10  C   UNL     1       9.342  10.421  18.628  0.00  0.00    +0.000 C 
ATOM     11  O   UNL     1       9.433  10.260  19.844  0.00  0.00    +0.000 OA
ATOM     12  H   UNL     1       9.917  11.340  16.910  0.00  0.00    +0.000 HD
BRANCH   9  14
ATOM     13  C   UNL     1      10.335  13.259  19.500  0.00  0.00    +0.000 C 
ATOM     14  C   UNL     1      11.010  12.331  18.479  0.00  0.00    +0.000 C 
ATOM     15  C   UNL     1      11.666  13.157  17.361  0.00  0.00    +0.000 C 
ATOM     16  C   UNL     1      12.110  11.538  19.200  0.00  0.00    +0.000 C 
ENDBRANCH   9  14
ENDBRANCH   8  10
ENDBRANCH   1   8
BRANCH   5  17
ATOM     17  C   UNL     1       5.617   4.019  17.055  0.00  0.00    +0.000 C 
BRANCH  17  18
ATOM     18  C   UNL     1       4.325   3.909  17.835  0.00  0.00    +0.000 A 
ATOM     19  C   UNL     1       4.295   3.214  19.058  0.00  0.00    +0.000 A 
ATOM     20  C   UNL     1       3.096   3.057  19.752  0.00  0.00    +0.000 A 
ATOM     21  C   UNL     1       1.930   3.604  19.233  0.00  0.00    +0.000 A 
ATOM     22  F   UNL     1       0.776   3.445  19.895  0.00  0.00    +0.000 F 
ATOM     23  C   UNL     1       1.940   4.310  18.036  0.00  0.00    +0.000 A 
ATOM     24  C   UNL     1       3.136   4.462  17.335  0.00  0.00    +0.000 A 
ENDBRANCH  17  18
ENDBRANCH   5  17
TORSDOF 5
ENDMDL
MODEL 6
REMARK VINA RESULT:      -7.4      0.625      1.041
REMARK  Name = 
REMARK  8 active torsions:
REMARK  status: ('A' for Active; 'I' for Inactive)
REMARK    1  A    between atoms: C_1  and  C_2
REMARK    2  A    between atoms: C_2  and  C_3
REMARK    3  A    between atoms: C_2  and  C_4
REMARK    4  A    between atoms: C_2  and  N_5
REMARK    5  A    between atoms: C_6  and  C_8
REMARK    6  A    between atoms: C_8  and  N_9
REMARK    7  A    between atoms: C_13  and  C_14
REMARK    8  A    between atoms: C_14  and  C_15
REMARK                            x       y       z     vdW  Elec       q    Type
REMARK                         _______ _______ _______ _____ _____    ______ ____
ROOT
ATOM      1  N   UNL     1       7.373   8.214  17.529  0.00  0.00    +0.000 N 
ATOM      2  C   UNL     1       6.993   6.923  17.426  0.00  0.00    +0.000 A 
ATOM      3  N   UNL     1       7.645   5.871  17.870  0.00  0.00    +0.000 NA
ATOM      4  N   UNL     1       6.987   4.687  17.613  0.00  0.00    +0.000 NA
ATOM      5  C   UNL     1       5.831   4.888  17.017  0.00  0.00    +0.000 A 
ATOM      6  S   UNL     1       5.478   6.539  16.708  0.00  0.00    +0.000 S 
ATOM      7  H   UNL     1       7.179   8.824  16.742  0.00  0.00    +0.000 HD
ENDROOT
BRANCH   1   8
ATOM      8  C   UNL     1       8.563   8.570  18.305  0.00  0.00    +0.000 C 
BRANCH   8  10
ATOM      9  N   UNL     1       9.864  10.519  18.990  0.00  0.00    +0.000 N 
ATOM     10  C   UNL     1       8.779  10.088  18.252  0.00  0.00    +0.000 C 
ATOM     11  O   UNL     1       8.061  10.828  17.581  0.00  0.00    +0.000 OA
ATOM     12  H   UNL     1      10.303   9.803  19.563  0.00  0.00    +0.000 HD
BRANCH   9  14
ATOM     13  C   UNL     1      11.567  11.983  20.011  0.00  0.00    +0.000 C 
ATOM     14  C   UNL     1      10.301  11.915  19.144  0.00  0.00    +0.000 C 
ATOM     15  C   UNL     1       9.183  12.768  19.766  0.00  0.00    +0.000 C 
ATOM     16  C   UNL     1      10.631  12.490  17.759  0.00  0.00    +0.000 C 
ENDBRANCH   9  14
ENDBRANCH   8  10
ENDBRANCH   1   8
BRANCH   5  17
ATOM     17  C   UNL     1       4.897   3.805  16.580  0.00  0.00    +0.000 C 
BRANCH  17  18
ATOM     18  C   UNL     1       3.795   3.561  17.588  0.00  0.00    +0.000 A 
ATOM     19  C   UNL     1       2.461   3.869  17.264  0.00  0.00    +0.000 A 
ATOM     20  C   UNL     1       1.448   3.703  18.207  0.00  0.00    +0.000 A 
ATOM     21  C   UNL     1       1.764   3.217  19.470  0.00  0.00    +0.000 A 
ATOM     22  F   UNL     1       0.793   3.068  20.380  0.00  0.00    +0.000 F 
ATOM     23  C   UNL     1       3.072   2.889  19.805  0.00  0.00    +0.000 A 
ATOM     24  C   UNL     1       4.089   3.061  18.865  0.00  0.00    +0.000 A 
ENDBRANCH  17  18
ENDBRANCH   5  17
TORSDOF 5
ENDMDL
MODEL 7
REMARK VINA RESULT:      -7.3      5.802      7.527
REMARK  Name = 
REMARK  8 active torsions:
REMARK  status: ('A' for Active; 'I' for Inactive)
REMARK    1  A    between atoms: C_1  and  C_2
REMARK    2  A    between atoms: C_2  and  C_3
REMARK    3  A    between atoms: C_2  and  C_4
REMARK    4  A    between atoms: C_2  and  N_5
REMARK    5  A    between atoms: C_6  and  C_8
REMARK    6  A    between atoms: C_8  and  N_9
REMARK    7  A    between atoms: C_13  and  C_14
REMARK    8  A    between atoms: C_14  and  C_15
REMARK                            x       y       z     vdW  Elec       q    Type
REMARK                         _______ _______ _______ _____ _____    ______ ____
ROOT
ATOM      1  N   UNL     1       3.097   6.469  18.403  0.00  0.00    +0.000 N 
ATOM      2  C   UNL     1       2.385   7.525  18.849  0.00  0.00    +0.000 A 
ATOM      3  N   UNL     1       1.844   7.668  20.039  0.00  0.00    +0.000 NA
ATOM      4  N   UNL     1       1.182   8.869  20.185  0.00  0.00    +0.000 NA
ATOM      5  C   UNL     1       1.282   9.618  19.107  0.00  0.00    +0.000 A 
ATOM      6  S   UNL     1       2.172   8.896  17.830  0.00  0.00    +0.000 S 
ATOM      7  H   UNL     1       2.964   6.187  17.438  0.00  0.00    +0.000 HD
ENDROOT
BRANCH   1   8
ATOM      8  C   UNL     1       3.449   5.382  19.320  0.00  0.00    +0.000 C 
BRANCH   8  10
ATOM      9  N   UNL     1       5.662   5.953  18.461  0.00  0.00    +0.000 N 
ATOM     10  C   UNL     1       4.918   4.992  19.118  0.00  0.00    +0.000 C 
ATOM     11  O   UNL     1       5.378   3.933  19.542  0.00  0.00    +0.000 OA
ATOM     12  H   UNL     1       5.123   6.733  18.093  0.00  0.00    +0.000 HD
BRANCH   9  14
ATOM     13  C   UNL     1       7.311   4.676  17.144  0.00  0.00    +0.000 C 
ATOM     14  C   UNL     1       7.086   5.849  18.109  0.00  0.00    +0.000 C 
ATOM     15  C   UNL     1       7.945   5.674  19.371  0.00  0.00    +0.000 C 
ATOM     16  C   UNL     1       7.522   7.144  17.406  0.00  0.00    +0.000 C 
ENDBRANCH   9  14
ENDBRANCH   8  10
ENDBRANCH   1   8
BRANCH   5  17
ATOM     17  C   UNL     1       0.648  10.962  18.941  0.00  0.00    +0.000 C 
BRANCH  17  18
ATOM     18  C   UNL     1      -0.812  10.861  18.558  0.00  0.00    +0.000 A 
ATOM     19  C   UNL     1      -1.226   9.918  17.599  0.00  0.00    +0.000 A 
ATOM     20  C   UNL     1      -2.560   9.860  17.196  0.00  0.00    +0.000 A 
ATOM     21  C   UNL     1      -3.482  10.731  17.760  0.00  0.00    +0.000 A 
ATOM     22  F   UNL     1      -4.762  10.682  17.366  0.00  0.00    +0.000 F 
ATOM     23  C   UNL     1      -3.098  11.657  18.723  0.00  0.00    +0.000 A 
ATOM     24  C   UNL     1      -1.763  11.724  19.122  0.00  0.00    +0.000 A 
ENDBRANCH  17  18
ENDBRANCH   5  17
TORSDOF 5
ENDMDL
MODEL 8
REMARK VINA RESULT:      -7.3      1.219      1.885
REMARK  Name = 
REMARK  8 active torsions:
REMARK  status: ('A' for Active; 'I' for Inactive)
REMARK    1  A    between atoms: C_1  and  C_2
REMARK    2  A    between atoms: C_2  and  C_3
REMARK    3  A    between atoms: C_2  and  C_4
REMARK    4  A    between atoms: C_2  and  N_5
REMARK    5  A    between atoms: C_6  and  C_8
REMARK    6  A    between atoms: C_8  and  N_9
REMARK    7  A    between atoms: C_13  and  C_14
REMARK    8  A    between atoms: C_14  and  C_15
REMARK                            x       y       z     vdW  Elec       q    Type
REMARK                         _______ _______ _______ _____ _____    ______ ____
ROOT
ATOM      1  N   UNL     1       7.858   7.857  18.085  0.00  0.00    +0.000 N 
ATOM      2  C   UNL     1       7.028   6.975  17.489  0.00  0.00    +0.000 A 
ATOM      3  N   UNL     1       6.176   7.224  16.519  0.00  0.00    +0.000 NA
ATOM      4  N   UNL     1       5.474   6.106  16.123  0.00  0.00    +0.000 NA
ATOM      5  C   UNL     1       5.852   5.031  16.782  0.00  0.00    +0.000 A 
ATOM      6  S   UNL     1       7.077   5.318  17.950  0.00  0.00    +0.000 S 
ATOM      7  H   UNL     1       8.005   7.762  19.084  0.00  0.00    +0.000 HD
ENDROOT
BRANCH   1   8
ATOM      8  C   UNL     1       7.965   9.225  17.574  0.00  0.00    +0.000 C 
BRANCH   8  10
ATOM      9  N   UNL     1       9.352  11.214  17.859  0.00  0.00    +0.000 N 
ATOM     10  C   UNL     1       8.959  10.020  18.431  0.00  0.00    +0.000 C 
ATOM     11  O   UNL     1       9.330   9.627  19.536  0.00  0.00    +0.000 OA
ATOM     12  H   UNL     1       9.031  11.358  16.905  0.00  0.00    +0.000 HD
BRANCH   9  14
ATOM     13  C   UNL     1      10.664  13.254  17.405  0.00  0.00    +0.000 C 
ATOM     14  C   UNL     1      10.308  12.172  18.436  0.00  0.00    +0.000 C 
ATOM     15  C   UNL     1      11.579  11.450  18.911  0.00  0.00    +0.000 C 
ATOM     16  C   UNL     1       9.660  12.855  19.650  0.00  0.00    +0.000 C 
ENDBRANCH   9  14
ENDBRANCH   8  10
ENDBRANCH   1   8
BRANCH   5  17
ATOM     17  C   UNL     1       5.261   3.669  16.605  0.00  0.00    +0.000 C 
BRANCH  17  18
ATOM     18  C   UNL     1       3.963   3.507  17.366  0.00  0.00    +0.000 A 
ATOM     19  C   UNL     1       3.158   4.629  17.636  0.00  0.00    +0.000 A 
ATOM     20  C   UNL     1       1.992   4.497  18.388  0.00  0.00    +0.000 A 
ATOM     21  C   UNL     1       1.622   3.244  18.860  0.00  0.00    +0.000 A 
ATOM     22  F   UNL     1       0.506   3.119  19.591  0.00  0.00    +0.000 F 
ATOM     23  C   UNL     1       2.392   2.120  18.589  0.00  0.00    +0.000 A 
ATOM     24  C   UNL     1       3.564   2.249  17.843  0.00  0.00    +0.000 A 
ENDBRANCH  17  18
ENDBRANCH   5  17
TORSDOF 5
ENDMDL
MODEL 9
REMARK VINA RESULT:      -7.1      5.633      7.494
REMARK  Name = 
REMARK  8 active torsions:
REMARK  status: ('A' for Active; 'I' for Inactive)
REMARK    1  A    between atoms: C_1  and  C_2
REMARK    2  A    between atoms: C_2  and  C_3
REMARK    3  A    between atoms: C_2  and  C_4
REMARK    4  A    between atoms: C_2  and  N_5
REMARK    5  A    between atoms: C_6  and  C_8
REMARK    6  A    between atoms: C_8  and  N_9
REMARK    7  A    between atoms: C_13  and  C_14
REMARK    8  A    between atoms: C_14  and  C_15
REMARK                            x       y       z     vdW  Elec       q    Type
REMARK                         _______ _______ _______ _____ _____    ______ ____
ROOT
ATOM      1  N   UNL     1       2.764   5.911  19.420  0.00  0.00    +0.000 N 
ATOM      2  C   UNL     1       2.457   7.135  18.942  0.00  0.00    +0.000 A 
ATOM      3  N   UNL     1       2.660   7.579  17.721  0.00  0.00    +0.000 NA
ATOM      4  N   UNL     1       2.229   8.877  17.545  0.00  0.00    +0.000 NA
ATOM      5  C   UNL     1       1.671   9.360  18.635  0.00  0.00    +0.000 A 
ATOM      6  S   UNL     1       1.656   8.268  19.959  0.00  0.00    +0.000 S 
ATOM      7  H   UNL     1       3.110   5.852  20.372  0.00  0.00    +0.000 HD
ENDROOT
BRANCH   1   8
ATOM      8  C   UNL     1       3.268   4.875  18.516  0.00  0.00    +0.000 C 
BRANCH   8  10
ATOM      9  N   UNL     1       5.534   5.681  18.093  0.00  0.00    +0.000 N 
ATOM     10  C   UNL     1       4.779   4.706  18.717  0.00  0.00    +0.000 C 
ATOM     11  O   UNL     1       5.251   3.800  19.403  0.00  0.00    +0.000 OA
ATOM     12  H   UNL     1       5.007   6.308  17.490  0.00  0.00    +0.000 HD
BRANCH   9  14
ATOM     13  C   UNL     1       7.600   4.616  17.266  0.00  0.00    +0.000 C 
ATOM     14  C   UNL     1       7.002   5.765  18.092  0.00  0.00    +0.000 C 
ATOM     15  C   UNL     1       7.549   5.728  19.529  0.00  0.00    +0.000 C 
ATOM     16  C   UNL     1       7.426   7.094  17.450  0.00  0.00    +0.000 C 
ENDBRANCH   9  14
ENDBRANCH   8  10
ENDBRANCH   1   8
BRANCH   5  17
ATOM     17  C   UNL     1       1.133  10.748  18.775  0.00  0.00    +0.000 C 
BRANCH  17  18
ATOM     18  C   UNL     1      -0.355  10.812  18.507  0.00  0.00    +0.000 A 
ATOM     19  C   UNL     1      -1.149  11.774  19.158  0.00  0.00    +0.000 A 
ATOM     20  C   UNL     1      -2.529  11.800  18.963  0.00  0.00    +0.000 A 
ATOM     21  C   UNL     1      -3.116  10.876  18.108  0.00  0.00    +0.000 A 
ATOM     22  F   UNL     1      -4.443  10.895  17.927  0.00  0.00    +0.000 F 
ATOM     23  C   UNL     1      -2.348   9.930  17.440  0.00  0.00    +0.000 A 
ATOM     24  C   UNL     1      -0.968   9.895  17.639  0.00  0.00    +0.000 A 
ENDBRANCH  17  18
ENDBRANCH   5  17
TORSDOF 5
ENDMDL
