MODEL 1
REMARK VINA RESULT:      -8.3      0.000      0.000
REMARK  Name = 
REMARK  4 active torsions:
REMARK  status: ('A' for Active; 'I' for Inactive)
REMARK    1  A    between atoms: C_4  and  C_5
REMARK    2  A    between atoms: C_10  and  C_11
REMARK    3  A    between atoms: C_11  and  C_12
REMARK    4  A    between atoms: C_12  and  N_13
REMARK                            x       y       z     vdW  Elec       q    Type
REMARK                         _______ _______ _______ _____ _____    ______ ____
ROOT
ATOM      1  C   UNL     1       7.072   4.699  16.068  0.00  0.00    +0.000 A 
ATOM      2  N   UNL     1       8.001   4.180  16.870  0.00  0.00    +0.000 NA
ATOM      3  N   UNL     1       7.691   4.493  18.193  0.00  0.00    +0.000 NA
ATOM      4  C   UNL     1       6.584   5.171  18.134  0.00  0.00    +0.000 A 
ATOM      5  S   UNL     1       5.474   5.865  19.232  0.00  0.00    +0.000 S 
ATOM      6  C   UNL     1       4.499   6.278  17.800  0.00  0.00    +0.000 A 
ATOM      7  N   UNL     1       4.969   5.962  16.626  0.00  0.00    +0.000 NA
ATOM      8  N   UNL     1       6.150   5.333  16.866  0.00  0.00    +0.000 N 
ENDROOT
BRANCH   1  12
ATOM      9  C   UNL     1       6.847   4.292  11.822  0.00  0.00    +0.000 A 
ATOM     10  C   UNL     1       6.029   3.525  12.651  0.00  0.00    +0.000 A 
ATOM     11  C   UNL     1       6.106   3.668  14.038  0.00  0.00    +0.000 A 
ATOM     12  C   UNL     1       6.997   4.586  14.614  0.00  0.00    +0.000 A 
ATOM     13  C   UNL     1       7.806   5.357  13.767  0.00  0.00    +0.000 A 
ATOM     14  C   UNL     1       7.732   5.211  12.379  0.00  0.00    +0.000 A 
ENDBRANCH   1  12
BRANCH   6  15
ATOM     15  C   UNL     1       3.171   6.939  17.997  0.00  0.00    +0.000 C 
BRANCH  15  16
ATOM     16  C   UNL     1       2.071   5.882  17.820  0.00  0.00    +0.000 C 
BRANCH  16  17
ATOM     17  N   UNL     1       2.136   4.754  18.771  0.00  0.00    +0.000 NA
ATOM     18  C   UNL     1       1.655   5.183  20.092  0.00  0.00    +0.000 C 
ATOM     19  C   UNL     1       2.302   4.396  21.237  0.00  0.00    +0.000 C 
ATOM     20  C   UNL     1       1.725   3.011  21.490  0.00  0.00    +0.000 C 
ATOM     21  C   UNL     1       1.785   2.074  20.292  0.00  0.00    +0.000 C 
ATOM     22  C   UNL     1       0.868   2.529  19.169  0.00  0.00    +0.000 C 
ATOM     23  C   UNL     1       1.483   3.559  18.224  0.00  0.00    +0.000 C 
ENDBRANCH  16  17
ENDBRANCH  15  16
ENDBRANCH   6  15
TORSDOF 4
ENDMDL
MODEL 2
REMARK VINA RESULT:      -8.2      0.043      1.006
REMARK  Name = 
REMARK  4 active torsions:
REMARK  status: ('A' for Active; 'I' for Inactive)
REMARK    1  A    between atoms: C_4  and  C_5
REMARK    2  A    between atoms: C_10  and  C_11
REMARK    3  A    between atoms: C_11  and  C_12
REMARK    4  A    between atoms: C_12  and  N_13
REMARK                            x       y       z     vdW  Elec       q    Type
REMARK                         _______ _______ _______ _____ _____    ______ ____
ROOT
ATOM      1  C   UNL     1       7.077   4.681  16.105  0.00  0.00    +0.000 A 
ATOM      2  N   UNL     1       8.019   4.191  16.911  0.00  0.00    +0.000 NA
ATOM      3  N   UNL     1       7.715   4.529  18.229  0.00  0.00    +0.000 NA
ATOM      4  C   UNL     1       6.599   5.191  18.165  0.00  0.00    +0.000 A 
ATOM      5  S   UNL     1       5.488   5.894  19.257  0.00  0.00    +0.000 S 
ATOM      6  C   UNL     1       4.497   6.264  17.823  0.00  0.00    +0.000 A 
ATOM      7  N   UNL     1       4.961   5.928  16.654  0.00  0.00    +0.000 NA
ATOM      8  N   UNL     1       6.152   5.320  16.898  0.00  0.00    +0.000 N 
ENDROOT
BRANCH   1  12
ATOM      9  C   UNL     1       6.830   4.331  11.855  0.00  0.00    +0.000 A 
ATOM     10  C   UNL     1       7.717   5.234  12.441  0.00  0.00    +0.000 A 
ATOM     11  C   UNL     1       7.793   5.338  13.832  0.00  0.00    +0.000 A 
ATOM     12  C   UNL     1       6.991   4.535  14.655  0.00  0.00    +0.000 A 
ATOM     13  C   UNL     1       6.112   3.625  14.051  0.00  0.00    +0.000 A 
ATOM     14  C   UNL     1       6.031   3.523  12.660  0.00  0.00    +0.000 A 
ENDBRANCH   1  12
BRANCH   6  15
ATOM     15  C   UNL     1       3.162   6.911  18.017  0.00  0.00    +0.000 C 
BRANCH  15  16
ATOM     16  C   UNL     1       2.072   5.847  17.824  0.00  0.00    +0.000 C 
BRANCH  16  17
ATOM     17  N   UNL     1       2.129   4.721  18.778  0.00  0.00    +0.000 NA
ATOM     18  C   UNL     1       1.647   5.157  20.097  0.00  0.00    +0.000 C 
ATOM     19  C   UNL     1       2.287   4.370  21.246  0.00  0.00    +0.000 C 
ATOM     20  C   UNL     1       1.701   2.988  21.502  0.00  0.00    +0.000 C 
ATOM     21  C   UNL     1       1.759   2.047  20.306  0.00  0.00    +0.000 C 
ATOM     22  C   UNL     1       0.846   2.504  19.180  0.00  0.00    +0.000 C 
ATOM     23  C   UNL     1       1.469   3.528  18.233  0.00  0.00    +0.000 C 
ENDBRANCH  16  17
ENDBRANCH  15  16
ENDBRANCH   6  15
TORSDOF 4
ENDMDL
MODEL 3
REMARK VINA RESULT:      -8.0      2.102      3.553
REMARK  Name = 
REMARK  4 active torsions:
REMARK  status: ('A' for Active; 'I' for Inactive)
REMARK    1  A    between atoms: C_4  and  C_5
REMARK    2  A    between atoms: C_10  and  C_11
REMARK    3  A    between atoms: C_11  and  C_12
REMARK    4  A    between atoms: C_12  and  N_13
REMARK                            x       y       z     vdW  Elec       q    Type
REMARK                         _______ _______ _______ _____ _____    ______ ____
ROOT
ATOM      1  C   UNL     1       6.966   4.614  16.120  0.00  0.00    +0.000 A 
ATOM      2  N   UNL     1       7.993   4.296  16.908  0.00  0.00    +0.000 NA
ATOM      3  N   UNL     1       7.627   4.494  18.239  0.00  0.00    +0.000 NA
ATOM      4  C   UNL     1       6.395   4.905  18.198  0.00  0.00    +0.000 A 
ATOM      5  S   UNL     1       5.162   5.298  19.314  0.00  0.00    +0.000 S 
ATOM      6  C   UNL     1       4.112   5.520  17.892  0.00  0.00    +0.000 A 
ATOM      7  N   UNL     1       4.635   5.352  16.711  0.00  0.00    +0.000 NA
ATOM      8  N   UNL     1       5.929   5.000  16.935  0.00  0.00    +0.000 N 
ENDROOT
BRANCH   1  12
ATOM      9  C   UNL     1       6.800   4.285  11.864  0.00  0.00    +0.000 A 
ATOM     10  C   UNL     1       5.967   3.507  12.667  0.00  0.00    +0.000 A 
ATOM     11  C   UNL     1       6.025   3.624  14.058  0.00  0.00    +0.000 A 
ATOM     12  C   UNL     1       6.911   4.527  14.663  0.00  0.00    +0.000 A 
ATOM     13  C   UNL     1       7.736   5.310  13.842  0.00  0.00    +0.000 A 
ATOM     14  C   UNL     1       7.681   5.189  12.451  0.00  0.00    +0.000 A 
ENDBRANCH   1  12
BRANCH   6  15
ATOM     15  C   UNL     1       2.669   5.857  18.106  0.00  0.00    +0.000 C 
BRANCH  15  16
ATOM     16  C   UNL     1       2.509   6.436  19.519  0.00  0.00    +0.000 C 
BRANCH  16  17
ATOM     17  N   UNL     1       2.173   7.873  19.566  0.00  0.00    +0.000 NA
ATOM     18  C   UNL     1       1.665   8.312  18.258  0.00  0.00    +0.000 C 
ATOM     19  C   UNL     1       1.952   9.793  17.984  0.00  0.00    +0.000 C 
ATOM     20  C   UNL     1       1.016  10.781  18.666  0.00  0.00    +0.000 C 
ATOM     21  C   UNL     1       0.976  10.667  20.183  0.00  0.00    +0.000 C 
ATOM     22  C   UNL     1       0.343   9.363  20.639  0.00  0.00    +0.000 C 
ATOM     23  C   UNL     1       1.306   8.180  20.710  0.00  0.00    +0.000 C 
ENDBRANCH  16  17
ENDBRANCH  15  16
ENDBRANCH   6  15
TORSDOF 4
ENDMDL
MODEL 4
REMARK VINA RESULT:      -7.9      0.559      1.359
REMARK  Name = 
REMARK  4 active torsions:
REMARK  status: ('A' for Active; 'I' for Inactive)
REMARK    1  A    between atoms: C_4  and  C_5
REMARK    2  A    between atoms: C_10  and  C_11
REMARK    3  A    between atoms: C_11  and  C_12
REMARK    4  A    between atoms: C_12  and  N_13
REMARK                            x       y       z     vdW  Elec       q    Type
REMARK                         _______ _______ _______ _____ _____    ______ ____
ROOT
ATOM      1  C   UNL     1       7.051   4.693  15.996  0.00  0.00    +0.000 A 
ATOM      2  N   UNL     1       8.012   4.233  16.798  0.00  0.00    +0.000 NA
ATOM      3  N   UNL     1       7.702   4.561  18.118  0.00  0.00    +0.000 NA
ATOM      4  C   UNL     1       6.565   5.187  18.057  0.00  0.00    +0.000 A 
ATOM      5  S   UNL     1       5.437   5.854  19.154  0.00  0.00    +0.000 S 
ATOM      6  C   UNL     1       4.429   6.192  17.724  0.00  0.00    +0.000 A 
ATOM      7  N   UNL     1       4.899   5.872  16.553  0.00  0.00    +0.000 NA
ATOM      8  N   UNL     1       6.110   5.302  16.792  0.00  0.00    +0.000 N 
ENDROOT
BRANCH   1  12
ATOM      9  C   UNL     1       6.794   4.185  11.763  0.00  0.00    +0.000 A 
ATOM     10  C   UNL     1       5.971   3.450  12.615  0.00  0.00    +0.000 A 
ATOM     11  C   UNL     1       6.059   3.626  13.998  0.00  0.00    +0.000 A 
ATOM     12  C   UNL     1       6.965   4.545  14.546  0.00  0.00    +0.000 A 
ATOM     13  C   UNL     1       7.779   5.284  13.675  0.00  0.00    +0.000 A 
ATOM     14  C   UNL     1       7.695   5.105  12.292  0.00  0.00    +0.000 A 
ENDBRANCH   1  12
BRANCH   6  15
ATOM     15  C   UNL     1       3.074   6.797  17.923  0.00  0.00    +0.000 C 
BRANCH  15  16
ATOM     16  C   UNL     1       2.667   6.608  19.392  0.00  0.00    +0.000 C 
BRANCH  16  17
ATOM     17  N   UNL     1       1.982   5.333  19.686  0.00  0.00    +0.000 NA
ATOM     18  C   UNL     1       2.197   4.382  18.586  0.00  0.00    +0.000 C 
ATOM     19  C   UNL     1       1.043   3.385  18.438  0.00  0.00    +0.000 C 
ATOM     20  C   UNL     1       1.045   2.225  19.424  0.00  0.00    +0.000 C 
ATOM     21  C   UNL     1       1.013   2.643  20.888  0.00  0.00    +0.000 C 
ATOM     22  C   UNL     1       2.297   3.337  21.309  0.00  0.00    +0.000 C 
ATOM     23  C   UNL     1       2.334   4.836  21.022  0.00  0.00    +0.000 C 
ENDBRANCH  16  17
ENDBRANCH  15  16
ENDBRANCH   6  15
TORSDOF 4
ENDMDL
MODEL 5
REMARK VINA RESULT:      -7.9      2.060      3.387
REMARK  Name = 
REMARK  4 active torsions:
REMARK  status: ('A' for Active; 'I' for Inactive)
REMARK    1  A    between atoms: C_4  and  C_5
REMARK    2  A    between atoms: C_10  and  C_11
REMARK    3  A    between atoms: C_11  and  C_12
REMARK    4  A    between atoms: C_12  and  N_13
REMARK                            x       y       z     vdW  Elec       q    Type
REMARK                         _______ _______ _______ _____ _____    ______ ____
ROOT
ATOM      1  C   UNL     1       6.994   4.579  16.090  0.00  0.00    +0.000 A 
ATOM      2  N   UNL     1       8.039   4.332  16.879  0.00  0.00    +0.000 NA
ATOM      3  N   UNL     1       7.659   4.503  18.210  0.00  0.00    +0.000 NA
ATOM      4  C   UNL     1       6.402   4.829  18.168  0.00  0.00    +0.000 A 
ATOM      5  S   UNL     1       5.144   5.136  19.283  0.00  0.00    +0.000 S 
ATOM      6  C   UNL     1       4.083   5.288  17.861  0.00  0.00    +0.000 A 
ATOM      7  N   UNL     1       4.617   5.157  16.680  0.00  0.00    +0.000 NA
ATOM      8  N   UNL     1       5.931   4.893  16.904  0.00  0.00    +0.000 N 
ENDROOT
BRANCH   1  12
ATOM      9  C   UNL     1       6.852   4.244  11.834  0.00  0.00    +0.000 A 
ATOM     10  C   UNL     1       6.053   3.429  12.635  0.00  0.00    +0.000 A 
ATOM     11  C   UNL     1       6.103   3.549  14.026  0.00  0.00    +0.000 A 
ATOM     12  C   UNL     1       6.946   4.491  14.633  0.00  0.00    +0.000 A 
ATOM     13  C   UNL     1       7.735   5.310  13.814  0.00  0.00    +0.000 A 
ATOM     14  C   UNL     1       7.690   5.187  12.423  0.00  0.00    +0.000 A 
ENDBRANCH   1  12
BRANCH   6  15
ATOM     15  C   UNL     1       2.620   5.526  18.074  0.00  0.00    +0.000 C 
BRANCH  15  16
ATOM     16  C   UNL     1       2.439   6.302  19.386  0.00  0.00    +0.000 C 
BRANCH  16  17
ATOM     17  N   UNL     1       1.659   7.550  19.265  0.00  0.00    +0.000 NA
ATOM     18  C   UNL     1       1.701   8.292  20.534  0.00  0.00    +0.000 C 
ATOM     19  C   UNL     1       0.449   9.148  20.756  0.00  0.00    +0.000 C 
ATOM     20  C   UNL     1       0.414  10.468  19.999  0.00  0.00    +0.000 C 
ATOM     21  C   UNL     1       0.529  10.332  18.488  0.00  0.00    +0.000 C 
ATOM     22  C   UNL     1       1.902   9.835  18.065  0.00  0.00    +0.000 C 
ATOM     23  C   UNL     1       2.059   8.316  18.079  0.00  0.00    +0.000 C 
ENDBRANCH  16  17
ENDBRANCH  15  16
ENDBRANCH   6  15
TORSDOF 4
ENDMDL
MODEL 6
REMARK VINA RESULT:      -7.8      0.449      1.636
REMARK  Name = 
REMARK  4 active torsions:
REMARK  status: ('A' for Active; 'I' for Inactive)
REMARK    1  A    between atoms: C_4  and  C_5
REMARK    2  A    between atoms: C_10  and  C_11
REMARK    3  A    between atoms: C_11  and  C_12
REMARK    4  A    between atoms: C_12  and  N_13
REMARK                            x       y       z     vdW  Elec       q    Type
REMARK                         _______ _______ _______ _____ _____    ______ ____
ROOT
ATOM      1  C   UNL     1       7.013   4.635  16.037  0.00  0.00    +0.000 A 
ATOM      2  N   UNL     1       8.011   4.237  16.827  0.00  0.00    +0.000 NA
ATOM      3  N   UNL     1       7.694   4.540  18.151  0.00  0.00    +0.000 NA
ATOM      4  C   UNL     1       6.519   5.091  18.105  0.00  0.00    +0.000 A 
ATOM      5  S   UNL     1       5.361   5.680  19.216  0.00  0.00    +0.000 S 
ATOM      6  C   UNL     1       4.318   5.956  17.798  0.00  0.00    +0.000 A 
ATOM      7  N   UNL     1       4.795   5.670  16.620  0.00  0.00    +0.000 NA
ATOM      8  N   UNL     1       6.043   5.180  16.845  0.00  0.00    +0.000 N 
ENDROOT
BRANCH   1  12
ATOM      9  C   UNL     1       6.751   4.275  11.788  0.00  0.00    +0.000 A 
ATOM     10  C   UNL     1       7.685   5.132  12.370  0.00  0.00    +0.000 A 
ATOM     11  C   UNL     1       7.766   5.240  13.760  0.00  0.00    +0.000 A 
ATOM     12  C   UNL     1       6.921   4.486  14.587  0.00  0.00    +0.000 A 
ATOM     13  C   UNL     1       5.995   3.621  13.987  0.00  0.00    +0.000 A 
ATOM     14  C   UNL     1       5.909   3.516  12.597  0.00  0.00    +0.000 A 
ENDBRANCH   1  12
BRANCH   6  15
ATOM     15  C   UNL     1       2.929   6.470  18.014  0.00  0.00    +0.000 C 
BRANCH  15  16
ATOM     16  C   UNL     1       1.938   5.336  17.715  0.00  0.00    +0.000 C 
BRANCH  16  17
ATOM     17  N   UNL     1       1.677   4.426  18.849  0.00  0.00    +0.000 NA
ATOM     18  C   UNL     1       2.494   3.211  18.714  0.00  0.00    +0.000 C 
ATOM     19  C   UNL     1       1.837   1.986  19.361  0.00  0.00    +0.000 C 
ATOM     20  C   UNL     1       1.969   1.893  20.874  0.00  0.00    +0.000 C 
ATOM     21  C   UNL     1       1.401   3.084  21.632  0.00  0.00    +0.000 C 
ATOM     22  C   UNL     1       2.206   4.350  21.386  0.00  0.00    +0.000 C 
ATOM     23  C   UNL     1       1.803   5.125  20.133  0.00  0.00    +0.000 C 
ENDBRANCH  16  17
ENDBRANCH  15  16
ENDBRANCH   6  15
TORSDOF 4
ENDMDL
MODEL 7
REMARK VINA RESULT:      -7.8      2.216      3.608
REMARK  Name = 
REMARK  4 active torsions:
REMARK  status: ('A' for Active; 'I' for Inactive)
REMARK    1  A    between atoms: C_4  and  C_5
REMARK    2  A    between atoms: C_10  and  C_11
REMARK    3  A    between atoms: C_11  and  C_12
REMARK    4  A    between atoms: C_12  and  N_13
REMARK                            x       y       z     vdW  Elec       q    Type
REMARK                         _______ _______ _______ _____ _____    ______ ____
ROOT
ATOM      1  C   UNL     1       6.982   4.591  16.103  0.00  0.00    +0.000 A 
ATOM      2  N   UNL     1       8.012   4.286  16.893  0.00  0.00    +0.000 NA
ATOM      3  N   UNL     1       7.655   4.520  18.221  0.00  0.00    +0.000 NA
ATOM      4  C   UNL     1       6.426   4.939  18.177  0.00  0.00    +0.000 A 
ATOM      5  S   UNL     1       5.202   5.368  19.290  0.00  0.00    +0.000 S 
ATOM      6  C   UNL     1       4.145   5.562  17.869  0.00  0.00    +0.000 A 
ATOM      7  N   UNL     1       4.659   5.360  16.690  0.00  0.00    +0.000 NA
ATOM      8  N   UNL     1       5.952   5.005  16.914  0.00  0.00    +0.000 N 
ENDROOT
BRANCH   1  12
ATOM      9  C   UNL     1       6.797   4.308  11.845  0.00  0.00    +0.000 A 
ATOM     10  C   UNL     1       7.691   5.185  12.458  0.00  0.00    +0.000 A 
ATOM     11  C   UNL     1       7.748   5.267  13.851  0.00  0.00    +0.000 A 
ATOM     12  C   UNL     1       6.917   4.468  14.649  0.00  0.00    +0.000 A 
ATOM     13  C   UNL     1       6.030   3.584  14.019  0.00  0.00    +0.000 A 
ATOM     14  C   UNL     1       5.970   3.504  12.625  0.00  0.00    +0.000 A 
ENDBRANCH   1  12
BRANCH   6  15
ATOM     15  C   UNL     1       2.706   5.915  18.083  0.00  0.00    +0.000 C 
BRANCH  15  16
ATOM     16  C   UNL     1       2.589   6.710  19.391  0.00  0.00    +0.000 C 
BRANCH  16  17
ATOM     17  N   UNL     1       1.618   7.822  19.357  0.00  0.00    +0.000 NA
ATOM     18  C   UNL     1       1.520   8.443  20.686  0.00  0.00    +0.000 C 
ATOM     19  C   UNL     1       0.142   9.063  20.944  0.00  0.00    +0.000 C 
ATOM     20  C   UNL     1      -0.095  10.424  20.304  0.00  0.00    +0.000 C 
ATOM     21  C   UNL     1       0.064  10.446  18.790  0.00  0.00    +0.000 C 
ATOM     22  C   UNL     1       1.505  10.215  18.367  0.00  0.00    +0.000 C 
ATOM     23  C   UNL     1       1.907   8.747  18.254  0.00  0.00    +0.000 C 
ENDBRANCH  16  17
ENDBRANCH  15  16
ENDBRANCH   6  15
TORSDOF 4
ENDMDL
MODEL 8
REMARK VINA RESULT:      -7.5      3.897      5.431
REMARK  Name = 
REMARK  4 active torsions:
REMARK  status: ('A' for Active; 'I' for Inactive)
REMARK    1  A    between atoms: C_4  and  C_5
REMARK    2  A    between atoms: C_10  and  C_11
REMARK    3  A    between atoms: C_11  and  C_12
REMARK    4  A    between atoms: C_12  and  N_13
REMARK                            x       y       z     vdW  Elec       q    Type
REMARK                         _______ _______ _______ _____ _____    ______ ____
ROOT
ATOM      1  C   UNL     1       4.302   3.890  18.439  0.00  0.00    +0.000 A 
ATOM      2  N   UNL     1       4.028   2.712  18.999  0.00  0.00    +0.000 NA
ATOM      3  N   UNL     1       3.080   2.893  20.006  0.00  0.00    +0.000 NA
ATOM      4  C   UNL     1       2.811   4.164  19.999  0.00  0.00    +0.000 A 
ATOM      5  S   UNL     1       1.745   5.228  20.805  0.00  0.00    +0.000 S 
ATOM      6  C   UNL     1       2.383   6.493  19.725  0.00  0.00    +0.000 A 
ATOM      7  N   UNL     1       3.315   6.163  18.877  0.00  0.00    +0.000 NA
ATOM      8  N   UNL     1       3.521   4.833  19.066  0.00  0.00    +0.000 N 
ENDROOT
BRANCH   1  12
ATOM      9  C   UNL     1       7.006   4.712  15.237  0.00  0.00    +0.000 A 
ATOM     10  C   UNL     1       7.436   4.781  16.561  0.00  0.00    +0.000 A 
ATOM     11  C   UNL     1       6.546   4.506  17.602  0.00  0.00    +0.000 A 
ATOM     12  C   UNL     1       5.217   4.151  17.331  0.00  0.00    +0.000 A 
ATOM     13  C   UNL     1       4.802   4.076  15.994  0.00  0.00    +0.000 A 
ATOM     14  C   UNL     1       5.691   4.356  14.953  0.00  0.00    +0.000 A 
ENDBRANCH   1  12
BRANCH   6  15
ATOM     15  C   UNL     1       1.805   7.872  19.808  0.00  0.00    +0.000 C 
BRANCH  15  16
ATOM     16  C   UNL     1       1.500   8.185  21.279  0.00  0.00    +0.000 C 
BRANCH  16  17
ATOM     17  N   UNL     1       0.797   9.463  21.509  0.00  0.00    +0.000 NA
ATOM     18  C   UNL     1      -0.166   9.707  20.426  0.00  0.00    +0.000 C 
ATOM     19  C   UNL     1      -0.403  11.201  20.176  0.00  0.00    +0.000 C 
ATOM     20  C   UNL     1      -1.346  11.889  21.154  0.00  0.00    +0.000 C 
ATOM     21  C   UNL     1      -0.917  11.801  22.611  0.00  0.00    +0.000 C 
ATOM     22  C   UNL     1      -0.995  10.379  23.143  0.00  0.00    +0.000 C 
ATOM     23  C   UNL     1       0.243   9.529  22.867  0.00  0.00    +0.000 C 
ENDBRANCH  16  17
ENDBRANCH  15  16
ENDBRANCH   6  15
TORSDOF 4
ENDMDL
MODEL 9
REMARK VINA RESULT:      -7.3      3.934      5.384
REMARK  Name = 
REMARK  4 active torsions:
REMARK  status: ('A' for Active; 'I' for Inactive)
REMARK    1  A    between atoms: C_4  and  C_5
REMARK    2  A    between atoms: C_10  and  C_11
REMARK    3  A    between atoms: C_11  and  C_12
REMARK    4  A    between atoms: C_12  and  N_13
REMARK                            x       y       z     vdW  Elec       q    Type
REMARK                         _______ _______ _______ _____ _____    ______ ____
ROOT
ATOM      1  C   UNL     1       4.371   3.943  18.505  0.00  0.00    +0.000 A 
ATOM      2  N   UNL     1       4.126   2.770  19.089  0.00  0.00    +0.000 NA
ATOM      3  N   UNL     1       3.177   2.948  20.095  0.00  0.00    +0.000 NA
ATOM      4  C   UNL     1       2.879   4.212  20.064  0.00  0.00    +0.000 A 
ATOM      5  S   UNL     1       1.790   5.267  20.853  0.00  0.00    +0.000 S 
ATOM      6  C   UNL     1       2.395   6.525  19.746  0.00  0.00    +0.000 A 
ATOM      7  N   UNL     1       3.332   6.200  18.902  0.00  0.00    +0.000 NA
ATOM      8  N   UNL     1       3.571   4.879  19.116  0.00  0.00    +0.000 N 
ENDROOT
BRANCH   1  12
ATOM      9  C   UNL     1       6.992   4.642  15.206  0.00  0.00    +0.000 A 
ATOM     10  C   UNL     1       5.666   4.272  14.990  0.00  0.00    +0.000 A 
ATOM     11  C   UNL     1       4.815   4.050  16.075  0.00  0.00    +0.000 A 
ATOM     12  C   UNL     1       5.277   4.203  17.390  0.00  0.00    +0.000 A 
ATOM     13  C   UNL     1       6.611   4.585  17.591  0.00  0.00    +0.000 A 
ATOM     14  C   UNL     1       7.464   4.802  16.506  0.00  0.00    +0.000 A 
ENDBRANCH   1  12
BRANCH   6  15
ATOM     15  C   UNL     1       1.785   7.891  19.803  0.00  0.00    +0.000 C 
BRANCH  15  16
ATOM     16  C   UNL     1       1.390   8.187  21.257  0.00  0.00    +0.000 C 
BRANCH  16  17
ATOM     17  N   UNL     1       0.468   9.328  21.429  0.00  0.00    +0.000 NA
ATOM     18  C   UNL     1       0.335   9.653  22.857  0.00  0.00    +0.000 C 
ATOM     19  C   UNL     1      -1.027  10.272  23.193  0.00  0.00    +0.000 C 
ATOM     20  C   UNL     1      -1.178  11.749  22.855  0.00  0.00    +0.000 C 
ATOM     21  C   UNL     1      -0.949  12.086  21.388  0.00  0.00    +0.000 C 
ATOM     22  C   UNL     1       0.500  11.880  20.978  0.00  0.00    +0.000 C 
ATOM     23  C   UNL     1       0.845  10.452  20.563  0.00  0.00    +0.000 C 
ENDBRANCH  16  17
ENDBRANCH  15  16
ENDBRANCH   6  15
TORSDOF 4
ENDMDL
