MODEL 1
REMARK VINA RESULT:      -9.2      0.000      0.000
REMARK  Name = 
REMARK  4 active torsions:
REMARK  status: ('A' for Active; 'I' for Inactive)
REMARK    1  A    between atoms: C_1  and  N_2
REMARK    2  A    between atoms: C_8  and  N_9
REMARK    3  A    between atoms: C_10  and  C_12
REMARK    4  A    between atoms: N_14  and  C_15
REMARK                            x       y       z     vdW  Elec       q    Type
REMARK                         _______ _______ _______ _____ _____    ______ ____
ROOT
ATOM      1  N   UNL     1       1.331   7.706  21.261  0.00  0.00    +0.000 N 
ATOM      2  C   UNL     1       1.916   7.433  20.034  0.00  0.00    +0.000 C 
ATOM      3  O   UNL     1       1.984   8.169  19.057  0.00  0.00    +0.000 OA
ATOM      4  H   UNL     1       1.350   6.948  21.938  0.00  0.00    +0.000 HD
ENDROOT
BRANCH   1  12
ATOM      5  C   UNL     1      -0.409  14.871  21.364  0.00  0.00    +0.000 C 
ATOM      6  N   UNL     1      -0.260  13.448  21.534  0.00  0.00    +0.000 N 
ATOM      7  C   UNL     1      -0.903  12.729  22.500  0.00  0.00    +0.000 C 
ATOM      8  O   UNL     1      -1.687  13.102  23.352  0.00  0.00    +0.000 OA
ATOM      9  C   UNL     1      -0.462  11.349  22.343  0.00  0.00    +0.000 A 
ATOM     10  C   UNL     1      -0.805  10.234  23.069  0.00  0.00    +0.000 A 
ATOM     11  C   UNL     1      -0.205   9.025  22.700  0.00  0.00    +0.000 A 
ATOM     12  C   UNL     1       0.719   8.933  21.631  0.00  0.00    +0.000 A 
ATOM     13  C   UNL     1       1.037  10.097  20.906  0.00  0.00    +0.000 A 
ATOM     14  C   UNL     1       0.432  11.289  21.290  0.00  0.00    +0.000 A 
ATOM     15  C   UNL     1       0.559  12.655  20.769  0.00  0.00    +0.000 C 
ATOM     16  O   UNL     1       1.272  12.960  19.839  0.00  0.00    +0.000 OA
ENDBRANCH   1  12
BRANCH   2  17
ATOM     17  C   UNL     1       2.563   6.060  19.897  0.00  0.00    +0.000 C 
ATOM     18  N   UNL     1       3.479   5.870  18.996  0.00  0.00    +0.000 NA
ATOM     19  N   UNL     1       4.012   4.596  18.847  0.00  0.00    +0.000 N 
ATOM     20  C   UNL     1       3.522   3.453  19.496  0.00  0.00    +0.000 C 
ATOM     21  O   UNL     1       3.985   2.314  19.400  0.00  0.00    +0.000 OA
ATOM     22  C   UNL     1       2.289   3.638  20.335  0.00  0.00    +0.000 C 
ATOM     23  C   UNL     1       2.121   5.024  20.883  0.00  0.00    +0.000 C 
BRANCH  19  24
ATOM     24  C   UNL     1       5.029   4.520  17.839  0.00  0.00    +0.000 A 
ATOM     25  C   UNL     1       4.712   4.310  16.488  0.00  0.00    +0.000 A 
ATOM     26  C   UNL     1       5.705   4.287  15.504  0.00  0.00    +0.000 A 
ATOM     27  C   UNL     1       7.038   4.459  15.858  0.00  0.00    +0.000 A 
ATOM     28  C   UNL     1       7.379   4.658  17.195  0.00  0.00    +0.000 A 
ATOM     29  C   UNL     1       6.381   4.698  18.175  0.00  0.00    +0.000 A 
ENDBRANCH  19  24
ENDBRANCH   2  17
TORSDOF 3
ENDMDL
MODEL 2
REMARK VINA RESULT:      -9.1      0.463      1.020
REMARK  Name = 
REMARK  4 active torsions:
REMARK  status: ('A' for Active; 'I' for Inactive)
REMARK    1  A    between atoms: C_1  and  N_2
REMARK    2  A    between atoms: C_8  and  N_9
REMARK    3  A    between atoms: C_10  and  C_12
REMARK    4  A    between atoms: N_14  and  C_15
REMARK                            x       y       z     vdW  Elec       q    Type
REMARK                         _______ _______ _______ _____ _____    ______ ____
ROOT
ATOM      1  N   UNL     1       1.230   7.691  21.163  0.00  0.00    +0.000 N 
ATOM      2  C   UNL     1       1.941   7.471  19.993  0.00  0.00    +0.000 C 
ATOM      3  O   UNL     1       2.126   8.255  19.071  0.00  0.00    +0.000 OA
ATOM      4  H   UNL     1       1.164   6.898  21.796  0.00  0.00    +0.000 HD
ENDROOT
BRANCH   1  12
ATOM      5  C   UNL     1      -1.299  14.610  20.816  0.00  0.00    +0.000 C 
ATOM      6  N   UNL     1      -0.929  13.252  21.124  0.00  0.00    +0.000 N 
ATOM      7  C   UNL     1      -1.170  12.655  22.328  0.00  0.00    +0.000 C 
ATOM      8  O   UNL     1      -1.716  13.101  23.319  0.00  0.00    +0.000 OA
ATOM      9  C   UNL     1      -0.622  11.308  22.233  0.00  0.00    +0.000 A 
ATOM     10  C   UNL     1      -0.598  10.306  23.174  0.00  0.00    +0.000 A 
ATOM     11  C   UNL     1       0.018   9.105  22.807  0.00  0.00    +0.000 A 
ATOM     12  C   UNL     1       0.600   8.910  21.531  0.00  0.00    +0.000 A 
ATOM     13  C   UNL     1       0.546   9.958  20.593  0.00  0.00    +0.000 A 
ATOM     14  C   UNL     1      -0.068  11.144  20.977  0.00  0.00    +0.000 A 
ATOM     15  C   UNL     1      -0.270  12.410  20.262  0.00  0.00    +0.000 C 
ATOM     16  O   UNL     1       0.101  12.612  19.126  0.00  0.00    +0.000 OA
ENDBRANCH   1  12
BRANCH   2  17
ATOM     17  C   UNL     1       2.578   6.094  19.852  0.00  0.00    +0.000 C 
ATOM     18  N   UNL     1       3.503   5.903  18.961  0.00  0.00    +0.000 NA
ATOM     19  N   UNL     1       4.028   4.627  18.808  0.00  0.00    +0.000 N 
ATOM     20  C   UNL     1       3.520   3.482  19.441  0.00  0.00    +0.000 C 
ATOM     21  O   UNL     1       3.975   2.340  19.340  0.00  0.00    +0.000 OA
ATOM     22  C   UNL     1       2.279   3.671  20.266  0.00  0.00    +0.000 C 
ATOM     23  C   UNL     1       2.115   5.054  20.824  0.00  0.00    +0.000 C 
BRANCH  19  24
ATOM     24  C   UNL     1       5.056   4.550  17.811  0.00  0.00    +0.000 A 
ATOM     25  C   UNL     1       6.409   4.731  18.134  0.00  0.00    +0.000 A 
ATOM     26  C   UNL     1       7.410   4.604  17.165  0.00  0.00    +0.000 A 
ATOM     27  C   UNL     1       7.071   4.308  15.850  0.00  0.00    +0.000 A 
ATOM     28  C   UNL     1       5.732   4.135  15.503  0.00  0.00    +0.000 A 
ATOM     29  C   UNL     1       4.734   4.245  16.478  0.00  0.00    +0.000 A 
ENDBRANCH  19  24
ENDBRANCH   2  17
TORSDOF 3
ENDMDL
MODEL 3
REMARK VINA RESULT:      -9.0      1.389      2.104
REMARK  Name = 
REMARK  4 active torsions:
REMARK  status: ('A' for Active; 'I' for Inactive)
REMARK    1  A    between atoms: C_1  and  N_2
REMARK    2  A    between atoms: C_8  and  N_9
REMARK    3  A    between atoms: C_10  and  C_12
REMARK    4  A    between atoms: N_14  and  C_15
REMARK                            x       y       z     vdW  Elec       q    Type
REMARK                         _______ _______ _______ _____ _____    ______ ____
ROOT
ATOM      1  N   UNL     1       2.152   7.498  20.032  0.00  0.00    +0.000 N 
ATOM      2  C   UNL     1       1.663   6.264  20.432  0.00  0.00    +0.000 C 
ATOM      3  O   UNL     1       0.550   6.007  20.875  0.00  0.00    +0.000 OA
ATOM      4  H   UNL     1       3.120   7.510  19.720  0.00  0.00    +0.000 HD
ENDROOT
BRANCH   1  12
ATOM      5  C   UNL     1      -1.838  13.237  22.382  0.00  0.00    +0.000 C 
ATOM      6  N   UNL     1      -1.058  12.245  21.686  0.00  0.00    +0.000 N 
ATOM      7  C   UNL     1      -0.815  12.279  20.342  0.00  0.00    +0.000 C 
ATOM      8  O   UNL     1      -1.166  13.093  19.511  0.00  0.00    +0.000 OA
ATOM      9  C   UNL     1      -0.020  11.095  20.043  0.00  0.00    +0.000 A 
ATOM     10  C   UNL     1       0.478  10.659  18.837  0.00  0.00    +0.000 A 
ATOM     11  C   UNL     1       1.202   9.462  18.845  0.00  0.00    +0.000 A 
ATOM     12  C   UNL     1       1.421   8.716  20.028  0.00  0.00    +0.000 A 
ATOM     13  C   UNL     1       0.902   9.201  21.243  0.00  0.00    +0.000 A 
ATOM     14  C   UNL     1       0.183  10.391  21.214  0.00  0.00    +0.000 A 
ATOM     15  C   UNL     1      -0.493  11.143  22.278  0.00  0.00    +0.000 C 
ATOM     16  O   UNL     1      -0.515  10.800  23.440  0.00  0.00    +0.000 OA
ENDBRANCH   1  12
BRANCH   2  17
ATOM     17  C   UNL     1       2.624   5.089  20.287  0.00  0.00    +0.000 C 
ATOM     18  N   UNL     1       3.493   5.087  19.323  0.00  0.00    +0.000 NA
ATOM     19  N   UNL     1       4.318   3.981  19.172  0.00  0.00    +0.000 N 
ATOM     20  C   UNL     1       4.177   2.786  19.893  0.00  0.00    +0.000 C 
ATOM     21  O   UNL     1       4.904   1.794  19.795  0.00  0.00    +0.000 OA
ATOM     22  C   UNL     1       2.998   2.700  20.820  0.00  0.00    +0.000 C 
ATOM     23  C   UNL     1       2.524   4.026  21.337  0.00  0.00    +0.000 C 
BRANCH  19  24
ATOM     24  C   UNL     1       5.250   4.109  18.089  0.00  0.00    +0.000 A 
ATOM     25  C   UNL     1       4.899   3.774  16.773  0.00  0.00    +0.000 A 
ATOM     26  C   UNL     1       5.797   3.949  15.715  0.00  0.00    +0.000 A 
ATOM     27  C   UNL     1       7.070   4.451  15.960  0.00  0.00    +0.000 A 
ATOM     28  C   UNL     1       7.445   4.782  17.261  0.00  0.00    +0.000 A 
ATOM     29  C   UNL     1       6.539   4.621  18.315  0.00  0.00    +0.000 A 
ENDBRANCH  19  24
ENDBRANCH   2  17
TORSDOF 3
ENDMDL
MODEL 4
REMARK VINA RESULT:      -8.8      2.102      2.495
REMARK  Name = 
REMARK  4 active torsions:
REMARK  status: ('A' for Active; 'I' for Inactive)
REMARK    1  A    between atoms: C_1  and  N_2
REMARK    2  A    between atoms: C_8  and  N_9
REMARK    3  A    between atoms: C_10  and  C_12
REMARK    4  A    between atoms: N_14  and  C_15
REMARK                            x       y       z     vdW  Elec       q    Type
REMARK                         _______ _______ _______ _____ _____    ______ ____
ROOT
ATOM      1  N   UNL     1       1.713   8.518  18.960  0.00  0.00    +0.000 N 
ATOM      2  C   UNL     1       1.848   7.680  20.057  0.00  0.00    +0.000 C 
ATOM      3  O   UNL     1       1.601   7.935  21.229  0.00  0.00    +0.000 OA
ATOM      4  H   UNL     1       2.003   8.128  18.067  0.00  0.00    +0.000 HD
ENDROOT
BRANCH   1  12
ATOM      5  C   UNL     1       1.476  15.879  18.584  0.00  0.00    +0.000 C 
ATOM      6  N   UNL     1       1.255  14.460  18.695  0.00  0.00    +0.000 N 
ATOM      7  C   UNL     1       0.054  13.904  19.032  0.00  0.00    +0.000 C 
ATOM      8  O   UNL     1      -1.007  14.442  19.281  0.00  0.00    +0.000 OA
ATOM      9  C   UNL     1       0.266  12.462  19.057  0.00  0.00    +0.000 A 
ATOM     10  C   UNL     1      -0.623  11.454  19.348  0.00  0.00    +0.000 A 
ATOM     11  C   UNL     1      -0.132  10.144  19.310  0.00  0.00    +0.000 A 
ATOM     12  C   UNL     1       1.216   9.849  18.993  0.00  0.00    +0.000 A 
ATOM     13  C   UNL     1       2.091  10.909  18.692  0.00  0.00    +0.000 A 
ATOM     14  C   UNL     1       1.585  12.203  18.737  0.00  0.00    +0.000 A 
ATOM     15  C   UNL     1       2.223  13.505  18.503  0.00  0.00    +0.000 C 
ATOM     16  O   UNL     1       3.388  13.642  18.204  0.00  0.00    +0.000 OA
ENDBRANCH   1  12
BRANCH   2  17
ATOM     17  C   UNL     1       2.350   6.272  19.758  0.00  0.00    +0.000 C 
ATOM     18  N   UNL     1       3.359   6.107  18.959  0.00  0.00    +0.000 NA
ATOM     19  N   UNL     1       3.762   4.814  18.653  0.00  0.00    +0.000 N 
ATOM     20  C   UNL     1       3.058   3.658  19.022  0.00  0.00    +0.000 C 
ATOM     21  O   UNL     1       3.398   2.497  18.782  0.00  0.00    +0.000 OA
ATOM     22  C   UNL     1       1.744   3.871  19.720  0.00  0.00    +0.000 C 
ATOM     23  C   UNL     1       1.654   5.161  20.482  0.00  0.00    +0.000 C 
BRANCH  19  24
ATOM     24  C   UNL     1       4.900   4.763  17.782  0.00  0.00    +0.000 A 
ATOM     25  C   UNL     1       6.211   4.778  18.281  0.00  0.00    +0.000 A 
ATOM     26  C   UNL     1       7.315   4.678  17.428  0.00  0.00    +0.000 A 
ATOM     27  C   UNL     1       7.124   4.575  16.054  0.00  0.00    +0.000 A 
ATOM     28  C   UNL     1       5.830   4.569  15.534  0.00  0.00    +0.000 A 
ATOM     29  C   UNL     1       4.728   4.652  16.392  0.00  0.00    +0.000 A 
ENDBRANCH  19  24
ENDBRANCH   2  17
TORSDOF 3
ENDMDL
MODEL 5
REMARK VINA RESULT:      -8.8      3.372      9.188
REMARK  Name = 
REMARK  4 active torsions:
REMARK  status: ('A' for Active; 'I' for Inactive)
REMARK    1  A    between atoms: C_1  and  N_2
REMARK    2  A    between atoms: C_8  and  N_9
REMARK    3  A    between atoms: C_10  and  C_12
REMARK    4  A    between atoms: N_14  and  C_15
REMARK                            x       y       z     vdW  Elec       q    Type
REMARK                         _______ _______ _______ _____ _____    ______ ____
ROOT
ATOM      1  N   UNL     1       1.443   8.485  19.181  0.00  0.00    +0.000 N 
ATOM      2  C   UNL     1       1.057   8.999  20.410  0.00  0.00    +0.000 C 
ATOM      3  O   UNL     1       1.453   8.665  21.519  0.00  0.00    +0.000 OA
ATOM      4  H   UNL     1       0.971   8.877  18.370  0.00  0.00    +0.000 HD
ENDROOT
BRANCH   1  12
ATOM      5  C   UNL     1       6.808   4.512  16.048  0.00  0.00    +0.000 C 
ATOM      6  N   UNL     1       5.793   5.121  16.870  0.00  0.00    +0.000 N 
ATOM      7  C   UNL     1       5.384   4.613  18.069  0.00  0.00    +0.000 C 
ATOM      8  O   UNL     1       5.765   3.623  18.662  0.00  0.00    +0.000 OA
ATOM      9  C   UNL     1       4.339   5.505  18.555  0.00  0.00    +0.000 A 
ATOM     10  C   UNL     1       3.597   5.435  19.710  0.00  0.00    +0.000 A 
ATOM     11  C   UNL     1       2.637   6.433  19.911  0.00  0.00    +0.000 A 
ATOM     12  C   UNL     1       2.422   7.476  18.978  0.00  0.00    +0.000 A 
ATOM     13  C   UNL     1       3.209   7.517  17.811  0.00  0.00    +0.000 A 
ATOM     14  C   UNL     1       4.155   6.515  17.629  0.00  0.00    +0.000 A 
ATOM     15  C   UNL     1       5.102   6.260  16.537  0.00  0.00    +0.000 C 
ATOM     16  O   UNL     1       5.203   6.959  15.553  0.00  0.00    +0.000 OA
ENDBRANCH   1  12
BRANCH   2  17
ATOM     17  C   UNL     1       0.028  10.123  20.366  0.00  0.00    +0.000 C 
ATOM     18  N   UNL     1      -0.789  10.206  19.360  0.00  0.00    +0.000 NA
ATOM     19  N   UNL     1      -1.678  11.272  19.309  0.00  0.00    +0.000 N 
ATOM     20  C   UNL     1      -1.655  12.362  20.191  0.00  0.00    +0.000 C 
ATOM     21  O   UNL     1      -2.441  13.313  20.184  0.00  0.00    +0.000 OA
ATOM     22  C   UNL     1      -0.533  12.390  21.191  0.00  0.00    +0.000 C 
ATOM     23  C   UNL     1       0.001  11.035  21.553  0.00  0.00    +0.000 C 
BRANCH  19  24
ATOM     24  C   UNL     1      -2.541  11.239  18.165  0.00  0.00    +0.000 A 
ATOM     25  C   UNL     1      -2.069  10.866  16.897  0.00  0.00    +0.000 A 
ATOM     26  C   UNL     1      -2.928  10.788  15.796  0.00  0.00    +0.000 A 
ATOM     27  C   UNL     1      -4.276  11.096  15.943  0.00  0.00    +0.000 A 
ATOM     28  C   UNL     1      -4.766  11.480  17.191  0.00  0.00    +0.000 A 
ATOM     29  C   UNL     1      -3.907  11.540  18.294  0.00  0.00    +0.000 A 
ENDBRANCH  19  24
ENDBRANCH   2  17
TORSDOF 3
ENDMDL
MODEL 6
REMARK VINA RESULT:      -8.6      1.227      1.551
REMARK  Name = 
REMARK  4 active torsions:
REMARK  status: ('A' for Active; 'I' for Inactive)
REMARK    1  A    between atoms: C_1  and  N_2
REMARK    2  A    between atoms: C_8  and  N_9
REMARK    3  A    between atoms: C_10  and  C_12
REMARK    4  A    between atoms: N_14  and  C_15
REMARK                            x       y       z     vdW  Elec       q    Type
REMARK                         _______ _______ _______ _____ _____    ______ ____
ROOT
ATOM      1  N   UNL     1       1.909   7.308  21.071  0.00  0.00    +0.000 N 
ATOM      2  C   UNL     1       1.401   6.066  20.720  0.00  0.00    +0.000 C 
ATOM      3  O   UNL     1       0.229   5.762  20.538  0.00  0.00    +0.000 OA
ATOM      4  H   UNL     1       2.916   7.350  21.208  0.00  0.00    +0.000 HD
ENDROOT
BRANCH   1  12
ATOM      5  C   UNL     1      -1.120  13.908  19.789  0.00  0.00    +0.000 C 
ATOM      6  N   UNL     1      -0.676  12.623  20.266  0.00  0.00    +0.000 N 
ATOM      7  C   UNL     1      -0.995  12.119  21.494  0.00  0.00    +0.000 C 
ATOM      8  O   UNL     1      -1.677  12.601  22.377  0.00  0.00    +0.000 OA
ATOM      9  C   UNL     1      -0.332  10.824  21.588  0.00  0.00    +0.000 A 
ATOM     10  C   UNL     1      -0.327   9.918  22.623  0.00  0.00    +0.000 A 
ATOM     11  C   UNL     1       0.420   8.749  22.439  0.00  0.00    +0.000 A 
ATOM     12  C   UNL     1       1.147   8.493  21.252  0.00  0.00    +0.000 A 
ATOM     13  C   UNL     1       1.109   9.441  20.213  0.00  0.00    +0.000 A 
ATOM     14  C   UNL     1       0.363  10.597  20.415  0.00  0.00    +0.000 A 
ATOM     15  C   UNL     1       0.136  11.769  19.560  0.00  0.00    +0.000 C 
ATOM     16  O   UNL     1       0.608  11.899  18.452  0.00  0.00    +0.000 OA
ENDBRANCH   1  12
BRANCH   2  17
ATOM     17  C   UNL     1       2.429   4.958  20.525  0.00  0.00    +0.000 C 
ATOM     18  N   UNL     1       3.303   5.055  19.570  0.00  0.00    +0.000 NA
ATOM     19  N   UNL     1       4.192   4.007  19.372  0.00  0.00    +0.000 N 
ATOM     20  C   UNL     1       4.116   2.771  20.031  0.00  0.00    +0.000 C 
ATOM     21  O   UNL     1       4.900   1.829  19.890  0.00  0.00    +0.000 OA
ATOM     22  C   UNL     1       2.938   2.571  20.942  0.00  0.00    +0.000 C 
ATOM     23  C   UNL     1       2.385   3.840  21.520  0.00  0.00    +0.000 C 
BRANCH  19  24
ATOM     24  C   UNL     1       5.121   4.243  18.305  0.00  0.00    +0.000 A 
ATOM     25  C   UNL     1       6.398   4.773  18.545  0.00  0.00    +0.000 A 
ATOM     26  C   UNL     1       7.316   4.953  17.505  0.00  0.00    +0.000 A 
ATOM     27  C   UNL     1       6.965   4.618  16.202  0.00  0.00    +0.000 A 
ATOM     28  C   UNL     1       5.699   4.099  15.938  0.00  0.00    +0.000 A 
ATOM     29  C   UNL     1       4.788   3.904  16.982  0.00  0.00    +0.000 A 
ENDBRANCH  19  24
ENDBRANCH   2  17
TORSDOF 3
ENDMDL
MODEL 7
REMARK VINA RESULT:      -8.6      1.370      2.309
REMARK  Name = 
REMARK  4 active torsions:
REMARK  status: ('A' for Active; 'I' for Inactive)
REMARK    1  A    between atoms: C_1  and  N_2
REMARK    2  A    between atoms: C_8  and  N_9
REMARK    3  A    between atoms: C_10  and  C_12
REMARK    4  A    between atoms: N_14  and  C_15
REMARK                            x       y       z     vdW  Elec       q    Type
REMARK                         _______ _______ _______ _____ _____    ______ ____
ROOT
ATOM      1  N   UNL     1       1.864   7.825  19.220  0.00  0.00    +0.000 N 
ATOM      2  C   UNL     1       1.801   6.734  20.074  0.00  0.00    +0.000 C 
ATOM      3  O   UNL     1       1.350   6.700  21.212  0.00  0.00    +0.000 OA
ATOM      4  H   UNL     1       2.307   7.657  18.320  0.00  0.00    +0.000 HD
ENDROOT
BRANCH   1  12
ATOM      5  C   UNL     1      -1.160  13.496  22.835  0.00  0.00    +0.000 C 
ATOM      6  N   UNL     1      -0.528  12.569  21.932  0.00  0.00    +0.000 N 
ATOM      7  C   UNL     1      -0.187  12.877  20.646  0.00  0.00    +0.000 C 
ATOM      8  O   UNL     1      -0.322  13.919  20.036  0.00  0.00    +0.000 OA
ATOM      9  C   UNL     1       0.396  11.667  20.078  0.00  0.00    +0.000 A 
ATOM     10  C   UNL     1       0.890  11.446  18.815  0.00  0.00    +0.000 A 
ATOM     11  C   UNL     1       1.379  10.164  18.540  0.00  0.00    +0.000 A 
ATOM     12  C   UNL     1       1.372   9.127  19.503  0.00  0.00    +0.000 A 
ATOM     13  C   UNL     1       0.866   9.397  20.789  0.00  0.00    +0.000 A 
ATOM     14  C   UNL     1       0.382  10.676  21.041  0.00  0.00    +0.000 A 
ATOM     15  C   UNL     1      -0.219  11.267  22.243  0.00  0.00    +0.000 C 
ATOM     16  O   UNL     1      -0.387  10.666  23.281  0.00  0.00    +0.000 OA
ENDBRANCH   1  12
BRANCH   2  17
ATOM     17  C   UNL     1       2.344   5.423  19.518  0.00  0.00    +0.000 C 
ATOM     18  N   UNL     1       3.373   5.439  18.726  0.00  0.00    +0.000 NA
ATOM     19  N   UNL     1       3.814   4.240  18.183  0.00  0.00    +0.000 N 
ATOM     20  C   UNL     1       3.133   3.020  18.302  0.00  0.00    +0.000 C 
ATOM     21  O   UNL     1       3.508   1.936  17.848  0.00  0.00    +0.000 OA
ATOM     22  C   UNL     1       1.802   3.064  18.997  0.00  0.00    +0.000 C 
ATOM     23  C   UNL     1       1.664   4.177  19.994  0.00  0.00    +0.000 C 
BRANCH  19  24
ATOM     24  C   UNL     1       4.969   4.386  17.345  0.00  0.00    +0.000 A 
ATOM     25  C   UNL     1       6.256   4.533  17.884  0.00  0.00    +0.000 A 
ATOM     26  C   UNL     1       7.383   4.624  17.060  0.00  0.00    +0.000 A 
ATOM     27  C   UNL     1       7.238   4.584  15.678  0.00  0.00    +0.000 A 
ATOM     28  C   UNL     1       5.968   4.449  15.119  0.00  0.00    +0.000 A 
ATOM     29  C   UNL     1       4.845   4.341  15.946  0.00  0.00    +0.000 A 
ENDBRANCH  19  24
ENDBRANCH   2  17
TORSDOF 3
ENDMDL
MODEL 8
REMARK VINA RESULT:      -8.5      2.232      3.740
REMARK  Name = 
REMARK  4 active torsions:
REMARK  status: ('A' for Active; 'I' for Inactive)
REMARK    1  A    between atoms: C_1  and  N_2
REMARK    2  A    between atoms: C_8  and  N_9
REMARK    3  A    between atoms: C_10  and  C_12
REMARK    4  A    between atoms: N_14  and  C_15
REMARK                            x       y       z     vdW  Elec       q    Type
REMARK                         _______ _______ _______ _____ _____    ______ ____
ROOT
ATOM      1  N   UNL     1       1.096   9.293  19.338  0.00  0.00    +0.000 N 
ATOM      2  C   UNL     1       1.933   9.157  18.242  0.00  0.00    +0.000 C 
ATOM      3  O   UNL     1       2.171   9.987  17.374  0.00  0.00    +0.000 OA
ATOM      4  H   UNL     1       1.006   8.471  19.931  0.00  0.00    +0.000 HD
ENDROOT
BRANCH   1  12
ATOM      5  C   UNL     1      -0.527  15.891  22.205  0.00  0.00    +0.000 C 
ATOM      6  N   UNL     1      -0.457  14.616  21.537  0.00  0.00    +0.000 N 
ATOM      7  C   UNL     1      -1.514  14.041  20.889  0.00  0.00    +0.000 C 
ATOM      8  O   UNL     1      -2.647  14.452  20.738  0.00  0.00    +0.000 OA
ATOM      9  C   UNL     1      -1.033  12.763  20.381  0.00  0.00    +0.000 A 
ATOM     10  C   UNL     1      -1.704  11.798  19.667  0.00  0.00    +0.000 A 
ATOM     11  C   UNL     1      -0.985  10.648  19.322  0.00  0.00    +0.000 A 
ATOM     12  C   UNL     1       0.370  10.464  19.685  0.00  0.00    +0.000 A 
ATOM     13  C   UNL     1       1.024  11.479  20.408  0.00  0.00    +0.000 A 
ATOM     14  C   UNL     1       0.293  12.613  20.743  0.00  0.00    +0.000 A 
ATOM     15  C   UNL     1       0.661  13.820  21.494  0.00  0.00    +0.000 C 
ATOM     16  O   UNL     1       1.760  14.015  21.964  0.00  0.00    +0.000 OA
ENDBRANCH   1  12
BRANCH   2  17
ATOM     17  C   UNL     1       2.651   7.818  18.116  0.00  0.00    +0.000 C 
ATOM     18  N   UNL     1       2.249   6.806  18.822  0.00  0.00    +0.000 NA
ATOM     19  N   UNL     1       2.953   5.612  18.738  0.00  0.00    +0.000 N 
ATOM     20  C   UNL     1       4.171   5.460  18.059  0.00  0.00    +0.000 C 
ATOM     21  O   UNL     1       4.811   4.410  17.951  0.00  0.00    +0.000 OA
ATOM     22  C   UNL     1       4.766   6.706  17.467  0.00  0.00    +0.000 C 
ATOM     23  C   UNL     1       3.759   7.759  17.110  0.00  0.00    +0.000 C 
BRANCH  19  24
ATOM     24  C   UNL     1       2.398   4.565  19.546  0.00  0.00    +0.000 A 
ATOM     25  C   UNL     1       2.703   4.449  20.911  0.00  0.00    +0.000 A 
ATOM     26  C   UNL     1       2.118   3.455  21.703  0.00  0.00    +0.000 A 
ATOM     27  C   UNL     1       1.227   2.550  21.137  0.00  0.00    +0.000 A 
ATOM     28  C   UNL     1       0.917   2.640  19.781  0.00  0.00    +0.000 A 
ATOM     29  C   UNL     1       1.490   3.645  18.995  0.00  0.00    +0.000 A 
ENDBRANCH  19  24
ENDBRANCH   2  17
TORSDOF 3
ENDMDL
MODEL 9
REMARK VINA RESULT:      -8.5      3.363      9.498
REMARK  Name = 
REMARK  4 active torsions:
REMARK  status: ('A' for Active; 'I' for Inactive)
REMARK    1  A    between atoms: C_1  and  N_2
REMARK    2  A    between atoms: C_8  and  N_9
REMARK    3  A    between atoms: C_10  and  C_12
REMARK    4  A    between atoms: N_14  and  C_15
REMARK                            x       y       z     vdW  Elec       q    Type
REMARK                         _______ _______ _______ _____ _____    ______ ____
ROOT
ATOM      1  N   UNL     1       1.568   8.492  18.451  0.00  0.00    +0.000 N 
ATOM      2  C   UNL     1       1.242   8.920  19.729  0.00  0.00    +0.000 C 
ATOM      3  O   UNL     1       1.543   8.395  20.794  0.00  0.00    +0.000 OA
ATOM      4  H   UNL     1       1.193   9.052  17.689  0.00  0.00    +0.000 HD
ENDROOT
BRANCH   1  12
ATOM      5  C   UNL     1       7.291   4.382  16.276  0.00  0.00    +0.000 C 
ATOM      6  N   UNL     1       6.057   4.948  16.758  0.00  0.00    +0.000 N 
ATOM      7  C   UNL     1       4.963   4.203  17.096  0.00  0.00    +0.000 C 
ATOM      8  O   UNL     1       4.809   2.998  17.075  0.00  0.00    +0.000 OA
ATOM      9  C   UNL     1       3.935   5.152  17.505  0.00  0.00    +0.000 A 
ATOM     10  C   UNL     1       2.648   4.917  17.929  0.00  0.00    +0.000 A 
ATOM     11  C   UNL     1       1.869   6.036  18.244  0.00  0.00    +0.000 A 
ATOM     12  C   UNL     1       2.362   7.358  18.136  0.00  0.00    +0.000 A 
ATOM     13  C   UNL     1       3.689   7.556  17.706  0.00  0.00    +0.000 A 
ATOM     14  C   UNL     1       4.446   6.432  17.395  0.00  0.00    +0.000 A 
ATOM     15  C   UNL     1       5.824   6.293  16.910  0.00  0.00    +0.000 C 
ATOM     16  O   UNL     1       6.564   7.228  16.700  0.00  0.00    +0.000 OA
ENDBRANCH   1  12
BRANCH   2  17
ATOM     17  C   UNL     1       0.424  10.203  19.813  0.00  0.00    +0.000 C 
ATOM     18  N   UNL     1      -0.676  10.308  19.131  0.00  0.00    +0.000 NA
ATOM     19  N   UNL     1      -1.374  11.508  19.174  0.00  0.00    +0.000 N 
ATOM     20  C   UNL     1      -0.896  12.680  19.779  0.00  0.00    +0.000 C 
ATOM     21  O   UNL     1      -1.499  13.753  19.850  0.00  0.00    +0.000 OA
ATOM     22  C   UNL     1       0.499  12.623  20.335  0.00  0.00    +0.000 C 
ATOM     23  C   UNL     1       0.940  11.250  20.751  0.00  0.00    +0.000 C 
BRANCH  19  24
ATOM     24  C   UNL     1      -2.582  11.491  18.400  0.00  0.00    +0.000 A 
ATOM     25  C   UNL     1      -3.812  11.882  18.949  0.00  0.00    +0.000 A 
ATOM     26  C   UNL     1      -4.977  11.911  18.174  0.00  0.00    +0.000 A 
ATOM     27  C   UNL     1      -4.930  11.535  16.836  0.00  0.00    +0.000 A 
ATOM     28  C   UNL     1      -3.721  11.133  16.272  0.00  0.00    +0.000 A 
ATOM     29  C   UNL     1      -2.555  11.122  17.045  0.00  0.00    +0.000 A 
ENDBRANCH  19  24
ENDBRANCH   2  17
TORSDOF 3
ENDMDL
