MODEL 1
REMARK VINA RESULT:      -8.8      0.000      0.000
REMARK  Name = 
REMARK  8 active torsions:
REMARK  status: ('A' for Active; 'I' for Inactive)
REMARK    1  A    between atoms: C_1  and  C_2
REMARK    2  A    between atoms: C_2  and  C_16
REMARK    3  A    between atoms: C_3  and  C_4
REMARK    4  A    between atoms: C_7  and  C_8
REMARK    5  A    between atoms: C_16  and  N_17
REMARK    6  A    between atoms: N_17  and  C_18
REMARK    7  A    between atoms: N_17  and  C_19
REMARK    8  A    between atoms: C_19  and  C_20
REMARK                            x       y       z     vdW  Elec       q    Type
REMARK                         _______ _______ _______ _____ _____    ______ ____
ROOT
ATOM      1  C   UNL     1       5.979   7.290  17.793  0.00  0.00    +0.000 C 
ATOM      2  C   UNL     1       4.948   6.658  16.855  0.00  0.00    +0.000 C 
ATOM      3  C   UNL     1       3.621   6.613  17.127  0.00  0.00    +0.000 C 
ENDROOT
BRANCH   3   4
ATOM      4  C   UNL     1       2.925   7.375  18.176  0.00  0.00    +0.000 A 
ATOM      5  C   UNL     1       2.426   8.644  17.872  0.00  0.00    +0.000 A 
ATOM      6  C   UNL     1       1.651   9.335  18.778  0.00  0.00    +0.000 A 
ATOM      7  C   UNL     1       1.360   8.791  20.037  0.00  0.00    +0.000 A 
ATOM      8  C   UNL     1       1.874   7.513  20.360  0.00  0.00    +0.000 A 
ATOM      9  C   UNL     1       2.631   6.796  19.419  0.00  0.00    +0.000 A 
BRANCH   7  10
ATOM     10  C   UNL     1       0.520   9.587  20.975  0.00  0.00    +0.000 A 
ATOM     11  C   UNL     1       0.367   9.166  22.317  0.00  0.00    +0.000 A 
ATOM     12  C   UNL     1      -0.451   9.862  23.197  0.00  0.00    +0.000 A 
ATOM     13  C   UNL     1      -1.143  10.987  22.760  0.00  0.00    +0.000 A 
ATOM     14  C   UNL     1      -0.999  11.430  21.441  0.00  0.00    +0.000 A 
ATOM     15  C   UNL     1      -0.162  10.743  20.552  0.00  0.00    +0.000 A 
ENDBRANCH   7  10
ENDBRANCH   3   4
BRANCH   2  16
ATOM     16  C   UNL     1       5.381   6.057  15.531  0.00  0.00    +0.000 C 
BRANCH  16  17
ATOM     17  N   UNL     1       5.218   4.604  15.416  0.00  0.00    +0.000 NA
ATOM     18  C   UNL     1       5.958   3.992  14.312  0.00  0.00    +0.000 C 
BRANCH  17  19
ATOM     19  C   UNL     1       5.553   3.972  16.717  0.00  0.00    +0.000 C 
BRANCH  19  20
ATOM     20  C   UNL     1       4.267   3.528  17.362  0.00  0.00    +0.000 A 
ATOM     21  C   UNL     1       3.027   3.272  16.723  0.00  0.00    +0.000 A 
ATOM     22  C   UNL     1       1.900   2.936  17.515  0.00  0.00    +0.000 A 
ATOM     23  C   UNL     1       2.039   2.852  18.931  0.00  0.00    +0.000 A 
ATOM     24  C   UNL     1       3.307   3.016  19.484  0.00  0.00    +0.000 A 
ATOM     25  C   UNL     1       4.360   3.364  18.722  0.00  0.00    +0.000 A 
ATOM     26  O   UNL     1       3.535   2.862  20.804  0.00  0.00    +0.000 OA
ATOM     27  C   UNL     1       2.650   3.397  21.669  0.00  0.00    +0.000 C 
ATOM     28  C   UNL     1       1.231   2.869  21.398  0.00  0.00    +0.000 C 
ATOM     29  C   UNL     1       0.884   2.608  19.887  0.00  0.00    +0.000 C 
ENDBRANCH  19  20
ENDBRANCH  17  19
ENDBRANCH  16  17
ENDBRANCH   2  16
TORSDOF 6
ENDMDL
MODEL 2
REMARK VINA RESULT:      -8.1      0.903      1.745
REMARK  Name = 
REMARK  8 active torsions:
REMARK  status: ('A' for Active; 'I' for Inactive)
REMARK    1  A    between atoms: C_1  and  C_2
REMARK    2  A    between atoms: C_2  and  C_16
REMARK    3  A    between atoms: C_3  and  C_4
REMARK    4  A    between atoms: C_7  and  C_8
REMARK    5  A    between atoms: C_16  and  N_17
REMARK    6  A    between atoms: N_17  and  C_18
REMARK    7  A    between atoms: N_17  and  C_19
REMARK    8  A    between atoms: C_19  and  C_20
REMARK                            x       y       z     vdW  Elec       q    Type
REMARK                         _______ _______ _______ _____ _____    ______ ____
ROOT
ATOM      1  C   UNL     1       5.990   7.449  17.690  0.00  0.00    +0.000 C 
ATOM      2  C   UNL     1       4.980   6.784  16.752  0.00  0.00    +0.000 C 
ATOM      3  C   UNL     1       3.651   6.720  17.012  0.00  0.00    +0.000 C 
ENDROOT
BRANCH   3   4
ATOM      4  C   UNL     1       2.932   7.484  18.044  0.00  0.00    +0.000 A 
ATOM      5  C   UNL     1       2.343   8.702  17.696  0.00  0.00    +0.000 A 
ATOM      6  C   UNL     1       1.547   9.384  18.589  0.00  0.00    +0.000 A 
ATOM      7  C   UNL     1       1.322   8.882  19.879  0.00  0.00    +0.000 A 
ATOM      8  C   UNL     1       1.927   7.657  20.246  0.00  0.00    +0.000 A 
ATOM      9  C   UNL     1       2.706   6.947  19.319  0.00  0.00    +0.000 A 
BRANCH   7  10
ATOM     10  C   UNL     1       0.454   9.666  20.802  0.00  0.00    +0.000 A 
ATOM     11  C   UNL     1      -0.109  10.890  20.372  0.00  0.00    +0.000 A 
ATOM     12  C   UNL     1      -0.880  11.664  21.229  0.00  0.00    +0.000 A 
ATOM     13  C   UNL     1      -1.101  11.243  22.537  0.00  0.00    +0.000 A 
ATOM     14  C   UNL     1      -0.564  10.029  22.982  0.00  0.00    +0.000 A 
ATOM     15  C   UNL     1       0.200   9.235  22.117  0.00  0.00    +0.000 A 
ENDBRANCH   7  10
ENDBRANCH   3   4
BRANCH   2  16
ATOM     16  C   UNL     1       5.436   6.173  15.441  0.00  0.00    +0.000 C 
BRANCH  16  17
ATOM     17  N   UNL     1       5.089   4.761  15.251  0.00  0.00    +0.000 NA
ATOM     18  C   UNL     1       5.268   4.266  13.885  0.00  0.00    +0.000 C 
BRANCH  17  19
ATOM     19  C   UNL     1       5.839   3.939  16.234  0.00  0.00    +0.000 C 
BRANCH  19  20
ATOM     20  C   UNL     1       5.015   3.852  17.491  0.00  0.00    +0.000 A 
ATOM     21  C   UNL     1       5.460   4.030  18.826  0.00  0.00    +0.000 A 
ATOM     22  C   UNL     1       4.545   3.829  19.891  0.00  0.00    +0.000 A 
ATOM     23  C   UNL     1       3.200   3.465  19.598  0.00  0.00    +0.000 A 
ATOM     24  C   UNL     1       2.803   3.406  18.263  0.00  0.00    +0.000 A 
ATOM     25  C   UNL     1       3.690   3.570  17.265  0.00  0.00    +0.000 A 
ATOM     26  O   UNL     1       1.526   3.158  17.908  0.00  0.00    +0.000 OA
ATOM     27  C   UNL     1       0.861   2.186  18.565  0.00  0.00    +0.000 C 
ATOM     28  C   UNL     1       0.859   2.452  20.080  0.00  0.00    +0.000 C 
ATOM     29  C   UNL     1       2.162   3.118  20.652  0.00  0.00    +0.000 C 
ENDBRANCH  19  20
ENDBRANCH  17  19
ENDBRANCH  16  17
ENDBRANCH   2  16
TORSDOF 6
ENDMDL
MODEL 3
REMARK VINA RESULT:      -7.9      2.037      4.508
REMARK  Name = 
REMARK  8 active torsions:
REMARK  status: ('A' for Active; 'I' for Inactive)
REMARK    1  A    between atoms: C_1  and  C_2
REMARK    2  A    between atoms: C_2  and  C_16
REMARK    3  A    between atoms: C_3  and  C_4
REMARK    4  A    between atoms: C_7  and  C_8
REMARK    5  A    between atoms: C_16  and  N_17
REMARK    6  A    between atoms: N_17  and  C_18
REMARK    7  A    between atoms: N_17  and  C_19
REMARK    8  A    between atoms: C_19  and  C_20
REMARK                            x       y       z     vdW  Elec       q    Type
REMARK                         _______ _______ _______ _____ _____    ______ ____
ROOT
ATOM      1  C   UNL     1       0.641   3.692  19.878  0.00  0.00    +0.000 C 
ATOM      2  C   UNL     1       2.049   3.876  20.448  0.00  0.00    +0.000 C 
ATOM      3  C   UNL     1       2.696   5.067  20.468  0.00  0.00    +0.000 C 
ENDROOT
BRANCH   3   4
ATOM      4  C   UNL     1       2.090   6.386  20.223  0.00  0.00    +0.000 A 
ATOM      5  C   UNL     1       1.329   6.978  21.234  0.00  0.00    +0.000 A 
ATOM      6  C   UNL     1       0.858   8.266  21.103  0.00  0.00    +0.000 A 
ATOM      7  C   UNL     1       1.114   9.010  19.941  0.00  0.00    +0.000 A 
ATOM      8  C   UNL     1       1.870   8.413  18.906  0.00  0.00    +0.000 A 
ATOM      9  C   UNL     1       2.381   7.113  19.061  0.00  0.00    +0.000 A 
BRANCH   7  10
ATOM     10  C   UNL     1       0.576  10.397  19.856  0.00  0.00    +0.000 A 
ATOM     11  C   UNL     1      -0.095  10.822  18.685  0.00  0.00    +0.000 A 
ATOM     12  C   UNL     1      -0.561  12.124  18.561  0.00  0.00    +0.000 A 
ATOM     13  C   UNL     1      -0.362  13.035  19.594  0.00  0.00    +0.000 A 
ATOM     14  C   UNL     1       0.288  12.634  20.766  0.00  0.00    +0.000 A 
ATOM     15  C   UNL     1       0.746  11.318  20.905  0.00  0.00    +0.000 A 
ENDBRANCH   7  10
ENDBRANCH   3   4
BRANCH   2  16
ATOM     16  C   UNL     1       2.792   2.701  21.054  0.00  0.00    +0.000 C 
BRANCH  16  17
ATOM     17  N   UNL     1       4.114   2.429  20.481  0.00  0.00    +0.000 NA
ATOM     18  C   UNL     1       4.837   1.323  21.111  0.00  0.00    +0.000 C 
BRANCH  17  19
ATOM     19  C   UNL     1       3.978   2.232  19.016  0.00  0.00    +0.000 C 
BRANCH  19  20
ATOM     20  C   UNL     1       4.421   3.499  18.334  0.00  0.00    +0.000 A 
ATOM     21  C   UNL     1       3.948   4.024  17.103  0.00  0.00    +0.000 A 
ATOM     22  C   UNL     1       4.547   5.197  16.579  0.00  0.00    +0.000 A 
ATOM     23  C   UNL     1       5.600   5.829  17.302  0.00  0.00    +0.000 A 
ATOM     24  C   UNL     1       5.946   5.318  18.552  0.00  0.00    +0.000 A 
ATOM     25  C   UNL     1       5.389   4.187  19.022  0.00  0.00    +0.000 A 
ATOM     26  O   UNL     1       6.869   5.913  19.335  0.00  0.00    +0.000 OA
ATOM     27  C   UNL     1       8.003   6.357  18.757  0.00  0.00    +0.000 C 
ATOM     28  C   UNL     1       7.688   7.338  17.615  0.00  0.00    +0.000 C 
ATOM     29  C   UNL     1       6.388   7.022  16.791  0.00  0.00    +0.000 C 
ENDBRANCH  19  20
ENDBRANCH  17  19
ENDBRANCH  16  17
ENDBRANCH   2  16
TORSDOF 6
ENDMDL
MODEL 4
REMARK VINA RESULT:      -7.9      2.155      4.516
REMARK  Name = 
REMARK  8 active torsions:
REMARK  status: ('A' for Active; 'I' for Inactive)
REMARK    1  A    between atoms: C_1  and  C_2
REMARK    2  A    between atoms: C_2  and  C_16
REMARK    3  A    between atoms: C_3  and  C_4
REMARK    4  A    between atoms: C_7  and  C_8
REMARK    5  A    between atoms: C_16  and  N_17
REMARK    6  A    between atoms: N_17  and  C_18
REMARK    7  A    between atoms: N_17  and  C_19
REMARK    8  A    between atoms: C_19  and  C_20
REMARK                            x       y       z     vdW  Elec       q    Type
REMARK                         _______ _______ _______ _____ _____    ______ ____
ROOT
ATOM      1  C   UNL     1       0.990   4.131  18.876  0.00  0.00    +0.000 C 
ATOM      2  C   UNL     1       2.163   4.191  19.858  0.00  0.00    +0.000 C 
ATOM      3  C   UNL     1       2.775   5.345  20.219  0.00  0.00    +0.000 C 
ENDROOT
BRANCH   3   4
ATOM      4  C   UNL     1       2.272   6.705  19.974  0.00  0.00    +0.000 A 
ATOM      5  C   UNL     1       2.489   7.292  18.724  0.00  0.00    +0.000 A 
ATOM      6  C   UNL     1       1.920   8.505  18.403  0.00  0.00    +0.000 A 
ATOM      7  C   UNL     1       1.124   9.193  19.330  0.00  0.00    +0.000 A 
ATOM      8  C   UNL     1       0.911   8.614  20.603  0.00  0.00    +0.000 A 
ATOM      9  C   UNL     1       1.461   7.360  20.912  0.00  0.00    +0.000 A 
BRANCH   7  10
ATOM     10  C   UNL     1       0.538  10.502  18.926  0.00  0.00    +0.000 A 
ATOM     11  C   UNL     1       1.312  11.682  19.028  0.00  0.00    +0.000 A 
ATOM     12  C   UNL     1       0.773  12.921  18.706  0.00  0.00    +0.000 A 
ATOM     13  C   UNL     1      -0.550  13.015  18.284  0.00  0.00    +0.000 A 
ATOM     14  C   UNL     1      -1.331  11.860  18.164  0.00  0.00    +0.000 A 
ATOM     15  C   UNL     1      -0.789  10.605  18.471  0.00  0.00    +0.000 A 
ENDBRANCH   7  10
ENDBRANCH   3   4
BRANCH   2  16
ATOM     16  C   UNL     1       2.689   2.923  20.504  0.00  0.00    +0.000 C 
BRANCH  16  17
ATOM     17  N   UNL     1       4.069   2.568  20.162  0.00  0.00    +0.000 NA
ATOM     18  C   UNL     1       4.605   1.420  20.894  0.00  0.00    +0.000 C 
BRANCH  17  19
ATOM     19  C   UNL     1       4.173   2.377  18.693  0.00  0.00    +0.000 C 
BRANCH  19  20
ATOM     20  C   UNL     1       4.637   3.675  18.088  0.00  0.00    +0.000 A 
ATOM     21  C   UNL     1       4.228   4.245  16.854  0.00  0.00    +0.000 A 
ATOM     22  C   UNL     1       4.841   5.445  16.412  0.00  0.00    +0.000 A 
ATOM     23  C   UNL     1       5.844   6.057  17.218  0.00  0.00    +0.000 A 
ATOM     24  C   UNL     1       6.126   5.500  18.464  0.00  0.00    +0.000 A 
ATOM     25  C   UNL     1       5.557   4.345  18.856  0.00  0.00    +0.000 A 
ATOM     26  O   UNL     1       6.995   6.072  19.321  0.00  0.00    +0.000 OA
ATOM     27  C   UNL     1       8.155   6.550  18.826  0.00  0.00    +0.000 C 
ATOM     28  C   UNL     1       7.893   7.573  17.708  0.00  0.00    +0.000 C 
ATOM     29  C   UNL     1       6.644   7.278  16.800  0.00  0.00    +0.000 C 
ENDBRANCH  19  20
ENDBRANCH  17  19
ENDBRANCH  16  17
ENDBRANCH   2  16
TORSDOF 6
ENDMDL
MODEL 5
REMARK VINA RESULT:      -7.8      4.153      6.285
REMARK  Name = 
REMARK  8 active torsions:
REMARK  status: ('A' for Active; 'I' for Inactive)
REMARK    1  A    between atoms: C_1  and  C_2
REMARK    2  A    between atoms: C_2  and  C_16
REMARK    3  A    between atoms: C_3  and  C_4
REMARK    4  A    between atoms: C_7  and  C_8
REMARK    5  A    between atoms: C_16  and  N_17
REMARK    6  A    between atoms: N_17  and  C_18
REMARK    7  A    between atoms: N_17  and  C_19
REMARK    8  A    between atoms: C_19  and  C_20
REMARK                            x       y       z     vdW  Elec       q    Type
REMARK                         _______ _______ _______ _____ _____    ______ ____
ROOT
ATOM      1  C   UNL     1       7.724   5.882  19.424  0.00  0.00    +0.000 C 
ATOM      2  C   UNL     1       7.558   6.039  17.910  0.00  0.00    +0.000 C 
ATOM      3  C   UNL     1       7.552   7.239  17.281  0.00  0.00    +0.000 C 
ENDROOT
BRANCH   3   4
ATOM      4  C   UNL     1       7.968   8.524  17.864  0.00  0.00    +0.000 A 
ATOM      5  C   UNL     1       8.864   8.522  18.936  0.00  0.00    +0.000 A 
ATOM      6  C   UNL     1       9.386   9.700  19.425  0.00  0.00    +0.000 A 
ATOM      7  C   UNL     1       9.018  10.934  18.869  0.00  0.00    +0.000 A 
ATOM      8  C   UNL     1       8.100  10.947  17.793  0.00  0.00    +0.000 A 
ATOM      9  C   UNL     1       7.600   9.742  17.274  0.00  0.00    +0.000 A 
BRANCH   7  10
ATOM     10  C   UNL     1       9.614  12.174  19.442  0.00  0.00    +0.000 A 
ATOM     11  C   UNL     1      10.423  13.006  18.633  0.00  0.00    +0.000 A 
ATOM     12  C   UNL     1      11.031  14.139  19.156  0.00  0.00    +0.000 A 
ATOM     13  C   UNL     1      10.856  14.466  20.497  0.00  0.00    +0.000 A 
ATOM     14  C   UNL     1      10.050  13.665  21.314  0.00  0.00    +0.000 A 
ATOM     15  C   UNL     1       9.420  12.530  20.789  0.00  0.00    +0.000 A 
ENDBRANCH   7  10
ENDBRANCH   3   4
BRANCH   2  16
ATOM     16  C   UNL     1       7.413   4.817  17.023  0.00  0.00    +0.000 C 
BRANCH  16  17
ATOM     17  N   UNL     1       6.442   4.944  15.931  0.00  0.00    +0.000 NA
ATOM     18  C   UNL     1       7.030   4.974  14.591  0.00  0.00    +0.000 C 
BRANCH  17  19
ATOM     19  C   UNL     1       5.424   3.871  16.059  0.00  0.00    +0.000 C 
BRANCH  19  20
ATOM     20  C   UNL     1       4.377   4.339  17.035  0.00  0.00    +0.000 A 
ATOM     21  C   UNL     1       4.040   5.678  17.361  0.00  0.00    +0.000 A 
ATOM     22  C   UNL     1       3.073   5.920  18.370  0.00  0.00    +0.000 A 
ATOM     23  C   UNL     1       2.455   4.817  19.025  0.00  0.00    +0.000 A 
ATOM     24  C   UNL     1       2.758   3.529  18.587  0.00  0.00    +0.000 A 
ATOM     25  C   UNL     1       3.698   3.315  17.649  0.00  0.00    +0.000 A 
ATOM     26  O   UNL     1       2.146   2.440  19.095  0.00  0.00    +0.000 OA
ATOM     27  C   UNL     1       1.969   2.375  20.430  0.00  0.00    +0.000 C 
ATOM     28  C   UNL     1       1.191   3.601  20.939  0.00  0.00    +0.000 C 
ATOM     29  C   UNL     1       1.490   4.950  20.191  0.00  0.00    +0.000 C 
ENDBRANCH  19  20
ENDBRANCH  17  19
ENDBRANCH  16  17
ENDBRANCH   2  16
TORSDOF 6
ENDMDL
MODEL 6
REMARK VINA RESULT:      -7.7      0.917      1.591
REMARK  Name = 
REMARK  8 active torsions:
REMARK  status: ('A' for Active; 'I' for Inactive)
REMARK    1  A    between atoms: C_1  and  C_2
REMARK    2  A    between atoms: C_2  and  C_16
REMARK    3  A    between atoms: C_3  and  C_4
REMARK    4  A    between atoms: C_7  and  C_8
REMARK    5  A    between atoms: C_16  and  N_17
REMARK    6  A    between atoms: N_17  and  C_18
REMARK    7  A    between atoms: N_17  and  C_19
REMARK    8  A    between atoms: C_19  and  C_20
REMARK                            x       y       z     vdW  Elec       q    Type
REMARK                         _______ _______ _______ _____ _____    ______ ____
ROOT
ATOM      1  C   UNL     1       5.774   7.807  17.311  0.00  0.00    +0.000 C 
ATOM      2  C   UNL     1       5.241   6.383  17.491  0.00  0.00    +0.000 C 
ATOM      3  C   UNL     1       4.090   6.095  18.146  0.00  0.00    +0.000 C 
ENDROOT
BRANCH   3   4
ATOM      4  C   UNL     1       3.048   7.060  18.533  0.00  0.00    +0.000 A 
ATOM      5  C   UNL     1       2.508   6.992  19.819  0.00  0.00    +0.000 A 
ATOM      6  C   UNL     1       1.633   7.956  20.271  0.00  0.00    +0.000 A 
ATOM      7  C   UNL     1       1.247   9.021  19.444  0.00  0.00    +0.000 A 
ATOM      8  C   UNL     1       1.777   9.089  18.134  0.00  0.00    +0.000 A 
ATOM      9  C   UNL     1       2.698   8.126  17.692  0.00  0.00    +0.000 A 
BRANCH   7  10
ATOM     10  C   UNL     1       0.296  10.030  19.987  0.00  0.00    +0.000 A 
ATOM     11  C   UNL     1      -0.617  10.678  19.121  0.00  0.00    +0.000 A 
ATOM     12  C   UNL     1      -1.479  11.659  19.594  0.00  0.00    +0.000 A 
ATOM     13  C   UNL     1      -1.446  12.025  20.936  0.00  0.00    +0.000 A 
ATOM     14  C   UNL     1      -0.561  11.390  21.814  0.00  0.00    +0.000 A 
ATOM     15  C   UNL     1       0.299  10.387  21.348  0.00  0.00    +0.000 A 
ENDBRANCH   7  10
ENDBRANCH   3   4
BRANCH   2  16
ATOM     16  C   UNL     1       5.992   5.202  16.906  0.00  0.00    +0.000 C 
BRANCH  16  17
ATOM     17  N   UNL     1       5.289   4.472  15.846  0.00  0.00    +0.000 NA
ATOM     18  C   UNL     1       5.964   4.481  14.548  0.00  0.00    +0.000 C 
BRANCH  17  19
ATOM     19  C   UNL     1       5.010   3.090  16.310  0.00  0.00    +0.000 C 
BRANCH  19  20
ATOM     20  C   UNL     1       3.761   3.125  17.149  0.00  0.00    +0.000 A 
ATOM     21  C   UNL     1       2.479   3.599  16.766  0.00  0.00    +0.000 A 
ATOM     22  C   UNL     1       1.437   3.624  17.727  0.00  0.00    +0.000 A 
ATOM     23  C   UNL     1       1.695   3.164  19.051  0.00  0.00    +0.000 A 
ATOM     24  C   UNL     1       2.946   2.618  19.332  0.00  0.00    +0.000 A 
ATOM     25  C   UNL     1       3.933   2.629  18.417  0.00  0.00    +0.000 A 
ATOM     26  O   UNL     1       3.236   2.080  20.534  0.00  0.00    +0.000 OA
ATOM     27  C   UNL     1       2.829   2.736  21.639  0.00  0.00    +0.000 C 
ATOM     28  C   UNL     1       1.309   2.968  21.610  0.00  0.00    +0.000 C 
ATOM     29  C   UNL     1       0.694   3.243  20.190  0.00  0.00    +0.000 C 
ENDBRANCH  19  20
ENDBRANCH  17  19
ENDBRANCH  16  17
ENDBRANCH   2  16
TORSDOF 6
ENDMDL
MODEL 7
REMARK VINA RESULT:      -7.5      4.395      9.854
REMARK  Name = 
REMARK  8 active torsions:
REMARK  status: ('A' for Active; 'I' for Inactive)
REMARK    1  A    between atoms: C_1  and  C_2
REMARK    2  A    between atoms: C_2  and  C_16
REMARK    3  A    between atoms: C_3  and  C_4
REMARK    4  A    between atoms: C_7  and  C_8
REMARK    5  A    between atoms: C_16  and  N_17
REMARK    6  A    between atoms: N_17  and  C_18
REMARK    7  A    between atoms: N_17  and  C_19
REMARK    8  A    between atoms: C_19  and  C_20
REMARK                            x       y       z     vdW  Elec       q    Type
REMARK                         _______ _______ _______ _____ _____    ______ ____
ROOT
ATOM      1  C   UNL     1       1.706  12.316  19.592  0.00  0.00    +0.000 C 
ATOM      2  C   UNL     1       0.624  11.746  20.512  0.00  0.00    +0.000 C 
ATOM      3  C   UNL     1       0.240  10.446  20.497  0.00  0.00    +0.000 C 
ENDROOT
BRANCH   3   4
ATOM      4  C   UNL     1       0.950   9.341  19.833  0.00  0.00    +0.000 A 
ATOM      5  C   UNL     1       1.257   9.453  18.475  0.00  0.00    +0.000 A 
ATOM      6  C   UNL     1       2.037   8.509  17.845  0.00  0.00    +0.000 A 
ATOM      7  C   UNL     1       2.529   7.399  18.547  0.00  0.00    +0.000 A 
ATOM      8  C   UNL     1       2.211   7.269  19.919  0.00  0.00    +0.000 A 
ATOM      9  C   UNL     1       1.447   8.254  20.566  0.00  0.00    +0.000 A 
BRANCH   7  10
ATOM     10  C   UNL     1       3.366   6.410  17.811  0.00  0.00    +0.000 A 
ATOM     11  C   UNL     1       4.432   6.856  16.995  0.00  0.00    +0.000 A 
ATOM     12  C   UNL     1       5.195   5.959  16.260  0.00  0.00    +0.000 A 
ATOM     13  C   UNL     1       4.908   4.598  16.312  0.00  0.00    +0.000 A 
ATOM     14  C   UNL     1       3.867   4.131  17.121  0.00  0.00    +0.000 A 
ATOM     15  C   UNL     1       3.104   5.030  17.879  0.00  0.00    +0.000 A 
ENDBRANCH   7  10
ENDBRANCH   3   4
BRANCH   2  16
ATOM     16  C   UNL     1      -0.068  12.636  21.528  0.00  0.00    +0.000 C 
BRANCH  16  17
ATOM     17  N   UNL     1      -1.408  12.202  21.935  0.00  0.00    +0.000 NA
ATOM     18  C   UNL     1      -1.434  11.304  23.091  0.00  0.00    +0.000 C 
BRANCH  17  19
ATOM     19  C   UNL     1      -2.262  13.397  22.150  0.00  0.00    +0.000 C 
BRANCH  19  20
ATOM     20  C   UNL     1      -3.649  13.070  21.664  0.00  0.00    +0.000 A 
ATOM     21  C   UNL     1      -4.849  13.070  22.421  0.00  0.00    +0.000 A 
ATOM     22  C   UNL     1      -6.055  12.654  21.801  0.00  0.00    +0.000 A 
ATOM     23  C   UNL     1      -6.038  12.257  20.433  0.00  0.00    +0.000 A 
ATOM     24  C   UNL     1      -4.846  12.376  19.721  0.00  0.00    +0.000 A 
ATOM     25  C   UNL     1      -3.704  12.744  20.331  0.00  0.00    +0.000 A 
ATOM     26  O   UNL     1      -4.772  12.107  18.402  0.00  0.00    +0.000 OA
ATOM     27  C   UNL     1      -5.403  11.008  17.942  0.00  0.00    +0.000 C 
ATOM     28  C   UNL     1      -6.897  11.041  18.307  0.00  0.00    +0.000 C 
ATOM     29  C   UNL     1      -7.240  11.691  19.696  0.00  0.00    +0.000 C 
ENDBRANCH  19  20
ENDBRANCH  17  19
ENDBRANCH  16  17
ENDBRANCH   2  16
TORSDOF 6
ENDMDL
MODEL 8
REMARK VINA RESULT:      -7.5      4.227      9.702
REMARK  Name = 
REMARK  8 active torsions:
REMARK  status: ('A' for Active; 'I' for Inactive)
REMARK    1  A    between atoms: C_1  and  C_2
REMARK    2  A    between atoms: C_2  and  C_16
REMARK    3  A    between atoms: C_3  and  C_4
REMARK    4  A    between atoms: C_7  and  C_8
REMARK    5  A    between atoms: C_16  and  N_17
REMARK    6  A    between atoms: N_17  and  C_18
REMARK    7  A    between atoms: N_17  and  C_19
REMARK    8  A    between atoms: C_19  and  C_20
REMARK                            x       y       z     vdW  Elec       q    Type
REMARK                         _______ _______ _______ _____ _____    ______ ____
ROOT
ATOM      1  C   UNL     1      -1.633  10.702  18.502  0.00  0.00    +0.000 C 
ATOM      2  C   UNL     1      -0.426  11.613  18.738  0.00  0.00    +0.000 C 
ATOM      3  C   UNL     1       0.803  11.151  19.076  0.00  0.00    +0.000 C 
ENDROOT
BRANCH   3   4
ATOM      4  C   UNL     1       1.252   9.752  19.002  0.00  0.00    +0.000 A 
ATOM      5  C   UNL     1       1.798   9.279  17.806  0.00  0.00    +0.000 A 
ATOM      6  C   UNL     1       2.356   8.022  17.730  0.00  0.00    +0.000 A 
ATOM      7  C   UNL     1       2.373   7.175  18.848  0.00  0.00    +0.000 A 
ATOM      8  C   UNL     1       1.808   7.639  20.059  0.00  0.00    +0.000 A 
ATOM      9  C   UNL     1       1.275   8.935  20.141  0.00  0.00    +0.000 A 
BRANCH   7  10
ATOM     10  C   UNL     1       2.987   5.825  18.704  0.00  0.00    +0.000 A 
ATOM     11  C   UNL     1       4.199   5.527  19.372  0.00  0.00    +0.000 A 
ATOM     12  C   UNL     1       4.818   4.294  19.214  0.00  0.00    +0.000 A 
ATOM     13  C   UNL     1       4.251   3.333  18.382  0.00  0.00    +0.000 A 
ATOM     14  C   UNL     1       3.047   3.601  17.721  0.00  0.00    +0.000 A 
ATOM     15  C   UNL     1       2.408   4.836  17.889  0.00  0.00    +0.000 A 
ENDBRANCH   7  10
ENDBRANCH   3   4
BRANCH   2  16
ATOM     16  C   UNL     1      -0.554  13.116  18.575  0.00  0.00    +0.000 C 
BRANCH  16  17
ATOM     17  N   UNL     1       0.274  13.920  19.479  0.00  0.00    +0.000 NA
ATOM     18  C   UNL     1       1.425  14.564  18.844  0.00  0.00    +0.000 C 
BRANCH  17  19
ATOM     19  C   UNL     1      -0.587  14.905  20.181  0.00  0.00    +0.000 C 
BRANCH  19  20
ATOM     20  C   UNL     1      -1.261  14.199  21.327  0.00  0.00    +0.000 A 
ATOM     21  C   UNL     1      -0.726  13.162  22.134  0.00  0.00    +0.000 A 
ATOM     22  C   UNL     1      -1.548  12.564  23.122  0.00  0.00    +0.000 A 
ATOM     23  C   UNL     1      -2.886  13.023  23.291  0.00  0.00    +0.000 A 
ATOM     24  C   UNL     1      -3.315  14.112  22.535  0.00  0.00    +0.000 A 
ATOM     25  C   UNL     1      -2.533  14.649  21.581  0.00  0.00    +0.000 A 
ATOM     26  O   UNL     1      -4.535  14.661  22.702  0.00  0.00    +0.000 OA
ATOM     27  C   UNL     1      -5.590  13.834  22.845  0.00  0.00    +0.000 C 
ATOM     28  C   UNL     1      -5.373  12.866  24.020  0.00  0.00    +0.000 C 
ATOM     29  C   UNL     1      -3.891  12.389  24.238  0.00  0.00    +0.000 C 
ENDBRANCH  19  20
ENDBRANCH  17  19
ENDBRANCH  16  17
ENDBRANCH   2  16
TORSDOF 6
ENDMDL
MODEL 9
REMARK VINA RESULT:      -7.4      4.195      9.599
REMARK  Name = 
REMARK  8 active torsions:
REMARK  status: ('A' for Active; 'I' for Inactive)
REMARK    1  A    between atoms: C_1  and  C_2
REMARK    2  A    between atoms: C_2  and  C_16
REMARK    3  A    between atoms: C_3  and  C_4
REMARK    4  A    between atoms: C_7  and  C_8
REMARK    5  A    between atoms: C_16  and  N_17
REMARK    6  A    between atoms: N_17  and  C_18
REMARK    7  A    between atoms: N_17  and  C_19
REMARK    8  A    between atoms: C_19  and  C_20
REMARK                            x       y       z     vdW  Elec       q    Type
REMARK                         _______ _______ _______ _____ _____    ______ ____
ROOT
ATOM      1  C   UNL     1      -1.374  10.207  18.017  0.00  0.00    +0.000 C 
ATOM      2  C   UNL     1      -0.428  11.250  18.616  0.00  0.00    +0.000 C 
ATOM      3  C   UNL     1       0.648  10.932  19.376  0.00  0.00    +0.000 C 
ENDROOT
BRANCH   3   4
ATOM      4  C   UNL     1       1.241   9.593  19.520  0.00  0.00    +0.000 A 
ATOM      5  C   UNL     1       1.010   8.874  20.696  0.00  0.00    +0.000 A 
ATOM      6  C   UNL     1       1.428   7.567  20.820  0.00  0.00    +0.000 A 
ATOM      7  C   UNL     1       2.114   6.930  19.776  0.00  0.00    +0.000 A 
ATOM      8  C   UNL     1       2.366   7.654  18.588  0.00  0.00    +0.000 A 
ATOM      9  C   UNL     1       1.904   8.974  18.451  0.00  0.00    +0.000 A 
BRANCH   7  10
ATOM     10  C   UNL     1       2.544   5.516  19.970  0.00  0.00    +0.000 A 
ATOM     11  C   UNL     1       3.551   4.965  19.143  0.00  0.00    +0.000 A 
ATOM     12  C   UNL     1       3.934   3.636  19.270  0.00  0.00    +0.000 A 
ATOM     13  C   UNL     1       3.316   2.823  20.216  0.00  0.00    +0.000 A 
ATOM     14  C   UNL     1       2.326   3.349  21.053  0.00  0.00    +0.000 A 
ATOM     15  C   UNL     1       1.947   4.693  20.942  0.00  0.00    +0.000 A 
ENDBRANCH   7  10
ENDBRANCH   3   4
BRANCH   2  16
ATOM     16  C   UNL     1      -0.650  12.728  18.357  0.00  0.00    +0.000 C 
BRANCH  16  17
ATOM     17  N   UNL     1      -0.033  13.637  19.328  0.00  0.00    +0.000 NA
ATOM     18  C   UNL     1       1.132  14.368  18.827  0.00  0.00    +0.000 C 
BRANCH  17  19
ATOM     19  C   UNL     1      -1.070  14.557  19.859  0.00  0.00    +0.000 C 
BRANCH  19  20
ATOM     20  C   UNL     1      -1.644  13.940  21.107  0.00  0.00    +0.000 A 
ATOM     21  C   UNL     1      -1.026  12.989  21.959  0.00  0.00    +0.000 A 
ATOM     22  C   UNL     1      -1.761  12.461  23.051  0.00  0.00    +0.000 A 
ATOM     23  C   UNL     1      -3.096  12.903  23.275  0.00  0.00    +0.000 A 
ATOM     24  C   UNL     1      -3.607  13.912  22.460  0.00  0.00    +0.000 A 
ATOM     25  C   UNL     1      -2.907  14.381  21.411  0.00  0.00    +0.000 A 
ATOM     26  O   UNL     1      -4.827  14.447  22.666  0.00  0.00    +0.000 OA
ATOM     27  C   UNL     1      -5.847  13.612  22.953  0.00  0.00    +0.000 C 
ATOM     28  C   UNL     1      -5.521  12.755  24.189  0.00  0.00    +0.000 C 
ATOM     29  C   UNL     1      -4.015  12.332  24.341  0.00  0.00    +0.000 C 
ENDBRANCH  19  20
ENDBRANCH  17  19
ENDBRANCH  16  17
ENDBRANCH   2  16
TORSDOF 6
ENDMDL
