MODEL 1
REMARK VINA RESULT:      -7.4      0.000      0.000
REMARK  Name = 
REMARK  7 active torsions:
REMARK  status: ('A' for Active; 'I' for Inactive)
REMARK    1  A    between atoms: C_1  and  C_2
REMARK    2  A    between atoms: C_2  and  C_3
REMARK    3  A    between atoms: C_3  and  C_4
REMARK    4  A    between atoms: C_4  and  O_5
REMARK    5  A    between atoms: O_5  and  C_6
REMARK    6  A    between atoms: C_9  and  C_10
REMARK    7  A    between atoms: C_20  and  N_21
REMARK                            x       y       z     vdW  Elec       q    Type
REMARK                         _______ _______ _______ _____ _____    ______ ____
ROOT
ATOM      1  C   UNL     1       4.634   5.063  17.277  0.00  0.00    +0.000 A 
ATOM      2  C   UNL     1       4.465   6.393  16.876  0.00  0.00    +0.000 A 
ATOM      3  C   UNL     1       3.637   7.264  17.588  0.00  0.00    +0.000 A 
ATOM      4  C   UNL     1       2.941   6.837  18.724  0.00  0.00    +0.000 A 
ATOM      5  C   UNL     1       3.094   5.510  19.142  0.00  0.00    +0.000 A 
ATOM      6  C   UNL     1       3.933   4.646  18.416  0.00  0.00    +0.000 A 
ENDROOT
BRANCH   4   7
ATOM      7  C   UNL     1       2.080   7.785  19.403  0.00  0.00    +0.000 A 
ATOM      8  C   UNL     1       1.559   8.950  18.883  0.00  0.00    +0.000 A 
ATOM      9  N   UNL     1       0.852   9.526  19.909  0.00  0.00    +0.000 N 
ATOM     10  C   UNL     1       0.148  10.726  19.934  0.00  0.00    +0.000 A 
ATOM     11  C   UNL     1      -0.462  11.101  21.071  0.00  0.00    +0.000 A 
ATOM     12  C   UNL     1      -0.367  10.237  22.241  0.00  0.00    +0.000 A 
ATOM     13  C   UNL     1       0.313   9.075  22.205  0.00  0.00    +0.000 A 
ATOM     14  C   UNL     1       0.963   8.676  21.003  0.00  0.00    +0.000 A 
ATOM     15  N   UNL     1       1.692   7.621  20.715  0.00  0.00    +0.000 NA
ENDBRANCH   4   7
BRANCH   6  16
ATOM     16  N   UNL     1       4.055   3.289  18.908  0.00  0.00    +0.000 N 
ATOM     17  O   UNL     1       4.981   3.040  19.691  0.00  0.00    +0.000 OA
ATOM     18  O   UNL     1       3.269   2.452  18.438  0.00  0.00    +0.000 OA
ENDBRANCH   6  16
BRANCH   1  19
ATOM     19  O   UNL     1       5.458   4.177  16.628  0.00  0.00    +0.000 OA
BRANCH  19  20
ATOM     20  C   UNL     1       6.774   4.664  16.347  0.00  0.00    +0.000 C 
BRANCH  20  21
ATOM     21  C   UNL     1       7.030   4.716  14.848  0.00  0.00    +0.000 C 
BRANCH  21  23
ATOM     22  C   UNL     1       6.180   3.536  12.784  0.00  0.00    +0.000 C 
ATOM     23  C   UNL     1       5.802   4.203  14.093  0.00  0.00    +0.000 C 
ENDBRANCH  21  23
ENDBRANCH  20  21
ENDBRANCH  19  20
ENDBRANCH   1  19
TORSDOF 6
ENDMDL
MODEL 2
REMARK VINA RESULT:      -7.3      0.822      1.213
REMARK  Name = 
REMARK  7 active torsions:
REMARK  status: ('A' for Active; 'I' for Inactive)
REMARK    1  A    between atoms: C_1  and  C_2
REMARK    2  A    between atoms: C_2  and  C_3
REMARK    3  A    between atoms: C_3  and  C_4
REMARK    4  A    between atoms: C_4  and  O_5
REMARK    5  A    between atoms: O_5  and  C_6
REMARK    6  A    between atoms: C_9  and  C_10
REMARK    7  A    between atoms: C_20  and  N_21
REMARK                            x       y       z     vdW  Elec       q    Type
REMARK                         _______ _______ _______ _____ _____    ______ ____
ROOT
ATOM      1  C   UNL     1       5.161   5.061  17.018  0.00  0.00    +0.000 A 
ATOM      2  C   UNL     1       5.201   6.424  16.701  0.00  0.00    +0.000 A 
ATOM      3  C   UNL     1       4.274   7.319  17.239  0.00  0.00    +0.000 A 
ATOM      4  C   UNL     1       3.267   6.885  18.109  0.00  0.00    +0.000 A 
ATOM      5  C   UNL     1       3.208   5.526  18.437  0.00  0.00    +0.000 A 
ATOM      6  C   UNL     1       4.149   4.638  17.889  0.00  0.00    +0.000 A 
ENDROOT
BRANCH   4   7
ATOM      7  C   UNL     1       2.323   7.862  18.614  0.00  0.00    +0.000 A 
ATOM      8  C   UNL     1       1.707   8.867  17.898  0.00  0.00    +0.000 A 
ATOM      9  N   UNL     1       0.946   9.554  18.810  0.00  0.00    +0.000 N 
ATOM     10  C   UNL     1       0.141  10.674  18.624  0.00  0.00    +0.000 A 
ATOM     11  C   UNL     1      -0.507  11.193  19.680  0.00  0.00    +0.000 A 
ATOM     12  C   UNL     1      -0.348  10.564  20.985  0.00  0.00    +0.000 A 
ATOM     13  C   UNL     1       0.430   9.477  21.153  0.00  0.00    +0.000 A 
ATOM     14  C   UNL     1       1.121   8.926  20.037  0.00  0.00    +0.000 A 
ATOM     15  N   UNL     1       1.940   7.904  19.938  0.00  0.00    +0.000 NA
ENDBRANCH   4   7
BRANCH   6  16
ATOM     16  N   UNL     1       4.038   3.247  18.279  0.00  0.00    +0.000 N 
ATOM     17  O   UNL     1       3.313   2.513  17.595  0.00  0.00    +0.000 OA
ATOM     18  O   UNL     1       4.614   2.913  19.326  0.00  0.00    +0.000 OA
ENDBRANCH   6  16
BRANCH   1  19
ATOM     19  O   UNL     1       6.066   4.148  16.537  0.00  0.00    +0.000 OA
BRANCH  19  20
ATOM     20  C   UNL     1       6.544   4.404  15.212  0.00  0.00    +0.000 C 
BRANCH  20  21
ATOM     21  C   UNL     1       5.501   4.023  14.171  0.00  0.00    +0.000 C 
BRANCH  21  23
ATOM     22  C   UNL     1       5.198   3.197  11.804  0.00  0.00    +0.000 C 
ATOM     23  C   UNL     1       6.194   3.612  12.869  0.00  0.00    +0.000 C 
ENDBRANCH  21  23
ENDBRANCH  20  21
ENDBRANCH  19  20
ENDBRANCH   1  19
TORSDOF 6
ENDMDL
MODEL 3
REMARK VINA RESULT:      -7.3      0.938      1.744
REMARK  Name = 
REMARK  7 active torsions:
REMARK  status: ('A' for Active; 'I' for Inactive)
REMARK    1  A    between atoms: C_1  and  C_2
REMARK    2  A    between atoms: C_2  and  C_3
REMARK    3  A    between atoms: C_3  and  C_4
REMARK    4  A    between atoms: C_4  and  O_5
REMARK    5  A    between atoms: O_5  and  C_6
REMARK    6  A    between atoms: C_9  and  C_10
REMARK    7  A    between atoms: C_20  and  N_21
REMARK                            x       y       z     vdW  Elec       q    Type
REMARK                         _______ _______ _______ _____ _____    ______ ____
ROOT
ATOM      1  C   UNL     1       4.592   4.799  16.921  0.00  0.00    +0.000 A 
ATOM      2  C   UNL     1       4.877   6.162  16.784  0.00  0.00    +0.000 A 
ATOM      3  C   UNL     1       4.098   7.132  17.417  0.00  0.00    +0.000 A 
ATOM      4  C   UNL     1       2.998   6.777  18.206  0.00  0.00    +0.000 A 
ATOM      5  C   UNL     1       2.693   5.420  18.355  0.00  0.00    +0.000 A 
ATOM      6  C   UNL     1       3.489   4.455  17.713  0.00  0.00    +0.000 A 
ENDROOT
BRANCH   4   7
ATOM      7  C   UNL     1       2.217   7.834  18.817  0.00  0.00    +0.000 A 
ATOM      8  C   UNL     1       1.795   7.902  20.127  0.00  0.00    +0.000 A 
ATOM      9  N   UNL     1       1.056   9.055  20.216  0.00  0.00    +0.000 N 
ATOM     10  C   UNL     1       0.379   9.590  21.308  0.00  0.00    +0.000 A 
ATOM     11  C   UNL     1      -0.301  10.738  21.154  0.00  0.00    +0.000 A 
ATOM     12  C   UNL     1      -0.306  11.388  19.850  0.00  0.00    +0.000 A 
ATOM     13  C   UNL     1       0.356  10.864  18.800  0.00  0.00    +0.000 A 
ATOM     14  C   UNL     1       1.075   9.645  18.958  0.00  0.00    +0.000 A 
ATOM     15  N   UNL     1       1.774   8.930  18.106  0.00  0.00    +0.000 NA
ENDBRANCH   4   7
BRANCH   6  16
ATOM     16  N   UNL     1       3.125   3.067  17.917  0.00  0.00    +0.000 N 
ATOM     17  O   UNL     1       2.244   2.589  17.191  0.00  0.00    +0.000 OA
ATOM     18  O   UNL     1       3.666   2.483  18.869  0.00  0.00    +0.000 OA
ENDBRANCH   6  16
BRANCH   1  19
ATOM     19  O   UNL     1       5.344   3.807  16.341  0.00  0.00    +0.000 OA
BRANCH  19  20
ATOM     20  C   UNL     1       6.214   4.240  15.290  0.00  0.00    +0.000 C 
BRANCH  20  21
ATOM     21  C   UNL     1       5.491   4.255  13.952  0.00  0.00    +0.000 C 
BRANCH  21  23
ATOM     22  C   UNL     1       5.660   2.856  11.857  0.00  0.00    +0.000 C 
ATOM     23  C   UNL     1       6.413   3.711  12.857  0.00  0.00    +0.000 C 
ENDBRANCH  21  23
ENDBRANCH  20  21
ENDBRANCH  19  20
ENDBRANCH   1  19
TORSDOF 6
ENDMDL
MODEL 4
REMARK VINA RESULT:      -7.2      1.795      2.729
REMARK  Name = 
REMARK  7 active torsions:
REMARK  status: ('A' for Active; 'I' for Inactive)
REMARK    1  A    between atoms: C_1  and  C_2
REMARK    2  A    between atoms: C_2  and  C_3
REMARK    3  A    between atoms: C_3  and  C_4
REMARK    4  A    between atoms: C_4  and  O_5
REMARK    5  A    between atoms: O_5  and  C_6
REMARK    6  A    between atoms: C_9  and  C_10
REMARK    7  A    between atoms: C_20  and  N_21
REMARK                            x       y       z     vdW  Elec       q    Type
REMARK                         _______ _______ _______ _____ _____    ______ ____
ROOT
ATOM      1  C   UNL     1       5.186   4.214  16.508  0.00  0.00    +0.000 A 
ATOM      2  C   UNL     1       3.806   4.056  16.676  0.00  0.00    +0.000 A 
ATOM      3  C   UNL     1       3.052   4.990  17.390  0.00  0.00    +0.000 A 
ATOM      4  C   UNL     1       3.650   6.114  17.969  0.00  0.00    +0.000 A 
ATOM      5  C   UNL     1       5.030   6.291  17.815  0.00  0.00    +0.000 A 
ATOM      6  C   UNL     1       5.774   5.343  17.092  0.00  0.00    +0.000 A 
ENDROOT
BRANCH   4   7
ATOM      7  C   UNL     1       2.814   7.033  18.716  0.00  0.00    +0.000 A 
ATOM      8  C   UNL     1       2.338   6.864  19.999  0.00  0.00    +0.000 A 
ATOM      9  N   UNL     1       1.562   7.967  20.250  0.00  0.00    +0.000 N 
ATOM     10  C   UNL     1       0.827   8.290  21.387  0.00  0.00    +0.000 A 
ATOM     11  C   UNL     1       0.119   9.432  21.403  0.00  0.00    +0.000 A 
ATOM     12  C   UNL     1       0.147  10.297  20.230  0.00  0.00    +0.000 A 
ATOM     13  C   UNL     1       0.866   9.977  19.136  0.00  0.00    +0.000 A 
ATOM     14  C   UNL     1       1.614   8.766  19.115  0.00  0.00    +0.000 A 
ATOM     15  N   UNL     1       2.368   8.224  18.184  0.00  0.00    +0.000 NA
ENDBRANCH   4   7
BRANCH   6  16
ATOM     16  N   UNL     1       7.196   5.591  16.960  0.00  0.00    +0.000 N 
ATOM     17  O   UNL     1       7.971   4.845  17.573  0.00  0.00    +0.000 OA
ATOM     18  O   UNL     1       7.529   6.594  16.309  0.00  0.00    +0.000 OA
ENDBRANCH   6  16
BRANCH   1  19
ATOM     19  O   UNL     1       5.965   3.338  15.792  0.00  0.00    +0.000 OA
BRANCH  19  20
ATOM     20  C   UNL     1       6.434   3.832  14.533  0.00  0.00    +0.000 C 
BRANCH  20  21
ATOM     21  C   UNL     1       5.283   4.030  13.558  0.00  0.00    +0.000 C 
BRANCH  21  23
ATOM     22  C   UNL     1       4.334   3.198  11.371  0.00  0.00    +0.000 C 
ATOM     23  C   UNL     1       5.557   3.256  12.266  0.00  0.00    +0.000 C 
ENDBRANCH  21  23
ENDBRANCH  20  21
ENDBRANCH  19  20
ENDBRANCH   1  19
TORSDOF 6
ENDMDL
MODEL 5
REMARK VINA RESULT:      -7.2      1.081      1.810
REMARK  Name = 
REMARK  7 active torsions:
REMARK  status: ('A' for Active; 'I' for Inactive)
REMARK    1  A    between atoms: C_1  and  C_2
REMARK    2  A    between atoms: C_2  and  C_3
REMARK    3  A    between atoms: C_3  and  C_4
REMARK    4  A    between atoms: C_4  and  O_5
REMARK    5  A    between atoms: O_5  and  C_6
REMARK    6  A    between atoms: C_9  and  C_10
REMARK    7  A    between atoms: C_20  and  N_21
REMARK                            x       y       z     vdW  Elec       q    Type
REMARK                         _______ _______ _______ _____ _____    ______ ____
ROOT
ATOM      1  C   UNL     1       4.058   5.416  17.202  0.00  0.00    +0.000 A 
ATOM      2  C   UNL     1       4.227   6.804  17.184  0.00  0.00    +0.000 A 
ATOM      3  C   UNL     1       3.461   7.636  18.004  0.00  0.00    +0.000 A 
ATOM      4  C   UNL     1       2.493   7.112  18.868  0.00  0.00    +0.000 A 
ATOM      5  C   UNL     1       2.307   5.726  18.899  0.00  0.00    +0.000 A 
ATOM      6  C   UNL     1       3.086   4.901  18.070  0.00  0.00    +0.000 A 
ENDROOT
BRANCH   4   7
ATOM      7  C   UNL     1       1.718   8.033  19.675  0.00  0.00    +0.000 A 
ATOM      8  C   UNL     1       1.251   9.274  19.299  0.00  0.00    +0.000 A 
ATOM      9  N   UNL     1       0.619   9.780  20.407  0.00  0.00    +0.000 N 
ATOM     10  C   UNL     1      -0.009  11.009  20.583  0.00  0.00    +0.000 A 
ATOM     11  C   UNL     1      -0.553  11.298  21.777  0.00  0.00    +0.000 A 
ATOM     12  C   UNL     1      -0.472  10.313  22.847  0.00  0.00    +0.000 A 
ATOM     13  C   UNL     1       0.133   9.123  22.665  0.00  0.00    +0.000 A 
ATOM     14  C   UNL     1       0.715   8.815  21.403  0.00  0.00    +0.000 A 
ATOM     15  N   UNL     1       1.366   7.755  20.979  0.00  0.00    +0.000 NA
ENDBRANCH   4   7
BRANCH   6  16
ATOM     16  N   UNL     1       2.850   3.475  18.159  0.00  0.00    +0.000 N 
ATOM     17  O   UNL     1       1.973   2.988  17.434  0.00  0.00    +0.000 OA
ATOM     18  O   UNL     1       3.490   2.857  19.024  0.00  0.00    +0.000 OA
ENDBRANCH   6  16
BRANCH   1  19
ATOM     19  O   UNL     1       4.805   4.554  16.435  0.00  0.00    +0.000 OA
BRANCH  19  20
ATOM     20  C   UNL     1       5.709   5.182  15.521  0.00  0.00    +0.000 C 
BRANCH  20  21
ATOM     21  C   UNL     1       7.152   4.824  15.844  0.00  0.00    +0.000 C 
BRANCH  21  23
ATOM     22  C   UNL     1       7.655   5.839  18.100  0.00  0.00    +0.000 C 
ATOM     23  C   UNL     1       7.301   4.572  17.346  0.00  0.00    +0.000 C 
ENDBRANCH  21  23
ENDBRANCH  20  21
ENDBRANCH  19  20
ENDBRANCH   1  19
TORSDOF 6
ENDMDL
MODEL 6
REMARK VINA RESULT:      -7.2      1.335      2.194
REMARK  Name = 
REMARK  7 active torsions:
REMARK  status: ('A' for Active; 'I' for Inactive)
REMARK    1  A    between atoms: C_1  and  C_2
REMARK    2  A    between atoms: C_2  and  C_3
REMARK    3  A    between atoms: C_3  and  C_4
REMARK    4  A    between atoms: C_4  and  O_5
REMARK    5  A    between atoms: O_5  and  C_6
REMARK    6  A    between atoms: C_9  and  C_10
REMARK    7  A    between atoms: C_20  and  N_21
REMARK                            x       y       z     vdW  Elec       q    Type
REMARK                         _______ _______ _______ _____ _____    ______ ____
ROOT
ATOM      1  C   UNL     1       3.940   5.600  17.512  0.00  0.00    +0.000 A 
ATOM      2  C   UNL     1       3.857   6.980  17.294  0.00  0.00    +0.000 A 
ATOM      3  C   UNL     1       3.106   7.801  18.138  0.00  0.00    +0.000 A 
ATOM      4  C   UNL     1       2.403   7.274  19.227  0.00  0.00    +0.000 A 
ATOM      5  C   UNL     1       2.471   5.896  19.461  0.00  0.00    +0.000 A 
ATOM      6  C   UNL     1       3.233   5.082  18.604  0.00  0.00    +0.000 A 
ENDROOT
BRANCH   4   7
ATOM      7  C   UNL     1       1.624   8.178  20.049  0.00  0.00    +0.000 A 
ATOM      8  C   UNL     1       1.289   8.011  21.375  0.00  0.00    +0.000 A 
ATOM      9  N   UNL     1       0.513   9.097  21.697  0.00  0.00    +0.000 N 
ATOM     10  C   UNL     1      -0.109   9.414  22.901  0.00  0.00    +0.000 A 
ATOM     11  C   UNL     1      -0.843  10.537  22.980  0.00  0.00    +0.000 A 
ATOM     12  C   UNL     1      -0.960  11.388  21.803  0.00  0.00    +0.000 A 
ATOM     13  C   UNL     1      -0.350  11.075  20.643  0.00  0.00    +0.000 A 
ATOM     14  C   UNL     1       0.425   9.884  20.554  0.00  0.00    +0.000 A 
ATOM     15  N   UNL     1       1.093   9.351  19.556  0.00  0.00    +0.000 NA
ENDBRANCH   4   7
BRANCH   6  16
ATOM     16  N   UNL     1       3.269   3.666  18.909  0.00  0.00    +0.000 N 
ATOM     17  O   UNL     1       4.185   3.255  19.632  0.00  0.00    +0.000 OA
ATOM     18  O   UNL     1       2.422   2.953  18.349  0.00  0.00    +0.000 OA
ENDBRANCH   6  16
BRANCH   1  19
ATOM     19  O   UNL     1       4.687   4.755  16.728  0.00  0.00    +0.000 OA
BRANCH  19  20
ATOM     20  C   UNL     1       5.870   5.333  16.167  0.00  0.00    +0.000 C 
BRANCH  20  21
ATOM     21  C   UNL     1       7.098   4.497  16.498  0.00  0.00    +0.000 C 
BRANCH  21  23
ATOM     22  C   UNL     1       7.572   6.301  18.199  0.00  0.00    +0.000 C 
ATOM     23  C   UNL     1       7.573   4.811  17.919  0.00  0.00    +0.000 C 
ENDBRANCH  21  23
ENDBRANCH  20  21
ENDBRANCH  19  20
ENDBRANCH   1  19
TORSDOF 6
ENDMDL
MODEL 7
REMARK VINA RESULT:      -7.1      0.885      1.174
REMARK  Name = 
REMARK  7 active torsions:
REMARK  status: ('A' for Active; 'I' for Inactive)
REMARK    1  A    between atoms: C_1  and  C_2
REMARK    2  A    between atoms: C_2  and  C_3
REMARK    3  A    between atoms: C_3  and  C_4
REMARK    4  A    between atoms: C_4  and  O_5
REMARK    5  A    between atoms: O_5  and  C_6
REMARK    6  A    between atoms: C_9  and  C_10
REMARK    7  A    between atoms: C_20  and  N_21
REMARK                            x       y       z     vdW  Elec       q    Type
REMARK                         _______ _______ _______ _____ _____    ______ ____
ROOT
ATOM      1  C   UNL     1       3.884   5.431  17.674  0.00  0.00    +0.000 A 
ATOM      2  C   UNL     1       3.843   6.801  17.394  0.00  0.00    +0.000 A 
ATOM      3  C   UNL     1       3.081   7.676  18.172  0.00  0.00    +0.000 A 
ATOM      4  C   UNL     1       2.325   7.214  19.254  0.00  0.00    +0.000 A 
ATOM      5  C   UNL     1       2.350   5.846  19.551  0.00  0.00    +0.000 A 
ATOM      6  C   UNL     1       3.123   4.979  18.761  0.00  0.00    +0.000 A 
ENDROOT
BRANCH   4   7
ATOM      7  C   UNL     1       1.538   8.171  20.006  0.00  0.00    +0.000 A 
ATOM      8  C   UNL     1       1.149   9.428  19.595  0.00  0.00    +0.000 A 
ATOM      9  N   UNL     1       0.468   9.967  20.657  0.00  0.00    +0.000 N 
ATOM     10  C   UNL     1      -0.118  11.222  20.787  0.00  0.00    +0.000 A 
ATOM     11  C   UNL     1      -0.726  11.542  21.942  0.00  0.00    +0.000 A 
ATOM     12  C   UNL     1      -0.754  10.563  23.020  0.00  0.00    +0.000 A 
ATOM     13  C   UNL     1      -0.188   9.348  22.883  0.00  0.00    +0.000 A 
ATOM     14  C   UNL     1       0.460   9.006  21.662  0.00  0.00    +0.000 A 
ATOM     15  N   UNL     1       1.092   7.918  21.286  0.00  0.00    +0.000 NA
ENDBRANCH   4   7
BRANCH   6  16
ATOM     16  N   UNL     1       3.114   3.577  19.128  0.00  0.00    +0.000 N 
ATOM     17  O   UNL     1       2.152   2.890  18.759  0.00  0.00    +0.000 OA
ATOM     18  O   UNL     1       4.033   3.187  19.864  0.00  0.00    +0.000 OA
ENDBRANCH   6  16
BRANCH   1  19
ATOM     19  O   UNL     1       4.639   4.535  16.957  0.00  0.00    +0.000 OA
BRANCH  19  20
ATOM     20  C   UNL     1       6.050   4.613  17.182  0.00  0.00    +0.000 C 
BRANCH  20  21
ATOM     21  C   UNL     1       6.778   5.089  15.933  0.00  0.00    +0.000 C 
BRANCH  21  23
ATOM     22  C   UNL     1       6.211   3.837  13.815  0.00  0.00    +0.000 C 
ATOM     23  C   UNL     1       5.846   4.996  14.722  0.00  0.00    +0.000 C 
ENDBRANCH  21  23
ENDBRANCH  20  21
ENDBRANCH  19  20
ENDBRANCH   1  19
TORSDOF 6
ENDMDL
MODEL 8
REMARK VINA RESULT:      -7.1      1.452      2.001
REMARK  Name = 
REMARK  7 active torsions:
REMARK  status: ('A' for Active; 'I' for Inactive)
REMARK    1  A    between atoms: C_1  and  C_2
REMARK    2  A    between atoms: C_2  and  C_3
REMARK    3  A    between atoms: C_3  and  C_4
REMARK    4  A    between atoms: C_4  and  O_5
REMARK    5  A    between atoms: O_5  and  C_6
REMARK    6  A    between atoms: C_9  and  C_10
REMARK    7  A    between atoms: C_20  and  N_21
REMARK                            x       y       z     vdW  Elec       q    Type
REMARK                         _______ _______ _______ _____ _____    ______ ____
ROOT
ATOM      1  C   UNL     1       4.057   5.628  17.517  0.00  0.00    +0.000 A 
ATOM      2  C   UNL     1       3.884   6.985  17.219  0.00  0.00    +0.000 A 
ATOM      3  C   UNL     1       3.086   7.805  18.019  0.00  0.00    +0.000 A 
ATOM      4  C   UNL     1       2.424   7.300  19.143  0.00  0.00    +0.000 A 
ATOM      5  C   UNL     1       2.581   5.945  19.457  0.00  0.00    +0.000 A 
ATOM      6  C   UNL     1       3.389   5.133  18.644  0.00  0.00    +0.000 A 
ENDROOT
BRANCH   4   7
ATOM      7  C   UNL     1       1.592   8.200  19.916  0.00  0.00    +0.000 A 
ATOM      8  C   UNL     1       1.067   9.405  19.502  0.00  0.00    +0.000 A 
ATOM      9  N   UNL     1       0.396   9.906  20.589  0.00  0.00    +0.000 N 
ATOM     10  C   UNL     1      -0.296  11.106  20.725  0.00  0.00    +0.000 A 
ATOM     11  C   UNL     1      -0.868  11.398  21.905  0.00  0.00    +0.000 A 
ATOM     12  C   UNL     1      -0.749  10.448  23.003  0.00  0.00    +0.000 A 
ATOM     13  C   UNL     1      -0.081   9.286  22.860  0.00  0.00    +0.000 A 
ATOM     14  C   UNL     1       0.531   8.975  21.612  0.00  0.00    +0.000 A 
ATOM     15  N   UNL     1       1.241   7.940  21.224  0.00  0.00    +0.000 NA
ENDBRANCH   4   7
BRANCH   6  16
ATOM     16  N   UNL     1       3.518   3.743  19.032  0.00  0.00    +0.000 N 
ATOM     17  O   UNL     1       4.453   3.437  19.783  0.00  0.00    +0.000 OA
ATOM     18  O   UNL     1       2.727   2.942  18.509  0.00  0.00    +0.000 OA
ENDBRANCH   6  16
BRANCH   1  19
ATOM     19  O   UNL     1       4.853   4.788  16.778  0.00  0.00    +0.000 OA
BRANCH  19  20
ATOM     20  C   UNL     1       6.221   4.726  17.192  0.00  0.00    +0.000 C 
BRANCH  20  21
ATOM     21  C   UNL     1       6.980   5.974  16.765  0.00  0.00    +0.000 C 
BRANCH  21  23
ATOM     22  C   UNL     1       7.452   5.786  19.238  0.00  0.00    +0.000 C 
ATOM     23  C   UNL     1       7.684   6.593  17.975  0.00  0.00    +0.000 C 
ENDBRANCH  21  23
ENDBRANCH  20  21
ENDBRANCH  19  20
ENDBRANCH   1  19
TORSDOF 6
ENDMDL
MODEL 9
REMARK VINA RESULT:      -7.1      1.763      2.406
REMARK  Name = 
REMARK  7 active torsions:
REMARK  status: ('A' for Active; 'I' for Inactive)
REMARK    1  A    between atoms: C_1  and  C_2
REMARK    2  A    between atoms: C_2  and  C_3
REMARK    3  A    between atoms: C_3  and  C_4
REMARK    4  A    between atoms: C_4  and  O_5
REMARK    5  A    between atoms: O_5  and  C_6
REMARK    6  A    between atoms: C_9  and  C_10
REMARK    7  A    between atoms: C_20  and  N_21
REMARK                            x       y       z     vdW  Elec       q    Type
REMARK                         _______ _______ _______ _____ _____    ______ ____
ROOT
ATOM      1  C   UNL     1       5.334   4.697  16.761  0.00  0.00    +0.000 A 
ATOM      2  C   UNL     1       3.967   4.425  16.886  0.00  0.00    +0.000 A 
ATOM      3  C   UNL     1       3.106   5.322  17.522  0.00  0.00    +0.000 A 
ATOM      4  C   UNL     1       3.580   6.522  18.064  0.00  0.00    +0.000 A 
ATOM      5  C   UNL     1       4.944   6.813  17.952  0.00  0.00    +0.000 A 
ATOM      6  C   UNL     1       5.797   5.901  17.308  0.00  0.00    +0.000 A 
ENDROOT
BRANCH   4   7
ATOM      7  C   UNL     1       2.637   7.398  18.730  0.00  0.00    +0.000 A 
ATOM      8  C   UNL     1       2.075   8.550  18.224  0.00  0.00    +0.000 A 
ATOM      9  N   UNL     1       1.291   9.050  19.233  0.00  0.00    +0.000 N 
ATOM     10  C   UNL     1       0.519  10.208  19.262  0.00  0.00    +0.000 A 
ATOM     11  C   UNL     1      -0.161  10.510  20.381  0.00  0.00    +0.000 A 
ATOM     12  C   UNL     1      -0.073   9.613  21.526  0.00  0.00    +0.000 A 
ATOM     13  C   UNL     1       0.673   8.492  21.486  0.00  0.00    +0.000 A 
ATOM     14  C   UNL     1       1.399   8.170  20.303  0.00  0.00    +0.000 A 
ATOM     15  N   UNL     1       2.199   7.168  20.017  0.00  0.00    +0.000 NA
ENDBRANCH   4   7
BRANCH   6  16
ATOM     16  N   UNL     1       7.196   6.267  17.217  0.00  0.00    +0.000 N 
ATOM     17  O   UNL     1       7.679   6.428  16.089  0.00  0.00    +0.000 OA
ATOM     18  O   UNL     1       7.832   6.307  18.282  0.00  0.00    +0.000 OA
ENDBRANCH   6  16
BRANCH   1  19
ATOM     19  O   UNL     1       6.215   3.860  16.122  0.00  0.00    +0.000 OA
BRANCH  19  20
ATOM     20  C   UNL     1       5.825   3.459  14.804  0.00  0.00    +0.000 C 
BRANCH  20  21
ATOM     21  C   UNL     1       6.542   4.284  13.746  0.00  0.00    +0.000 C 
BRANCH  21  23
ATOM     22  C   UNL     1       4.993   3.246  12.044  0.00  0.00    +0.000 C 
ATOM     23  C   UNL     1       6.429   3.593  12.384  0.00  0.00    +0.000 C 
ENDBRANCH  21  23
ENDBRANCH  20  21
ENDBRANCH  19  20
ENDBRANCH   1  19
TORSDOF 6
ENDMDL
