MODEL 1
REMARK VINA RESULT:      -8.3      0.000      0.000
REMARK  Name = 
REMARK  6 active torsions:
REMARK  status: ('A' for Active; 'I' for Inactive)
REMARK    1  A    between atoms: C_2  and  C_3
REMARK    2  A    between atoms: C_3  and  C_4
REMARK    3  A    between atoms: N_10  and  C_11
REMARK    4  A    between atoms: N_14  and  C_15
REMARK    5  A    between atoms: C_15  and  C_16
REMARK    6  A    between atoms: C_19  and  C_20
REMARK                            x       y       z     vdW  Elec       q    Type
REMARK                         _______ _______ _______ _____ _____    ______ ____
ROOT
ATOM      1  C   UNL     1       7.397   5.772  17.467  0.00  0.00    +0.000 C 
ATOM      2  C   UNL     1       6.707   5.108  16.277  0.00  0.00    +0.000 C 
ATOM      3  C   UNL     1       5.199   5.349  16.288  0.00  0.00    +0.000 C 
ATOM      4  N   UNL     1       4.564   4.933  17.551  0.00  0.00    +0.000 NA
ATOM      5  C   UNL     1       5.196   5.578  18.713  0.00  0.00    +0.000 C 
ATOM      6  C   UNL     1       6.709   5.343  18.762  0.00  0.00    +0.000 C 
ENDROOT
BRANCH   1   9
ATOM      7  O   UNL     1       8.829   7.633  19.087  0.00  0.00    +0.000 OA
ATOM      8  C   UNL     1       8.131   8.049  18.167  0.00  0.00    +0.000 C 
ATOM      9  N   UNL     1       7.421   7.227  17.314  0.00  0.00    +0.000 N 
ATOM     10  H   UNL     1       6.679   7.661  16.781  0.00  0.00    +0.000 HD
BRANCH   8  11
ATOM     11  C   UNL     1       7.991   9.530  17.850  0.00  0.00    +0.000 C 
BRANCH  11  12
ATOM     12  C   UNL     1       9.073  10.382  18.467  0.00  0.00    +0.000 A 
ATOM     13  C   UNL     1       9.118  10.573  19.855  0.00  0.00    +0.000 A 
ATOM     14  C   UNL     1      10.129  11.343  20.434  0.00  0.00    +0.000 A 
ATOM     15  C   UNL     1      11.109  11.924  19.632  0.00  0.00    +0.000 A 
ATOM     16  C   UNL     1      11.081  11.733  18.252  0.00  0.00    +0.000 A 
ATOM     17  C   UNL     1      10.070  10.963  17.670  0.00  0.00    +0.000 A 
ENDBRANCH  11  12
ENDBRANCH   8  11
ENDBRANCH   1   9
BRANCH   4  18
ATOM     18  C   UNL     1       3.120   5.247  17.472  0.00  0.00    +0.000 C 
BRANCH  18  19
ATOM     19  C   UNL     1       2.614   6.238  18.497  0.00  0.00    +0.000 A 
ATOM     20  C   UNL     1       2.429   7.583  18.141  0.00  0.00    +0.000 A 
ATOM     21  C   UNL     1       1.911   8.498  19.060  0.00  0.00    +0.000 A 
ATOM     22  C   UNL     1       1.566   8.088  20.355  0.00  0.00    +0.000 A 
ATOM     23  C   UNL     1       1.763   6.745  20.716  0.00  0.00    +0.000 A 
ATOM     24  C   UNL     1       2.282   5.829  19.795  0.00  0.00    +0.000 A 
BRANCH  22  25
ATOM     25  C   UNL     1       0.978   9.059  21.349  0.00  0.00    +0.000 C 
ATOM     26  F   UNL     1       1.179  10.366  21.018  0.00  0.00    +0.000 F 
ATOM     27  F   UNL     1      -0.370   8.915  21.482  0.00  0.00    +0.000 F 
ATOM     28  F   UNL     1       1.496   8.908  22.600  0.00  0.00    +0.000 F 
ENDBRANCH  22  25
ENDBRANCH  18  19
ENDBRANCH   4  18
TORSDOF 6
ENDMDL
MODEL 2
REMARK VINA RESULT:      -8.2      0.195      1.476
REMARK  Name = 
REMARK  6 active torsions:
REMARK  status: ('A' for Active; 'I' for Inactive)
REMARK    1  A    between atoms: C_2  and  C_3
REMARK    2  A    between atoms: C_3  and  C_4
REMARK    3  A    between atoms: N_10  and  C_11
REMARK    4  A    between atoms: N_14  and  C_15
REMARK    5  A    between atoms: C_15  and  C_16
REMARK    6  A    between atoms: C_19  and  C_20
REMARK                            x       y       z     vdW  Elec       q    Type
REMARK                         _______ _______ _______ _____ _____    ______ ____
ROOT
ATOM      1  C   UNL     1       7.398   5.762  17.476  0.00  0.00    +0.000 C 
ATOM      2  C   UNL     1       6.753   5.106  16.257  0.00  0.00    +0.000 C 
ATOM      3  C   UNL     1       5.243   5.336  16.221  0.00  0.00    +0.000 C 
ATOM      4  N   UNL     1       4.570   4.902  17.457  0.00  0.00    +0.000 NA
ATOM      5  C   UNL     1       5.160   5.539  18.647  0.00  0.00    +0.000 C 
ATOM      6  C   UNL     1       6.672   5.313  18.743  0.00  0.00    +0.000 C 
ENDROOT
BRANCH   1   9
ATOM      7  O   UNL     1       8.838   7.608  19.105  0.00  0.00    +0.000 OA
ATOM      8  C   UNL     1       8.131   8.032  18.195  0.00  0.00    +0.000 C 
ATOM      9  N   UNL     1       7.416   7.219  17.339  0.00  0.00    +0.000 N 
ATOM     10  H   UNL     1       6.669   7.656  16.817  0.00  0.00    +0.000 HD
BRANCH   8  11
ATOM     11  C   UNL     1       7.984   9.516  17.897  0.00  0.00    +0.000 C 
BRANCH  11  12
ATOM     12  C   UNL     1       9.067  10.365  18.516  0.00  0.00    +0.000 A 
ATOM     13  C   UNL     1      10.030  10.985  17.707  0.00  0.00    +0.000 A 
ATOM     14  C   UNL     1      11.021  11.789  18.272  0.00  0.00    +0.000 A 
ATOM     15  C   UNL     1      11.058  11.987  19.651  0.00  0.00    +0.000 A 
ATOM     16  C   UNL     1      10.100  11.385  20.465  0.00  0.00    +0.000 A 
ATOM     17  C   UNL     1       9.107  10.579  19.902  0.00  0.00    +0.000 A 
ENDBRANCH  11  12
ENDBRANCH   8  11
ENDBRANCH   1   9
BRANCH   4  18
ATOM     18  C   UNL     1       3.127   5.206  17.335  0.00  0.00    +0.000 C 
BRANCH  18  19
ATOM     19  C   UNL     1       2.574   6.157  18.375  0.00  0.00    +0.000 A 
ATOM     20  C   UNL     1       2.238   5.681  19.652  0.00  0.00    +0.000 A 
ATOM     21  C   UNL     1       1.778   6.556  20.638  0.00  0.00    +0.000 A 
ATOM     22  C   UNL     1       1.644   7.925  20.370  0.00  0.00    +0.000 A 
ATOM     23  C   UNL     1       1.967   8.398  19.088  0.00  0.00    +0.000 A 
ATOM     24  C   UNL     1       2.428   7.522  18.100  0.00  0.00    +0.000 A 
BRANCH  22  25
ATOM     25  C   UNL     1       1.176   8.885  21.435  0.00  0.00    +0.000 C 
ATOM     26  F   UNL     1       1.997   8.935  22.523  0.00  0.00    +0.000 F 
ATOM     27  F   UNL     1       1.090  10.166  20.979  0.00  0.00    +0.000 F 
ATOM     28  F   UNL     1      -0.059   8.575  21.916  0.00  0.00    +0.000 F 
ENDBRANCH  22  25
ENDBRANCH  18  19
ENDBRANCH   4  18
TORSDOF 6
ENDMDL
MODEL 3
REMARK VINA RESULT:      -8.1      3.872      6.951
REMARK  Name = 
REMARK  6 active torsions:
REMARK  status: ('A' for Active; 'I' for Inactive)
REMARK    1  A    between atoms: C_2  and  C_3
REMARK    2  A    between atoms: C_3  and  C_4
REMARK    3  A    between atoms: N_10  and  C_11
REMARK    4  A    between atoms: N_14  and  C_15
REMARK    5  A    between atoms: C_15  and  C_16
REMARK    6  A    between atoms: C_19  and  C_20
REMARK                            x       y       z     vdW  Elec       q    Type
REMARK                         _______ _______ _______ _____ _____    ______ ____
ROOT
ATOM      1  C   UNL     1       2.674   2.977  20.129  0.00  0.00    +0.000 C 
ATOM      2  C   UNL     1       4.085   2.413  19.971  0.00  0.00    +0.000 C 
ATOM      3  C   UNL     1       4.806   3.016  18.766  0.00  0.00    +0.000 C 
ATOM      4  N   UNL     1       4.046   2.865  17.513  0.00  0.00    +0.000 NA
ATOM      5  C   UNL     1       2.688   3.422  17.633  0.00  0.00    +0.000 C 
ATOM      6  C   UNL     1       1.913   2.828  18.813  0.00  0.00    +0.000 C 
ENDROOT
BRANCH   1   9
ATOM      7  O   UNL     1       0.457   4.756  20.363  0.00  0.00    +0.000 OA
ATOM      8  C   UNL     1       1.582   5.157  20.645  0.00  0.00    +0.000 C 
ATOM      9  N   UNL     1       2.713   4.366  20.588  0.00  0.00    +0.000 N 
ATOM     10  H   UNL     1       3.602   4.848  20.571  0.00  0.00    +0.000 HD
BRANCH   8  11
ATOM     11  C   UNL     1       1.851   6.578  21.116  0.00  0.00    +0.000 C 
BRANCH  11  12
ATOM     12  C   UNL     1       1.829   7.595  20.001  0.00  0.00    +0.000 A 
ATOM     13  C   UNL     1       2.452   7.317  18.776  0.00  0.00    +0.000 A 
ATOM     14  C   UNL     1       2.416   8.245  17.734  0.00  0.00    +0.000 A 
ATOM     15  C   UNL     1       1.752   9.459  17.903  0.00  0.00    +0.000 A 
ATOM     16  C   UNL     1       1.120   9.742  19.112  0.00  0.00    +0.000 A 
ATOM     17  C   UNL     1       1.155   8.815  20.156  0.00  0.00    +0.000 A 
ENDBRANCH  11  12
ENDBRANCH   8  11
ENDBRANCH   1   9
BRANCH   4  18
ATOM     18  C   UNL     1       4.808   3.516  16.425  0.00  0.00    +0.000 C 
BRANCH  18  19
ATOM     19  C   UNL     1       5.599   4.741  16.828  0.00  0.00    +0.000 A 
ATOM     20  C   UNL     1       6.874   4.596  17.399  0.00  0.00    +0.000 A 
ATOM     21  C   UNL     1       7.638   5.718  17.726  0.00  0.00    +0.000 A 
ATOM     22  C   UNL     1       7.146   7.009  17.488  0.00  0.00    +0.000 A 
ATOM     23  C   UNL     1       5.866   7.153  16.930  0.00  0.00    +0.000 A 
ATOM     24  C   UNL     1       5.100   6.030  16.603  0.00  0.00    +0.000 A 
BRANCH  22  25
ATOM     25  C   UNL     1       7.973   8.229  17.809  0.00  0.00    +0.000 C 
ATOM     26  F   UNL     1       8.824   8.590  16.806  0.00  0.00    +0.000 F 
ATOM     27  F   UNL     1       7.207   9.327  18.057  0.00  0.00    +0.000 F 
ATOM     28  F   UNL     1       8.753   8.059  18.913  0.00  0.00    +0.000 F 
ENDBRANCH  22  25
ENDBRANCH  18  19
ENDBRANCH   4  18
TORSDOF 6
ENDMDL
MODEL 4
REMARK VINA RESULT:      -8.0      3.922      6.936
REMARK  Name = 
REMARK  6 active torsions:
REMARK  status: ('A' for Active; 'I' for Inactive)
REMARK    1  A    between atoms: C_2  and  C_3
REMARK    2  A    between atoms: C_3  and  C_4
REMARK    3  A    between atoms: N_10  and  C_11
REMARK    4  A    between atoms: N_14  and  C_15
REMARK    5  A    between atoms: C_15  and  C_16
REMARK    6  A    between atoms: C_19  and  C_20
REMARK                            x       y       z     vdW  Elec       q    Type
REMARK                         _______ _______ _______ _____ _____    ______ ____
ROOT
ATOM      1  C   UNL     1       2.542   3.182  20.233  0.00  0.00    +0.000 C 
ATOM      2  C   UNL     1       3.902   2.517  20.029  0.00  0.00    +0.000 C 
ATOM      3  C   UNL     1       4.594   3.016  18.763  0.00  0.00    +0.000 C 
ATOM      4  N   UNL     1       3.759   2.864  17.558  0.00  0.00    +0.000 NA
ATOM      5  C   UNL     1       2.449   3.517  17.721  0.00  0.00    +0.000 C 
ATOM      6  C   UNL     1       1.702   3.029  18.966  0.00  0.00    +0.000 C 
ENDROOT
BRANCH   1   9
ATOM      7  O   UNL     1       0.456   5.099  20.564  0.00  0.00    +0.000 OA
ATOM      8  C   UNL     1       1.621   5.442  20.736  0.00  0.00    +0.000 C 
ATOM      9  N   UNL     1       2.697   4.583  20.623  0.00  0.00    +0.000 N 
ATOM     10  H   UNL     1       3.607   5.010  20.513  0.00  0.00    +0.000 HD
BRANCH   8  11
ATOM     11  C   UNL     1       2.009   6.863  21.119  0.00  0.00    +0.000 C 
BRANCH  11  12
ATOM     12  C   UNL     1       1.818   7.860  20.002  0.00  0.00    +0.000 A 
ATOM     13  C   UNL     1       2.404   7.639  18.748  0.00  0.00    +0.000 A 
ATOM     14  C   UNL     1       2.214   8.547  17.705  0.00  0.00    +0.000 A 
ATOM     15  C   UNL     1       1.431   9.682  17.902  0.00  0.00    +0.000 A 
ATOM     16  C   UNL     1       0.834   9.907  19.141  0.00  0.00    +0.000 A 
ATOM     17  C   UNL     1       1.023   9.001  20.187  0.00  0.00    +0.000 A 
ENDBRANCH  11  12
ENDBRANCH   8  11
ENDBRANCH   1   9
BRANCH   4  18
ATOM     18  C   UNL     1       4.503   3.413  16.403  0.00  0.00    +0.000 C 
BRANCH  18  19
ATOM     19  C   UNL     1       5.385   4.605  16.706  0.00  0.00    +0.000 A 
ATOM     20  C   UNL     1       4.837   5.898  16.715  0.00  0.00    +0.000 A 
ATOM     21  C   UNL     1       5.626   7.002  17.045  0.00  0.00    +0.000 A 
ATOM     22  C   UNL     1       6.979   6.837  17.376  0.00  0.00    +0.000 A 
ATOM     23  C   UNL     1       7.529   5.545  17.354  0.00  0.00    +0.000 A 
ATOM     24  C   UNL     1       6.738   4.440  17.022  0.00  0.00    +0.000 A 
BRANCH  22  25
ATOM     25  C   UNL     1       7.835   8.017  17.764  0.00  0.00    +0.000 C 
ATOM     26  F   UNL     1       7.118   9.147  18.030  0.00  0.00    +0.000 F 
ATOM     27  F   UNL     1       8.575   7.778  18.882  0.00  0.00    +0.000 F 
ATOM     28  F   UNL     1       8.725   8.362  16.793  0.00  0.00    +0.000 F 
ENDBRANCH  22  25
ENDBRANCH  18  19
ENDBRANCH   4  18
TORSDOF 6
ENDMDL
MODEL 5
REMARK VINA RESULT:      -8.0      3.887      6.879
REMARK  Name = 
REMARK  6 active torsions:
REMARK  status: ('A' for Active; 'I' for Inactive)
REMARK    1  A    between atoms: C_2  and  C_3
REMARK    2  A    between atoms: C_3  and  C_4
REMARK    3  A    between atoms: N_10  and  C_11
REMARK    4  A    between atoms: N_14  and  C_15
REMARK    5  A    between atoms: C_15  and  C_16
REMARK    6  A    between atoms: C_19  and  C_20
REMARK                            x       y       z     vdW  Elec       q    Type
REMARK                         _______ _______ _______ _____ _____    ______ ____
ROOT
ATOM      1  C   UNL     1       2.600   3.067  19.857  0.00  0.00    +0.000 C 
ATOM      2  C   UNL     1       3.973   2.425  19.671  0.00  0.00    +0.000 C 
ATOM      3  C   UNL     1       4.706   2.992  18.456  0.00  0.00    +0.000 C 
ATOM      4  N   UNL     1       3.917   2.891  17.216  0.00  0.00    +0.000 NA
ATOM      5  C   UNL     1       2.595   3.525  17.363  0.00  0.00    +0.000 C 
ATOM      6  C   UNL     1       1.808   2.969  18.554  0.00  0.00    +0.000 C 
ENDROOT
BRANCH   1   9
ATOM      7  O   UNL     1       0.469   4.838  20.537  0.00  0.00    +0.000 OA
ATOM      8  C   UNL     1       1.628   5.237  20.605  0.00  0.00    +0.000 C 
ATOM      9  N   UNL     1       2.726   4.449  20.321  0.00  0.00    +0.000 N 
ATOM     10  H   UNL     1       3.596   4.933  20.142  0.00  0.00    +0.000 HD
BRANCH   8  11
ATOM     11  C   UNL     1       1.983   6.651  21.038  0.00  0.00    +0.000 C 
BRANCH  11  12
ATOM     12  C   UNL     1       1.856   7.668  19.931  0.00  0.00    +0.000 A 
ATOM     13  C   UNL     1       1.134   8.852  20.137  0.00  0.00    +0.000 A 
ATOM     14  C   UNL     1       1.031   9.807  19.123  0.00  0.00    +0.000 A 
ATOM     15  C   UNL     1       1.654   9.591  17.895  0.00  0.00    +0.000 A 
ATOM     16  C   UNL     1       2.384   8.423  17.682  0.00  0.00    +0.000 A 
ATOM     17  C   UNL     1       2.487   7.466  18.694  0.00  0.00    +0.000 A 
ENDBRANCH  11  12
ENDBRANCH   8  11
ENDBRANCH   1   9
BRANCH   4  18
ATOM     18  C   UNL     1       4.695   3.503  16.117  0.00  0.00    +0.000 C 
BRANCH  18  19
ATOM     19  C   UNL     1       5.545   4.693  16.508  0.00  0.00    +0.000 A 
ATOM     20  C   UNL     1       5.015   5.991  16.426  0.00  0.00    +0.000 A 
ATOM     21  C   UNL     1       5.768   7.094  16.834  0.00  0.00    +0.000 A 
ATOM     22  C   UNL     1       7.066   6.923  17.334  0.00  0.00    +0.000 A 
ATOM     23  C   UNL     1       7.601   5.627  17.403  0.00  0.00    +0.000 A 
ATOM     24  C   UNL     1       6.847   4.522  16.994  0.00  0.00    +0.000 A 
BRANCH  22  25
ATOM     25  C   UNL     1       7.880   8.103  17.807  0.00  0.00    +0.000 C 
ATOM     26  F   UNL     1       8.622   7.843  18.921  0.00  0.00    +0.000 F 
ATOM     27  F   UNL     1       8.765   8.534  16.867  0.00  0.00    +0.000 F 
ATOM     28  F   UNL     1       7.109   9.182  18.118  0.00  0.00    +0.000 F 
ENDBRANCH  22  25
ENDBRANCH  18  19
ENDBRANCH   4  18
TORSDOF 6
ENDMDL
MODEL 6
REMARK VINA RESULT:      -7.9      3.910      6.947
REMARK  Name = 
REMARK  6 active torsions:
REMARK  status: ('A' for Active; 'I' for Inactive)
REMARK    1  A    between atoms: C_2  and  C_3
REMARK    2  A    between atoms: C_3  and  C_4
REMARK    3  A    between atoms: N_10  and  C_11
REMARK    4  A    between atoms: N_14  and  C_15
REMARK    5  A    between atoms: C_15  and  C_16
REMARK    6  A    between atoms: C_19  and  C_20
REMARK                            x       y       z     vdW  Elec       q    Type
REMARK                         _______ _______ _______ _____ _____    ______ ____
ROOT
ATOM      1  C   UNL     1       2.409   3.311  20.493  0.00  0.00    +0.000 C 
ATOM      2  C   UNL     1       3.765   2.612  20.415  0.00  0.00    +0.000 C 
ATOM      3  C   UNL     1       4.560   3.048  19.186  0.00  0.00    +0.000 C 
ATOM      4  N   UNL     1       3.813   2.867  17.929  0.00  0.00    +0.000 NA
ATOM      5  C   UNL     1       2.510   3.552  17.970  0.00  0.00    +0.000 C 
ATOM      6  C   UNL     1       1.662   3.126  19.173  0.00  0.00    +0.000 C 
ENDROOT
BRANCH   1   9
ATOM      7  O   UNL     1       0.368   5.303  20.496  0.00  0.00    +0.000 OA
ATOM      8  C   UNL     1       1.517   5.619  20.791  0.00  0.00    +0.000 C 
ATOM      9  N   UNL     1       2.567   4.723  20.842  0.00  0.00    +0.000 N 
ATOM     10  H   UNL     1       3.498   5.116  20.824  0.00  0.00    +0.000 HD
BRANCH   8  11
ATOM     11  C   UNL     1       1.906   7.042  21.160  0.00  0.00    +0.000 C 
BRANCH  11  12
ATOM     12  C   UNL     1       1.742   8.023  20.026  0.00  0.00    +0.000 A 
ATOM     13  C   UNL     1       1.009   9.204  20.212  0.00  0.00    +0.000 A 
ATOM     14  C   UNL     1       0.871  10.126  19.173  0.00  0.00    +0.000 A 
ATOM     15  C   UNL     1       1.469   9.881  17.938  0.00  0.00    +0.000 A 
ATOM     16  C   UNL     1       2.208   8.716  17.744  0.00  0.00    +0.000 A 
ATOM     17  C   UNL     1       2.347   7.792  18.782  0.00  0.00    +0.000 A 
ENDBRANCH  11  12
ENDBRANCH   8  11
ENDBRANCH   1   9
BRANCH   4  18
ATOM     18  C   UNL     1       4.651   3.357  16.813  0.00  0.00    +0.000 C 
BRANCH  18  19
ATOM     19  C   UNL     1       5.475   4.591  17.113  0.00  0.00    +0.000 A 
ATOM     20  C   UNL     1       6.814   4.459  17.516  0.00  0.00    +0.000 A 
ATOM     21  C   UNL     1       7.602   5.589  17.743  0.00  0.00    +0.000 A 
ATOM     22  C   UNL     1       7.070   6.875  17.571  0.00  0.00    +0.000 A 
ATOM     23  C   UNL     1       5.727   7.006  17.181  0.00  0.00    +0.000 A 
ATOM     24  C   UNL     1       4.938   5.874  16.954  0.00  0.00    +0.000 A 
BRANCH  22  25
ATOM     25  C   UNL     1       7.919   8.104  17.784  0.00  0.00    +0.000 C 
ATOM     26  F   UNL     1       7.192   9.239  17.990  0.00  0.00    +0.000 F 
ATOM     27  F   UNL     1       8.739   7.989  18.864  0.00  0.00    +0.000 F 
ATOM     28  F   UNL     1       8.731   8.371  16.724  0.00  0.00    +0.000 F 
ENDBRANCH  22  25
ENDBRANCH  18  19
ENDBRANCH   4  18
TORSDOF 6
ENDMDL
MODEL 7
REMARK VINA RESULT:      -7.9      5.909      9.892
REMARK  Name = 
REMARK  6 active torsions:
REMARK  status: ('A' for Active; 'I' for Inactive)
REMARK    1  A    between atoms: C_2  and  C_3
REMARK    2  A    between atoms: C_3  and  C_4
REMARK    3  A    between atoms: N_10  and  C_11
REMARK    4  A    between atoms: N_14  and  C_15
REMARK    5  A    between atoms: C_15  and  C_16
REMARK    6  A    between atoms: C_19  and  C_20
REMARK                            x       y       z     vdW  Elec       q    Type
REMARK                         _______ _______ _______ _____ _____    ______ ____
ROOT
ATOM      1  C   UNL     1       0.564  10.549  19.112  0.00  0.00    +0.000 C 
ATOM      2  C   UNL     1       1.570  10.076  18.064  0.00  0.00    +0.000 C 
ATOM      3  C   UNL     1       1.759   8.561  18.101  0.00  0.00    +0.000 C 
ATOM      4  N   UNL     1       2.133   8.065  19.437  0.00  0.00    +0.000 NA
ATOM      5  C   UNL     1       1.165   8.488  20.463  0.00  0.00    +0.000 C 
ATOM      6  C   UNL     1       0.961  10.006  20.484  0.00  0.00    +0.000 C 
ENDROOT
BRANCH   1   9
ATOM      7  O   UNL     1      -1.381  12.192  17.827  0.00  0.00    +0.000 OA
ATOM      8  C   UNL     1      -1.677  11.043  18.140  0.00  0.00    +0.000 C 
ATOM      9  N   UNL     1      -0.798  10.164  18.742  0.00  0.00    +0.000 N 
ATOM     10  H   UNL     1      -1.205   9.359  19.199  0.00  0.00    +0.000 HD
BRANCH   8  11
ATOM     11  C   UNL     1      -3.052  10.449  17.873  0.00  0.00    +0.000 C 
BRANCH  11  12
ATOM     12  C   UNL     1      -4.179  11.432  18.071  0.00  0.00    +0.000 A 
ATOM     13  C   UNL     1      -5.030  11.757  17.006  0.00  0.00    +0.000 A 
ATOM     14  C   UNL     1      -6.089  12.649  17.189  0.00  0.00    +0.000 A 
ATOM     15  C   UNL     1      -6.312  13.220  18.440  0.00  0.00    +0.000 A 
ATOM     16  C   UNL     1      -5.480  12.896  19.510  0.00  0.00    +0.000 A 
ATOM     17  C   UNL     1      -4.420  12.004  19.329  0.00  0.00    +0.000 A 
ENDBRANCH  11  12
ENDBRANCH   8  11
ENDBRANCH   1   9
BRANCH   4  18
ATOM     18  C   UNL     1       2.248   6.591  19.371  0.00  0.00    +0.000 C 
BRANCH  18  19
ATOM     19  C   UNL     1       3.137   6.057  18.269  0.00  0.00    +0.000 A 
ATOM     20  C   UNL     1       4.135   6.875  17.714  0.00  0.00    +0.000 A 
ATOM     21  C   UNL     1       4.998   6.378  16.735  0.00  0.00    +0.000 A 
ATOM     22  C   UNL     1       4.884   5.054  16.291  0.00  0.00    +0.000 A 
ATOM     23  C   UNL     1       3.878   4.241  16.836  0.00  0.00    +0.000 A 
ATOM     24  C   UNL     1       3.013   4.738  17.816  0.00  0.00    +0.000 A 
BRANCH  22  25
ATOM     25  C   UNL     1       5.829   4.496  15.255  0.00  0.00    +0.000 C 
ATOM     26  F   UNL     1       6.960   5.240  15.092  0.00  0.00    +0.000 F 
ATOM     27  F   UNL     1       6.254   3.240  15.562  0.00  0.00    +0.000 F 
ATOM     28  F   UNL     1       5.261   4.408  14.020  0.00  0.00    +0.000 F 
ENDBRANCH  22  25
ENDBRANCH  18  19
ENDBRANCH   4  18
TORSDOF 6
ENDMDL
MODEL 8
REMARK VINA RESULT:      -7.8      5.692      8.716
REMARK  Name = 
REMARK  6 active torsions:
REMARK  status: ('A' for Active; 'I' for Inactive)
REMARK    1  A    between atoms: C_2  and  C_3
REMARK    2  A    between atoms: C_3  and  C_4
REMARK    3  A    between atoms: N_10  and  C_11
REMARK    4  A    between atoms: N_14  and  C_15
REMARK    5  A    between atoms: C_15  and  C_16
REMARK    6  A    between atoms: C_19  and  C_20
REMARK                            x       y       z     vdW  Elec       q    Type
REMARK                         _______ _______ _______ _____ _____    ______ ____
ROOT
ATOM      1  C   UNL     1       0.916   9.774  18.148  0.00  0.00    +0.000 C 
ATOM      2  C   UNL     1       1.712  11.070  18.294  0.00  0.00    +0.000 C 
ATOM      3  C   UNL     1       1.487  11.725  19.655  0.00  0.00    +0.000 C 
ATOM      4  N   UNL     1       0.062  11.959  19.946  0.00  0.00    +0.000 NA
ATOM      5  C   UNL     1      -0.725  10.719  19.835  0.00  0.00    +0.000 C 
ATOM      6  C   UNL     1      -0.553  10.037  18.475  0.00  0.00    +0.000 C 
ENDROOT
BRANCH   1   9
ATOM      7  O   UNL     1       2.981   7.949  17.413  0.00  0.00    +0.000 OA
ATOM      8  C   UNL     1       2.471   7.863  18.526  0.00  0.00    +0.000 C 
ATOM      9  N   UNL     1       1.484   8.714  18.983  0.00  0.00    +0.000 N 
ATOM     10  H   UNL     1       0.949   8.400  19.781  0.00  0.00    +0.000 HD
BRANCH   8  11
ATOM     11  C   UNL     1       2.893   6.812  19.541  0.00  0.00    +0.000 C 
BRANCH  11  12
ATOM     12  C   UNL     1       2.167   5.499  19.384  0.00  0.00    +0.000 A 
ATOM     13  C   UNL     1       2.105   4.869  18.133  0.00  0.00    +0.000 A 
ATOM     14  C   UNL     1       1.453   3.643  17.986  0.00  0.00    +0.000 A 
ATOM     15  C   UNL     1       0.862   3.031  19.089  0.00  0.00    +0.000 A 
ATOM     16  C   UNL     1       0.927   3.641  20.340  0.00  0.00    +0.000 A 
ATOM     17  C   UNL     1       1.578   4.868  20.490  0.00  0.00    +0.000 A 
ENDBRANCH  11  12
ENDBRANCH   8  11
ENDBRANCH   1   9
BRANCH   4  18
ATOM     18  C   UNL     1      -0.046  12.554  21.297  0.00  0.00    +0.000 C 
BRANCH  18  19
ATOM     19  C   UNL     1      -1.447  12.619  21.868  0.00  0.00    +0.000 A 
ATOM     20  C   UNL     1      -1.751  11.939  23.058  0.00  0.00    +0.000 A 
ATOM     21  C   UNL     1      -3.023  12.034  23.625  0.00  0.00    +0.000 A 
ATOM     22  C   UNL     1      -4.018  12.813  23.017  0.00  0.00    +0.000 A 
ATOM     23  C   UNL     1      -3.717  13.482  21.820  0.00  0.00    +0.000 A 
ATOM     24  C   UNL     1      -2.443  13.386  21.251  0.00  0.00    +0.000 A 
BRANCH  22  25
ATOM     25  C   UNL     1      -5.387  12.948  23.636  0.00  0.00    +0.000 C 
ATOM     26  F   UNL     1      -5.702  14.228  23.988  0.00  0.00    +0.000 F 
ATOM     27  F   UNL     1      -6.379  12.541  22.797  0.00  0.00    +0.000 F 
ATOM     28  F   UNL     1      -5.527  12.207  24.770  0.00  0.00    +0.000 F 
ENDBRANCH  22  25
ENDBRANCH  18  19
ENDBRANCH   4  18
TORSDOF 6
ENDMDL
MODEL 9
REMARK VINA RESULT:      -7.8      3.574      7.193
REMARK  Name = 
REMARK  6 active torsions:
REMARK  status: ('A' for Active; 'I' for Inactive)
REMARK    1  A    between atoms: C_2  and  C_3
REMARK    2  A    between atoms: C_3  and  C_4
REMARK    3  A    between atoms: N_10  and  C_11
REMARK    4  A    between atoms: N_14  and  C_15
REMARK    5  A    between atoms: C_15  and  C_16
REMARK    6  A    between atoms: C_19  and  C_20
REMARK                            x       y       z     vdW  Elec       q    Type
REMARK                         _______ _______ _______ _____ _____    ______ ____
ROOT
ATOM      1  C   UNL     1       2.523   5.352  18.607  0.00  0.00    +0.000 C 
ATOM      2  C   UNL     1       3.515   5.264  19.765  0.00  0.00    +0.000 C 
ATOM      3  C   UNL     1       4.962   5.297  19.276  0.00  0.00    +0.000 C 
ATOM      4  N   UNL     1       5.249   4.260  18.270  0.00  0.00    +0.000 NA
ATOM      5  C   UNL     1       4.319   4.339  17.131  0.00  0.00    +0.000 C 
ATOM      6  C   UNL     1       2.852   4.282  17.567  0.00  0.00    +0.000 C 
ENDROOT
BRANCH   1   9
ATOM      7  O   UNL     1       1.870   7.782  19.951  0.00  0.00    +0.000 OA
ATOM      8  C   UNL     1       2.159   7.813  18.759  0.00  0.00    +0.000 C 
ATOM      9  N   UNL     1       2.512   6.696  18.028  0.00  0.00    +0.000 N 
ATOM     10  H   UNL     1       2.463   6.780  17.021  0.00  0.00    +0.000 HD
BRANCH   8  11
ATOM     11  C   UNL     1       2.181   9.104  17.955  0.00  0.00    +0.000 C 
BRANCH  11  12
ATOM     12  C   UNL     1       1.028  10.027  18.268  0.00  0.00    +0.000 A 
ATOM     13  C   UNL     1      -0.277   9.681  17.891  0.00  0.00    +0.000 A 
ATOM     14  C   UNL     1      -1.350  10.521  18.196  0.00  0.00    +0.000 A 
ATOM     15  C   UNL     1      -1.131  11.711  18.885  0.00  0.00    +0.000 A 
ATOM     16  C   UNL     1       0.161  12.061  19.275  0.00  0.00    +0.000 A 
ATOM     17  C   UNL     1       1.236  11.223  18.970  0.00  0.00    +0.000 A 
ENDBRANCH  11  12
ENDBRANCH   8  11
ENDBRANCH   1   9
BRANCH   4  18
ATOM     18  C   UNL     1       6.655   4.407  17.836  0.00  0.00    +0.000 C 
BRANCH  18  19
ATOM     19  C   UNL     1       7.221   5.808  17.930  0.00  0.00    +0.000 A 
ATOM     20  C   UNL     1       6.869   6.772  16.973  0.00  0.00    +0.000 A 
ATOM     21  C   UNL     1       7.340   8.083  17.077  0.00  0.00    +0.000 A 
ATOM     22  C   UNL     1       8.170   8.458  18.142  0.00  0.00    +0.000 A 
ATOM     23  C   UNL     1       8.533   7.490  19.093  0.00  0.00    +0.000 A 
ATOM     24  C   UNL     1       8.062   6.178  18.987  0.00  0.00    +0.000 A 
BRANCH  22  25
ATOM     25  C   UNL     1       8.661   9.878  18.284  0.00  0.00    +0.000 C 
ATOM     26  F   UNL     1       9.865  10.101  17.682  0.00  0.00    +0.000 F 
ATOM     27  F   UNL     1       7.802  10.783  17.739  0.00  0.00    +0.000 F 
ATOM     28  F   UNL     1       8.822  10.251  19.584  0.00  0.00    +0.000 F 
ENDBRANCH  22  25
ENDBRANCH  18  19
ENDBRANCH   4  18
TORSDOF 6
ENDMDL
