MODEL 1
REMARK VINA RESULT:      -7.3      0.000      0.000
REMARK  Name = 
REMARK  9 active torsions:
REMARK  status: ('A' for Active; 'I' for Inactive)
REMARK    1  A    between atoms: C_1  and  O_2
REMARK    2  A    between atoms: O_2  and  C_3
REMARK    3  A    between atoms: C_3  and  C_4
REMARK    4  A    between atoms: C_4  and  N_5
REMARK    5  A    between atoms: C_6  and  C_7
REMARK    6  A    between atoms: C_10  and  C_11
REMARK    7  A    between atoms: C_11  and  C_12
REMARK    8  A    between atoms: C_12  and  N_13
REMARK    9  A    between atoms: N_16  and  C_17
REMARK                            x       y       z     vdW  Elec       q    Type
REMARK                         _______ _______ _______ _____ _____    ______ ____
ROOT
ATOM      1  N   UNL     1       3.318   4.771  19.685  0.00  0.00    +0.000 N 
ATOM      2  C   UNL     1       2.535   5.878  19.406  0.00  0.00    +0.000 C 
ATOM      3  O   UNL     1       1.907   5.950  18.352  0.00  0.00    +0.000 OA
ATOM      4  N   UNL     1       2.571   6.851  20.384  0.00  0.00    +0.000 N 
ATOM      5  H   UNL     1       3.377   4.490  20.659  0.00  0.00    +0.000 HD
ATOM      6  H   UNL     1       3.382   6.841  20.987  0.00  0.00    +0.000 HD
ENDROOT
BRANCH   4   7
ATOM      7  C   UNL     1       1.775   8.030  20.358  0.00  0.00    +0.000 A 
ATOM      8  C   UNL     1       1.572   8.759  19.177  0.00  0.00    +0.000 A 
ATOM      9  C   UNL     1       0.843   9.949  19.169  0.00  0.00    +0.000 A 
ATOM     10  C   UNL     1       0.289  10.425  20.348  0.00  0.00    +0.000 A 
ATOM     11  C   UNL     1       0.422   9.683  21.526  0.00  0.00    +0.000 A 
ATOM     12  C   UNL     1       1.165   8.490  21.536  0.00  0.00    +0.000 A 
ATOM     13  O   UNL     1      -0.131  10.089  22.716  0.00  0.00    +0.000 OA
ATOM     14  C   UNL     1      -1.092  11.140  22.527  0.00  0.00    +0.000 C 
ATOM     15  C   UNL     1      -0.576  12.191  21.558  0.00  0.00    +0.000 C 
ATOM     16  O   UNL     1      -0.377  11.619  20.264  0.00  0.00    +0.000 OA
ENDBRANCH   4   7
BRANCH   1  17
ATOM     17  C   UNL     1       3.230   3.679  18.720  0.00  0.00    +0.000 C 
BRANCH  17  18
ATOM     18  C   UNL     1       4.329   3.615  17.662  0.00  0.00    +0.000 C 
BRANCH  18  24
ATOM     19  N   UNL     1       5.975   5.536  17.194  0.00  0.00    +0.000 N 
ATOM     20  C   UNL     1       6.908   6.220  17.952  0.00  0.00    +0.000 A 
ATOM     21  C   UNL     1       7.622   7.460  17.554  0.00  0.00    +0.000 C 
ATOM     22  C   UNL     1       7.026   5.483  19.109  0.00  0.00    +0.000 A 
ATOM     23  N   UNL     1       6.163   4.429  19.111  0.00  0.00    +0.000 NA
ATOM     24  C   UNL     1       5.487   4.506  17.980  0.00  0.00    +0.000 A 
BRANCH  19  25
ATOM     25  C   UNL     1       5.617   5.864  15.824  0.00  0.00    +0.000 C 
BRANCH  25  26
ATOM     26  C   UNL     1       6.477   5.119  14.804  0.00  0.00    +0.000 C 
BRANCH  26  28
ATOM     27  C   UNL     1       6.177   3.624  13.011  0.00  0.00    +0.000 C 
ATOM     28  O   UNL     1       5.777   3.964  14.336  0.00  0.00    +0.000 OA
ENDBRANCH  26  28
ENDBRANCH  25  26
ENDBRANCH  19  25
ENDBRANCH  18  24
ENDBRANCH  17  18
ENDBRANCH   1  17
TORSDOF 7
ENDMDL
MODEL 2
REMARK VINA RESULT:      -7.2      1.941      8.628
REMARK  Name = 
REMARK  9 active torsions:
REMARK  status: ('A' for Active; 'I' for Inactive)
REMARK    1  A    between atoms: C_1  and  O_2
REMARK    2  A    between atoms: O_2  and  C_3
REMARK    3  A    between atoms: C_3  and  C_4
REMARK    4  A    between atoms: C_4  and  N_5
REMARK    5  A    between atoms: C_6  and  C_7
REMARK    6  A    between atoms: C_10  and  C_11
REMARK    7  A    between atoms: C_11  and  C_12
REMARK    8  A    between atoms: C_12  and  N_13
REMARK    9  A    between atoms: N_16  and  C_17
REMARK                            x       y       z     vdW  Elec       q    Type
REMARK                         _______ _______ _______ _____ _____    ______ ____
ROOT
ATOM      1  N   UNL     1       1.849   6.577  21.017  0.00  0.00    +0.000 N 
ATOM      2  C   UNL     1       2.696   6.527  19.924  0.00  0.00    +0.000 C 
ATOM      3  O   UNL     1       2.618   7.369  19.033  0.00  0.00    +0.000 OA
ATOM      4  N   UNL     1       3.569   5.458  19.939  0.00  0.00    +0.000 N 
ATOM      5  H   UNL     1       2.233   6.265  21.904  0.00  0.00    +0.000 HD
ATOM      6  H   UNL     1       3.287   4.667  20.501  0.00  0.00    +0.000 HD
ENDROOT
BRANCH   4   7
ATOM      7  C   UNL     1       4.592   5.256  18.970  0.00  0.00    +0.000 A 
ATOM      8  C   UNL     1       5.942   5.495  19.261  0.00  0.00    +0.000 A 
ATOM      9  C   UNL     1       6.934   5.355  18.290  0.00  0.00    +0.000 A 
ATOM     10  C   UNL     1       6.591   4.958  17.007  0.00  0.00    +0.000 A 
ATOM     11  C   UNL     1       5.259   4.651  16.709  0.00  0.00    +0.000 A 
ATOM     12  C   UNL     1       4.259   4.801  17.684  0.00  0.00    +0.000 A 
ATOM     13  O   UNL     1       4.864   4.223  15.464  0.00  0.00    +0.000 OA
ATOM     14  C   UNL     1       5.985   3.832  14.654  0.00  0.00    +0.000 C 
ATOM     15  C   UNL     1       7.120   4.836  14.762  0.00  0.00    +0.000 C 
ATOM     16  O   UNL     1       7.616   4.884  16.101  0.00  0.00    +0.000 OA
ENDBRANCH   4   7
BRANCH   1  17
ATOM     17  C   UNL     1       0.978   7.747  21.085  0.00  0.00    +0.000 C 
BRANCH  17  18
ATOM     18  C   UNL     1       1.524   8.959  21.837  0.00  0.00    +0.000 C 
BRANCH  18  24
ATOM     19  N   UNL     1       0.018  10.958  21.241  0.00  0.00    +0.000 N 
ATOM     20  C   UNL     1      -1.085  11.551  21.828  0.00  0.00    +0.000 A 
ATOM     21  C   UNL     1      -1.959  12.581  21.212  0.00  0.00    +0.000 C 
ATOM     22  C   UNL     1      -1.155  10.990  23.084  0.00  0.00    +0.000 A 
ATOM     23  N   UNL     1      -0.190  10.044  23.255  0.00  0.00    +0.000 NA
ATOM     24  C   UNL     1       0.473   9.986  22.115  0.00  0.00    +0.000 A 
BRANCH  19  25
ATOM     25  C   UNL     1       0.572  11.332  19.950  0.00  0.00    +0.000 C 
BRANCH  25  26
ATOM     26  C   UNL     1       0.153  10.371  18.838  0.00  0.00    +0.000 C 
BRANCH  26  28
ATOM     27  C   UNL     1      -1.619   9.916  17.357  0.00  0.00    +0.000 C 
ATOM     28  O   UNL     1      -1.255  10.476  18.616  0.00  0.00    +0.000 OA
ENDBRANCH  26  28
ENDBRANCH  25  26
ENDBRANCH  19  25
ENDBRANCH  18  24
ENDBRANCH  17  18
ENDBRANCH   1  17
TORSDOF 7
ENDMDL
MODEL 3
REMARK VINA RESULT:      -7.2      2.122      8.944
REMARK  Name = 
REMARK  9 active torsions:
REMARK  status: ('A' for Active; 'I' for Inactive)
REMARK    1  A    between atoms: C_1  and  O_2
REMARK    2  A    between atoms: O_2  and  C_3
REMARK    3  A    between atoms: C_3  and  C_4
REMARK    4  A    between atoms: C_4  and  N_5
REMARK    5  A    between atoms: C_6  and  C_7
REMARK    6  A    between atoms: C_10  and  C_11
REMARK    7  A    between atoms: C_11  and  C_12
REMARK    8  A    between atoms: C_12  and  N_13
REMARK    9  A    between atoms: N_16  and  C_17
REMARK                            x       y       z     vdW  Elec       q    Type
REMARK                         _______ _______ _______ _____ _____    ______ ____
ROOT
ATOM      1  N   UNL     1       1.853   6.740  20.897  0.00  0.00    +0.000 N 
ATOM      2  C   UNL     1       2.725   6.648  19.826  0.00  0.00    +0.000 C 
ATOM      3  O   UNL     1       2.721   7.500  18.941  0.00  0.00    +0.000 OA
ATOM      4  N   UNL     1       3.532   5.528  19.854  0.00  0.00    +0.000 N 
ATOM      5  H   UNL     1       2.194   6.398  21.791  0.00  0.00    +0.000 HD
ATOM      6  H   UNL     1       3.189   4.751  20.401  0.00  0.00    +0.000 HD
ENDROOT
BRANCH   4   7
ATOM      7  C   UNL     1       4.567   5.273  18.911  0.00  0.00    +0.000 A 
ATOM      8  C   UNL     1       5.921   5.406  19.247  0.00  0.00    +0.000 A 
ATOM      9  C   UNL     1       6.930   5.216  18.302  0.00  0.00    +0.000 A 
ATOM     10  C   UNL     1       6.599   4.873  17.000  0.00  0.00    +0.000 A 
ATOM     11  C   UNL     1       5.258   4.671  16.656  0.00  0.00    +0.000 A 
ATOM     12  C   UNL     1       4.242   4.872  17.606  0.00  0.00    +0.000 A 
ATOM     13  O   UNL     1       4.872   4.300  15.390  0.00  0.00    +0.000 OA
ATOM     14  C   UNL     1       5.985   3.846  14.604  0.00  0.00    +0.000 C 
ATOM     15  C   UNL     1       7.187   4.762  14.770  0.00  0.00    +0.000 C 
ATOM     16  O   UNL     1       7.643   4.744  16.123  0.00  0.00    +0.000 OA
ENDBRANCH   4   7
BRANCH   1  17
ATOM     17  C   UNL     1       1.052   7.959  20.953  0.00  0.00    +0.000 C 
BRANCH  17  18
ATOM     18  C   UNL     1       1.462   8.995  21.996  0.00  0.00    +0.000 C 
BRANCH  18  24
ATOM     19  N   UNL     1      -0.037  10.990  21.369  0.00  0.00    +0.000 N 
ATOM     20  C   UNL     1      -1.164  11.569  21.926  0.00  0.00    +0.000 A 
ATOM     21  C   UNL     1      -2.024  12.599  21.291  0.00  0.00    +0.000 C 
ATOM     22  C   UNL     1      -1.272  10.996  23.172  0.00  0.00    +0.000 A 
ATOM     23  N   UNL     1      -0.306  10.055  23.367  0.00  0.00    +0.000 NA
ATOM     24  C   UNL     1       0.395  10.012  22.249  0.00  0.00    +0.000 A 
BRANCH  19  25
ATOM     25  C   UNL     1       0.556  11.380  20.101  0.00  0.00    +0.000 C 
BRANCH  25  26
ATOM     26  C   UNL     1       1.129  12.796  20.139  0.00  0.00    +0.000 C 
BRANCH  26  28
ATOM     27  C   UNL     1       3.119  13.853  20.819  0.00  0.00    +0.000 C 
ATOM     28  O   UNL     1       2.129  12.884  21.156  0.00  0.00    +0.000 OA
ENDBRANCH  26  28
ENDBRANCH  25  26
ENDBRANCH  19  25
ENDBRANCH  18  24
ENDBRANCH  17  18
ENDBRANCH   1  17
TORSDOF 7
ENDMDL
MODEL 4
REMARK VINA RESULT:      -7.2      4.977      7.748
REMARK  Name = 
REMARK  9 active torsions:
REMARK  status: ('A' for Active; 'I' for Inactive)
REMARK    1  A    between atoms: C_1  and  O_2
REMARK    2  A    between atoms: O_2  and  C_3
REMARK    3  A    between atoms: C_3  and  C_4
REMARK    4  A    between atoms: C_4  and  N_5
REMARK    5  A    between atoms: C_6  and  C_7
REMARK    6  A    between atoms: C_10  and  C_11
REMARK    7  A    between atoms: C_11  and  C_12
REMARK    8  A    between atoms: C_12  and  N_13
REMARK    9  A    between atoms: N_16  and  C_17
REMARK                            x       y       z     vdW  Elec       q    Type
REMARK                         _______ _______ _______ _____ _____    ______ ____
ROOT
ATOM      1  N   UNL     1       7.088   7.549  17.008  0.00  0.00    +0.000 N 
ATOM      2  C   UNL     1       7.934   8.226  17.869  0.00  0.00    +0.000 C 
ATOM      3  O   UNL     1       8.538   7.625  18.753  0.00  0.00    +0.000 OA
ATOM      4  N   UNL     1       7.987   9.587  17.647  0.00  0.00    +0.000 N 
ATOM      5  H   UNL     1       7.036   7.897  16.055  0.00  0.00    +0.000 HD
ATOM      6  H   UNL     1       7.193   9.987  17.167  0.00  0.00    +0.000 HD
ENDROOT
BRANCH   4   7
ATOM      7  C   UNL     1       8.857  10.471  18.345  0.00  0.00    +0.000 A 
ATOM      8  C   UNL     1       9.232  10.240  19.676  0.00  0.00    +0.000 A 
ATOM      9  C   UNL     1      10.035  11.140  20.377  0.00  0.00    +0.000 A 
ATOM     10  C   UNL     1      10.491  12.289  19.747  0.00  0.00    +0.000 A 
ATOM     11  C   UNL     1      10.184  12.511  18.401  0.00  0.00    +0.000 A 
ATOM     12  C   UNL     1       9.368  11.608  17.699  0.00  0.00    +0.000 A 
ATOM     13  O   UNL     1      10.634  13.615  17.717  0.00  0.00    +0.000 OA
ATOM     14  C   UNL     1      11.677  14.297  18.431  0.00  0.00    +0.000 C 
ATOM     15  C   UNL     1      11.337  14.432  19.906  0.00  0.00    +0.000 C 
ATOM     16  O   UNL     1      11.239  13.143  20.514  0.00  0.00    +0.000 OA
ENDBRANCH   4   7
BRANCH   1  17
ATOM     17  C   UNL     1       7.080   6.095  17.148  0.00  0.00    +0.000 C 
BRANCH  17  18
ATOM     18  C   UNL     1       5.808   5.376  16.706  0.00  0.00    +0.000 C 
BRANCH  18  24
ATOM     19  N   UNL     1       3.899   5.097  18.409  0.00  0.00    +0.000 N 
ATOM     20  C   UNL     1       2.990   5.958  18.996  0.00  0.00    +0.000 A 
ATOM     21  C   UNL     1       2.090   5.640  20.134  0.00  0.00    +0.000 C 
ATOM     22  C   UNL     1       3.102   7.127  18.279  0.00  0.00    +0.000 A 
ATOM     23  N   UNL     1       4.079   7.033  17.333  0.00  0.00    +0.000 NA
ATOM     24  C   UNL     1       4.599   5.826  17.463  0.00  0.00    +0.000 A 
BRANCH  19  25
ATOM     25  C   UNL     1       4.047   3.690  18.745  0.00  0.00    +0.000 C 
BRANCH  25  26
ATOM     26  C   UNL     1       3.576   2.771  17.618  0.00  0.00    +0.000 C 
BRANCH  26  28
ATOM     27  C   UNL     1       2.077   1.997  19.259  0.00  0.00    +0.000 C 
ATOM     28  O   UNL     1       2.243   2.329  17.883  0.00  0.00    +0.000 OA
ENDBRANCH  26  28
ENDBRANCH  25  26
ENDBRANCH  19  25
ENDBRANCH  18  24
ENDBRANCH  17  18
ENDBRANCH   1  17
TORSDOF 7
ENDMDL
MODEL 5
REMARK VINA RESULT:      -7.2      5.225      7.564
REMARK  Name = 
REMARK  9 active torsions:
REMARK  status: ('A' for Active; 'I' for Inactive)
REMARK    1  A    between atoms: C_1  and  O_2
REMARK    2  A    between atoms: O_2  and  C_3
REMARK    3  A    between atoms: C_3  and  C_4
REMARK    4  A    between atoms: C_4  and  N_5
REMARK    5  A    between atoms: C_6  and  C_7
REMARK    6  A    between atoms: C_10  and  C_11
REMARK    7  A    between atoms: C_11  and  C_12
REMARK    8  A    between atoms: C_12  and  N_13
REMARK    9  A    between atoms: N_16  and  C_17
REMARK                            x       y       z     vdW  Elec       q    Type
REMARK                         _______ _______ _______ _____ _____    ______ ____
ROOT
ATOM      1  N   UNL     1       8.540   7.618  18.819  0.00  0.00    +0.000 N 
ATOM      2  C   UNL     1       8.582   8.969  18.524  0.00  0.00    +0.000 C 
ATOM      3  O   UNL     1       7.886   9.436  17.625  0.00  0.00    +0.000 OA
ATOM      4  N   UNL     1       9.476   9.684  19.296  0.00  0.00    +0.000 N 
ATOM      5  H   UNL     1       8.666   7.361  19.794  0.00  0.00    +0.000 HD
ATOM      6  H   UNL     1      10.225   9.149  19.712  0.00  0.00    +0.000 HD
ENDROOT
BRANCH   4   7
ATOM      7  C   UNL     1       9.622  11.098  19.235  0.00  0.00    +0.000 A 
ATOM      8  C   UNL     1       9.171  11.932  20.268  0.00  0.00    +0.000 A 
ATOM      9  C   UNL     1       9.259  13.322  20.176  0.00  0.00    +0.000 A 
ATOM     10  C   UNL     1       9.817  13.903  19.047  0.00  0.00    +0.000 A 
ATOM     11  C   UNL     1      10.332  13.091  18.032  0.00  0.00    +0.000 A 
ATOM     12  C   UNL     1      10.234  11.692  18.121  0.00  0.00    +0.000 A 
ATOM     13  O   UNL     1      10.923  13.611  16.905  0.00  0.00    +0.000 OA
ATOM     14  C   UNL     1      11.227  15.006  17.057  0.00  0.00    +0.000 C 
ATOM     15  C   UNL     1      10.069  15.756  17.693  0.00  0.00    +0.000 C 
ATOM     16  O   UNL     1       9.830  15.273  19.016  0.00  0.00    +0.000 OA
ENDBRANCH   4   7
BRANCH   1  17
ATOM     17  C   UNL     1       7.536   6.846  18.091  0.00  0.00    +0.000 C 
BRANCH  17  18
ATOM     18  C   UNL     1       7.339   5.398  18.532  0.00  0.00    +0.000 C 
BRANCH  18  24
ATOM     19  N   UNL     1       5.216   4.271  17.614  0.00  0.00    +0.000 N 
ATOM     20  C   UNL     1       3.978   3.957  18.144  0.00  0.00    +0.000 A 
ATOM     21  C   UNL     1       2.943   3.101  17.510  0.00  0.00    +0.000 C 
ATOM     22  C   UNL     1       3.933   4.627  19.346  0.00  0.00    +0.000 A 
ATOM     23  N   UNL     1       5.107   5.273  19.594  0.00  0.00    +0.000 NA
ATOM     24  C   UNL     1       5.898   4.999  18.573  0.00  0.00    +0.000 A 
BRANCH  19  25
ATOM     25  C   UNL     1       5.668   3.897  16.284  0.00  0.00    +0.000 C 
BRANCH  25  26
ATOM     26  C   UNL     1       5.327   4.955  15.235  0.00  0.00    +0.000 C 
BRANCH  26  28
ATOM     27  C   UNL     1       6.475   3.875  13.487  0.00  0.00    +0.000 C 
ATOM     28  O   UNL     1       5.210   4.339  13.951  0.00  0.00    +0.000 OA
ENDBRANCH  26  28
ENDBRANCH  25  26
ENDBRANCH  19  25
ENDBRANCH  18  24
ENDBRANCH  17  18
ENDBRANCH   1  17
TORSDOF 7
ENDMDL
MODEL 6
REMARK VINA RESULT:      -7.1      5.021      7.808
REMARK  Name = 
REMARK  9 active torsions:
REMARK  status: ('A' for Active; 'I' for Inactive)
REMARK    1  A    between atoms: C_1  and  O_2
REMARK    2  A    between atoms: O_2  and  C_3
REMARK    3  A    between atoms: C_3  and  C_4
REMARK    4  A    between atoms: C_4  and  N_5
REMARK    5  A    between atoms: C_6  and  C_7
REMARK    6  A    between atoms: C_10  and  C_11
REMARK    7  A    between atoms: C_11  and  C_12
REMARK    8  A    between atoms: C_12  and  N_13
REMARK    9  A    between atoms: N_16  and  C_17
REMARK                            x       y       z     vdW  Elec       q    Type
REMARK                         _______ _______ _______ _____ _____    ______ ____
ROOT
ATOM      1  N   UNL     1       7.208   7.460  17.133  0.00  0.00    +0.000 N 
ATOM      2  C   UNL     1       8.021   8.204  17.970  0.00  0.00    +0.000 C 
ATOM      3  O   UNL     1       8.670   7.659  18.860  0.00  0.00    +0.000 OA
ATOM      4  N   UNL     1       7.991   9.561  17.719  0.00  0.00    +0.000 N 
ATOM      5  H   UNL     1       7.125   7.783  16.174  0.00  0.00    +0.000 HD
ATOM      6  H   UNL     1       7.170   9.903  17.240  0.00  0.00    +0.000 HD
ENDROOT
BRANCH   4   7
ATOM      7  C   UNL     1       8.815  10.509  18.388  0.00  0.00    +0.000 A 
ATOM      8  C   UNL     1       9.312  10.275  19.678  0.00  0.00    +0.000 A 
ATOM      9  C   UNL     1      10.068  11.234  20.355  0.00  0.00    +0.000 A 
ATOM     10  C   UNL     1      10.352  12.445  19.742  0.00  0.00    +0.000 A 
ATOM     11  C   UNL     1       9.922  12.677  18.431  0.00  0.00    +0.000 A 
ATOM     12  C   UNL     1       9.153  11.715  17.754  0.00  0.00    +0.000 A 
ATOM     13  O   UNL     1      10.199  13.845  17.763  0.00  0.00    +0.000 OA
ATOM     14  C   UNL     1      11.217  14.611  18.427  0.00  0.00    +0.000 C 
ATOM     15  C   UNL     1      10.979  14.660  19.927  0.00  0.00    +0.000 C 
ATOM     16  O   UNL     1      11.063  13.348  20.487  0.00  0.00    +0.000 OA
ENDBRANCH   4   7
BRANCH   1  17
ATOM     17  C   UNL     1       7.287   6.012  17.304  0.00  0.00    +0.000 C 
BRANCH  17  18
ATOM     18  C   UNL     1       6.383   5.402  18.372  0.00  0.00    +0.000 C 
BRANCH  18  24
ATOM     19  N   UNL     1       3.981   4.536  18.055  0.00  0.00    +0.000 N 
ATOM     20  C   UNL     1       2.745   5.138  17.896  0.00  0.00    +0.000 A 
ATOM     21  C   UNL     1       1.426   4.459  17.943  0.00  0.00    +0.000 C 
ATOM     22  C   UNL     1       3.031   6.465  17.669  0.00  0.00    +0.000 A 
ATOM     23  N   UNL     1       4.371   6.702  17.748  0.00  0.00    +0.000 NA
ATOM     24  C   UNL     1       4.930   5.543  18.046  0.00  0.00    +0.000 A 
BRANCH  19  25
ATOM     25  C   UNL     1       4.195   3.104  18.188  0.00  0.00    +0.000 C 
BRANCH  25  26
ATOM     26  C   UNL     1       4.208   2.651  19.648  0.00  0.00    +0.000 C 
BRANCH  26  28
ATOM     27  C   UNL     1       2.580   2.800  21.342  0.00  0.00    +0.000 C 
ATOM     28  O   UNL     1       2.886   2.284  20.049  0.00  0.00    +0.000 OA
ENDBRANCH  26  28
ENDBRANCH  25  26
ENDBRANCH  19  25
ENDBRANCH  18  24
ENDBRANCH  17  18
ENDBRANCH   1  17
TORSDOF 7
ENDMDL
MODEL 7
REMARK VINA RESULT:      -7.0      4.803      7.422
REMARK  Name = 
REMARK  9 active torsions:
REMARK  status: ('A' for Active; 'I' for Inactive)
REMARK    1  A    between atoms: C_1  and  O_2
REMARK    2  A    between atoms: O_2  and  C_3
REMARK    3  A    between atoms: C_3  and  C_4
REMARK    4  A    between atoms: C_4  and  N_5
REMARK    5  A    between atoms: C_6  and  C_7
REMARK    6  A    between atoms: C_10  and  C_11
REMARK    7  A    between atoms: C_11  and  C_12
REMARK    8  A    between atoms: C_12  and  N_13
REMARK    9  A    between atoms: N_16  and  C_17
REMARK                            x       y       z     vdW  Elec       q    Type
REMARK                         _______ _______ _______ _____ _____    ______ ____
ROOT
ATOM      1  N   UNL     1       7.882   6.799  18.386  0.00  0.00    +0.000 N 
ATOM      2  C   UNL     1       8.131   8.144  18.178  0.00  0.00    +0.000 C 
ATOM      3  O   UNL     1       7.695   8.715  17.182  0.00  0.00    +0.000 OA
ATOM      4  N   UNL     1       8.914   8.726  19.155  0.00  0.00    +0.000 N 
ATOM      5  H   UNL     1       7.772   6.500  19.351  0.00  0.00    +0.000 HD
ATOM      6  H   UNL     1       9.497   8.096  19.687  0.00  0.00    +0.000 HD
ENDROOT
BRANCH   4   7
ATOM      7  C   UNL     1       9.221  10.115  19.200  0.00  0.00    +0.000 A 
ATOM      8  C   UNL     1       9.403  10.871  18.033  0.00  0.00    +0.000 A 
ATOM      9  C   UNL     1       9.765  12.217  18.084  0.00  0.00    +0.000 A 
ATOM     10  C   UNL     1       9.938  12.838  19.311  0.00  0.00    +0.000 A 
ATOM     11  C   UNL     1       9.700  12.124  20.490  0.00  0.00    +0.000 A 
ATOM     12  C   UNL     1       9.345  10.765  20.439  0.00  0.00    +0.000 A 
ATOM     13  O   UNL     1       9.826  12.695  21.734  0.00  0.00    +0.000 OA
ATOM     14  C   UNL     1       9.901  14.127  21.658  0.00  0.00    +0.000 C 
ATOM     15  C   UNL     1      10.835  14.573  20.545  0.00  0.00    +0.000 C 
ATOM     16  O   UNL     1      10.333  14.150  19.276  0.00  0.00    +0.000 OA
ENDBRANCH   4   7
BRANCH   1  17
ATOM     17  C   UNL     1       6.977   6.171  17.427  0.00  0.00    +0.000 C 
BRANCH  17  18
ATOM     18  C   UNL     1       5.483   6.328  17.697  0.00  0.00    +0.000 C 
BRANCH  18  24
ATOM     19  N   UNL     1       3.578   4.960  18.757  0.00  0.00    +0.000 N 
ATOM     20  C   UNL     1       3.485   3.699  19.317  0.00  0.00    +0.000 A 
ATOM     21  C   UNL     1       2.232   2.994  19.687  0.00  0.00    +0.000 C 
ATOM     22  C   UNL     1       4.790   3.284  19.463  0.00  0.00    +0.000 A 
ATOM     23  N   UNL     1       5.659   4.206  18.959  0.00  0.00    +0.000 NA
ATOM     24  C   UNL     1       4.916   5.184  18.477  0.00  0.00    +0.000 A 
BRANCH  19  25
ATOM     25  C   UNL     1       2.455   5.856  18.538  0.00  0.00    +0.000 C 
BRANCH  25  26
ATOM     26  C   UNL     1       2.197   6.769  19.736  0.00  0.00    +0.000 C 
BRANCH  26  28
ATOM     27  C   UNL     1       2.157   8.218  17.881  0.00  0.00    +0.000 C 
ATOM     28  O   UNL     1       2.160   8.131  19.304  0.00  0.00    +0.000 OA
ENDBRANCH  26  28
ENDBRANCH  25  26
ENDBRANCH  19  25
ENDBRANCH  18  24
ENDBRANCH  17  18
ENDBRANCH   1  17
TORSDOF 7
ENDMDL
MODEL 8
REMARK VINA RESULT:      -7.0      5.336      8.561
REMARK  Name = 
REMARK  9 active torsions:
REMARK  status: ('A' for Active; 'I' for Inactive)
REMARK    1  A    between atoms: C_1  and  O_2
REMARK    2  A    between atoms: O_2  and  C_3
REMARK    3  A    between atoms: C_3  and  C_4
REMARK    4  A    between atoms: C_4  and  N_5
REMARK    5  A    between atoms: C_6  and  C_7
REMARK    6  A    between atoms: C_10  and  C_11
REMARK    7  A    between atoms: C_11  and  C_12
REMARK    8  A    between atoms: C_12  and  N_13
REMARK    9  A    between atoms: N_16  and  C_17
REMARK                            x       y       z     vdW  Elec       q    Type
REMARK                         _______ _______ _______ _____ _____    ______ ____
ROOT
ATOM      1  N   UNL     1       7.831   9.023  17.528  0.00  0.00    +0.000 N 
ATOM      2  C   UNL     1       7.475   7.705  17.758  0.00  0.00    +0.000 C 
ATOM      3  O   UNL     1       8.095   7.021  18.568  0.00  0.00    +0.000 OA
ATOM      4  N   UNL     1       6.419   7.267  16.984  0.00  0.00    +0.000 N 
ATOM      5  H   UNL     1       7.075   9.667  17.313  0.00  0.00    +0.000 HD
ATOM      6  H   UNL     1       6.255   7.780  16.129  0.00  0.00    +0.000 HD
ENDROOT
BRANCH   4   7
ATOM      7  C   UNL     1       5.820   5.982  17.115  0.00  0.00    +0.000 A 
ATOM      8  C   UNL     1       5.471   5.213  15.996  0.00  0.00    +0.000 A 
ATOM      9  C   UNL     1       4.828   3.981  16.128  0.00  0.00    +0.000 A 
ATOM     10  C   UNL     1       4.535   3.490  17.391  0.00  0.00    +0.000 A 
ATOM     11  C   UNL     1       4.931   4.208  18.524  0.00  0.00    +0.000 A 
ATOM     12  C   UNL     1       5.569   5.452  18.390  0.00  0.00    +0.000 A 
ATOM     13  O   UNL     1       4.695   3.756  19.800  0.00  0.00    +0.000 OA
ATOM     14  C   UNL     1       4.313   2.371  19.814  0.00  0.00    +0.000 C 
ATOM     15  C   UNL     1       3.296   2.069  18.725  0.00  0.00    +0.000 C 
ATOM     16  O   UNL     1       3.867   2.294  17.436  0.00  0.00    +0.000 OA
ENDBRANCH   4   7
BRANCH   1  17
ATOM     17  C   UNL     1       8.880   9.551  18.396  0.00  0.00    +0.000 C 
BRANCH  17  18
ATOM     18  C   UNL     1       9.342  10.978  18.113  0.00  0.00    +0.000 C 
BRANCH  18  24
ATOM     19  N   UNL     1       9.415  13.141  19.505  0.00  0.00    +0.000 N 
ATOM     20  C   UNL     1       9.513  13.422  20.856  0.00  0.00    +0.000 A 
ATOM     21  C   UNL     1       9.321  14.750  21.492  0.00  0.00    +0.000 C 
ATOM     22  C   UNL     1       9.843  12.219  21.440  0.00  0.00    +0.000 A 
ATOM     23  N   UNL     1       9.884  11.218  20.516  0.00  0.00    +0.000 NA
ATOM     24  C   UNL     1       9.560  11.771  19.362  0.00  0.00    +0.000 A 
BRANCH  19  25
ATOM     25  C   UNL     1       9.212  14.134  18.463  0.00  0.00    +0.000 C 
BRANCH  25  26
ATOM     26  C   UNL     1      10.530  14.699  17.935  0.00  0.00    +0.000 C 
BRANCH  26  28
ATOM     27  C   UNL     1      12.307  13.399  17.103  0.00  0.00    +0.000 C 
ATOM     28  O   UNL     1      10.996  13.896  16.848  0.00  0.00    +0.000 OA
ENDBRANCH  26  28
ENDBRANCH  25  26
ENDBRANCH  19  25
ENDBRANCH  18  24
ENDBRANCH  17  18
ENDBRANCH   1  17
TORSDOF 7
ENDMDL
MODEL 9
REMARK VINA RESULT:      -7.0      1.069      1.711
REMARK  Name = 
REMARK  9 active torsions:
REMARK  status: ('A' for Active; 'I' for Inactive)
REMARK    1  A    between atoms: C_1  and  O_2
REMARK    2  A    between atoms: O_2  and  C_3
REMARK    3  A    between atoms: C_3  and  C_4
REMARK    4  A    between atoms: C_4  and  N_5
REMARK    5  A    between atoms: C_6  and  C_7
REMARK    6  A    between atoms: C_10  and  C_11
REMARK    7  A    between atoms: C_11  and  C_12
REMARK    8  A    between atoms: C_12  and  N_13
REMARK    9  A    between atoms: N_16  and  C_17
REMARK                            x       y       z     vdW  Elec       q    Type
REMARK                         _______ _______ _______ _____ _____    ______ ____
ROOT
ATOM      1  N   UNL     1       3.087   4.295  19.870  0.00  0.00    +0.000 N 
ATOM      2  C   UNL     1       2.338   5.424  19.585  0.00  0.00    +0.000 C 
ATOM      3  O   UNL     1       1.748   5.529  18.513  0.00  0.00    +0.000 OA
ATOM      4  N   UNL     1       2.362   6.378  20.583  0.00  0.00    +0.000 N 
ATOM      5  H   UNL     1       3.107   3.996  20.840  0.00  0.00    +0.000 HD
ATOM      6  H   UNL     1       3.151   6.340  21.212  0.00  0.00    +0.000 HD
ENDROOT
BRANCH   4   7
ATOM      7  C   UNL     1       1.593   7.576  20.552  0.00  0.00    +0.000 A 
ATOM      8  C   UNL     1       0.596   7.839  21.502  0.00  0.00    +0.000 A 
ATOM      9  C   UNL     1      -0.197   8.984  21.432  0.00  0.00    +0.000 A 
ATOM     10  C   UNL     1       0.005   9.899  20.409  0.00  0.00    +0.000 A 
ATOM     11  C   UNL     1       1.035   9.692  19.486  0.00  0.00    +0.000 A 
ATOM     12  C   UNL     1       1.827   8.533  19.552  0.00  0.00    +0.000 A 
ATOM     13  O   UNL     1       1.300  10.579  18.471  0.00  0.00    +0.000 OA
ATOM     14  C   UNL     1       0.639  11.838  18.675  0.00  0.00    +0.000 C 
ATOM     15  C   UNL     1      -0.800  11.638  19.121  0.00  0.00    +0.000 C 
ATOM     16  O   UNL     1      -0.841  10.977  20.386  0.00  0.00    +0.000 OA
ENDBRANCH   4   7
BRANCH   1  17
ATOM     17  C   UNL     1       3.008   3.223  18.882  0.00  0.00    +0.000 C 
BRANCH  17  18
ATOM     18  C   UNL     1       4.158   3.133  17.882  0.00  0.00    +0.000 C 
BRANCH  18  24
ATOM     19  N   UNL     1       5.788   5.020  17.249  0.00  0.00    +0.000 N 
ATOM     20  C   UNL     1       6.598   5.883  17.965  0.00  0.00    +0.000 A 
ATOM     21  C   UNL     1       7.317   7.064  17.423  0.00  0.00    +0.000 C 
ATOM     22  C   UNL     1       6.594   5.382  19.247  0.00  0.00    +0.000 A 
ATOM     23  N   UNL     1       5.771   4.301  19.352  0.00  0.00    +0.000 NA
ATOM     24  C   UNL     1       5.239   4.129  18.156  0.00  0.00    +0.000 A 
BRANCH  19  25
ATOM     25  C   UNL     1       5.593   5.067  15.809  0.00  0.00    +0.000 C 
BRANCH  25  26
ATOM     26  C   UNL     1       6.422   4.013  15.076  0.00  0.00    +0.000 C 
BRANCH  26  28
ATOM     27  C   UNL     1       6.103   3.640  12.774  0.00  0.00    +0.000 C 
ATOM     28  O   UNL     1       6.720   4.469  13.754  0.00  0.00    +0.000 OA
ENDBRANCH  26  28
ENDBRANCH  25  26
ENDBRANCH  19  25
ENDBRANCH  18  24
ENDBRANCH  17  18
ENDBRANCH   1  17
TORSDOF 7
ENDMDL
