MODEL 1
REMARK VINA RESULT:      -8.4      0.000      0.000
REMARK  Name = 
REMARK  4 active torsions:
REMARK  status: ('A' for Active; 'I' for Inactive)
REMARK    1  A    between atoms: N_3  and  C_4
REMARK    2  A    between atoms: C_6  and  O_7
REMARK    3  A    between atoms: C_10  and  S_11
REMARK    4  A    between atoms: S_11  and  O_14
REMARK                            x       y       z     vdW  Elec       q    Type
REMARK                         _______ _______ _______ _____ _____    ______ ____
ROOT
ATOM      1  C   UNL     1       1.421   8.466  19.385  0.00  0.00    +0.000 A 
ATOM      2  C   UNL     1       1.618   7.382  20.239  0.00  0.00    +0.000 A 
ATOM      3  C   UNL     1       2.611   6.444  19.968  0.00  0.00    +0.000 A 
ATOM      4  C   UNL     1       3.430   6.554  18.836  0.00  0.00    +0.000 A 
ATOM      5  C   UNL     1       4.477   5.649  18.591  0.00  0.00    +0.000 A 
ATOM      6  C   UNL     1       5.290   5.800  17.469  0.00  0.00    +0.000 A 
ATOM      7  C   UNL     1       5.061   6.829  16.556  0.00  0.00    +0.000 A 
ATOM      8  C   UNL     1       4.017   7.730  16.788  0.00  0.00    +0.000 A 
ATOM      9  C   UNL     1       3.200   7.616  17.929  0.00  0.00    +0.000 A 
ATOM     10  C   UNL     1       2.176   8.549  18.206  0.00  0.00    +0.000 A 
ENDROOT
BRANCH   1  13
ATOM     11  O   UNL     1       1.465  10.393  21.587  0.00  0.00    +0.000 OA
ATOM     12  C   UNL     1       0.580  10.375  20.732  0.00  0.00    +0.000 C 
ATOM     13  N   UNL     1       0.504   9.501  19.675  0.00  0.00    +0.000 N 
ATOM     14  N   UNL     1      -0.405  11.306  20.855  0.00  0.00    +0.000 N 
ATOM     15  C   UNL     1      -1.489  11.457  20.050  0.00  0.00    +0.000 A 
ATOM     16  N   UNL     1      -1.759  10.827  18.935  0.00  0.00    +0.000 NA
ATOM     17  C   UNL     1      -2.995  11.249  18.475  0.00  0.00    +0.000 A 
ATOM     18  C   UNL     1      -3.638  10.795  17.308  0.00  0.00    +0.000 A 
ATOM     19  C   UNL     1      -4.909  11.281  16.981  0.00  0.00    +0.000 A 
ATOM     20  C   UNL     1      -5.535  12.214  17.801  0.00  0.00    +0.000 A 
ATOM     21 CL   UNL     1      -7.107  12.781  17.390  0.00  0.00    +0.000 Cl
ATOM     22  C   UNL     1      -4.916  12.700  18.954  0.00  0.00    +0.000 A 
ATOM     23  C   UNL     1      -3.641  12.204  19.270  0.00  0.00    +0.000 A 
ATOM     24  S   UNL     1      -2.619  12.600  20.600  0.00  0.00    +0.000 S 
ATOM     25  H   UNL     1      -0.184   9.736  18.964  0.00  0.00    +0.000 HD
ATOM     26  H   UNL     1      -0.323  11.905  21.662  0.00  0.00    +0.000 HD
ENDBRANCH   1  13
BRANCH   6  27
ATOM     27  S   UNL     1       6.580   4.624  17.186  0.00  0.00    +0.000 S 
ATOM     28  O   UNL     1       7.387   5.118  16.089  0.00  0.00    +0.000 OA
ATOM     29  O   UNL     1       7.147   4.276  18.469  0.00  0.00    +0.000 OA
BRANCH  27  30
ATOM     30  O   UNL     1       5.819   3.331  16.592  0.00  0.00    +0.000 OA
ATOM     31  H   UNL     1       5.528   2.781  17.351  0.00  0.00    +0.000 HD
ENDBRANCH  27  30
ENDBRANCH   6  27
BRANCH   3  32
ATOM     32  O   UNL     1       2.801   5.401  20.838  0.00  0.00    +0.000 OA
ATOM     33  H   UNL     1       2.128   5.455  21.537  0.00  0.00    +0.000 HD
ENDBRANCH   3  32
TORSDOF 4
ENDMDL
MODEL 2
REMARK VINA RESULT:      -8.4      4.783      9.986
REMARK  Name = 
REMARK  4 active torsions:
REMARK  status: ('A' for Active; 'I' for Inactive)
REMARK    1  A    between atoms: N_3  and  C_4
REMARK    2  A    between atoms: C_6  and  O_7
REMARK    3  A    between atoms: C_10  and  S_11
REMARK    4  A    between atoms: S_11  and  O_14
REMARK                            x       y       z     vdW  Elec       q    Type
REMARK                         _______ _______ _______ _____ _____    ______ ____
ROOT
ATOM      1  C   UNL     1      -0.245   9.995  18.369  0.00  0.00    +0.000 A 
ATOM      2  C   UNL     1      -0.475  10.772  19.504  0.00  0.00    +0.000 A 
ATOM      3  C   UNL     1      -1.679  11.452  19.659  0.00  0.00    +0.000 A 
ATOM      4  C   UNL     1      -2.687  11.386  18.687  0.00  0.00    +0.000 A 
ATOM      5  C   UNL     1      -3.930  12.015  18.868  0.00  0.00    +0.000 A 
ATOM      6  C   UNL     1      -4.920  11.909  17.892  0.00  0.00    +0.000 A 
ATOM      7  C   UNL     1      -4.685  11.207  16.711  0.00  0.00    +0.000 A 
ATOM      8  C   UNL     1      -3.448  10.583  16.519  0.00  0.00    +0.000 A 
ATOM      9  C   UNL     1      -2.442  10.651  17.502  0.00  0.00    +0.000 A 
ATOM     10  C   UNL     1      -1.207   9.982  17.349  0.00  0.00    +0.000 A 
ENDROOT
BRANCH   1  13
ATOM     11  O   UNL     1       2.434  10.801  17.513  0.00  0.00    +0.000 OA
ATOM     12  C   UNL     1       2.147   9.641  17.807  0.00  0.00    +0.000 C 
ATOM     13  N   UNL     1       0.913   9.201  18.217  0.00  0.00    +0.000 N 
ATOM     14  N   UNL     1       3.147   8.724  17.713  0.00  0.00    +0.000 N 
ATOM     15  C   UNL     1       3.056   7.390  17.959  0.00  0.00    +0.000 A 
ATOM     16  N   UNL     1       2.037   6.728  18.443  0.00  0.00    +0.000 NA
ATOM     17  C   UNL     1       2.358   5.381  18.474  0.00  0.00    +0.000 A 
ATOM     18  C   UNL     1       1.516   4.344  18.921  0.00  0.00    +0.000 A 
ATOM     19  C   UNL     1       1.956   3.018  18.862  0.00  0.00    +0.000 A 
ATOM     20  C   UNL     1       3.222   2.721  18.370  0.00  0.00    +0.000 A 
ATOM     21 CL   UNL     1       3.734   1.079  18.287  0.00  0.00    +0.000 Cl
ATOM     22  C   UNL     1       4.089   3.727  17.938  0.00  0.00    +0.000 A 
ATOM     23  C   UNL     1       3.635   5.054  18.004  0.00  0.00    +0.000 A 
ATOM     24  S   UNL     1       4.451   6.505  17.562  0.00  0.00    +0.000 S 
ATOM     25  H   UNL     1       0.890   8.256  18.594  0.00  0.00    +0.000 HD
ATOM     26  H   UNL     1       4.027   9.087  17.379  0.00  0.00    +0.000 HD
ENDBRANCH   1  13
BRANCH   6  27
ATOM     27  S   UNL     1      -6.462  12.738  18.148  0.00  0.00    +0.000 S 
ATOM     28  O   UNL     1      -7.022  13.028  16.844  0.00  0.00    +0.000 OA
ATOM     29  O   UNL     1      -7.190  12.008  19.160  0.00  0.00    +0.000 OA
BRANCH  27  30
ATOM     30  O   UNL     1      -6.047  14.176  18.751  0.00  0.00    +0.000 OA
ATOM     31  H   UNL     1      -5.091  14.143  18.973  0.00  0.00    +0.000 HD
ENDBRANCH  27  30
ENDBRANCH   6  27
BRANCH   3  32
ATOM     32  O   UNL     1      -1.890  12.188  20.797  0.00  0.00    +0.000 OA
ATOM     33  H   UNL     1      -1.096  12.129  21.355  0.00  0.00    +0.000 HD
ENDBRANCH   3  32
TORSDOF 4
ENDMDL
MODEL 3
REMARK VINA RESULT:      -8.4      1.607      2.520
REMARK  Name = 
REMARK  4 active torsions:
REMARK  status: ('A' for Active; 'I' for Inactive)
REMARK    1  A    between atoms: N_3  and  C_4
REMARK    2  A    between atoms: C_6  and  O_7
REMARK    3  A    between atoms: C_10  and  S_11
REMARK    4  A    between atoms: S_11  and  O_14
REMARK                            x       y       z     vdW  Elec       q    Type
REMARK                         _______ _______ _______ _____ _____    ______ ____
ROOT
ATOM      1  C   UNL     1       1.007   9.188  19.539  0.00  0.00    +0.000 A 
ATOM      2  C   UNL     1       1.787   9.207  18.384  0.00  0.00    +0.000 A 
ATOM      3  C   UNL     1       2.580   8.112  18.052  0.00  0.00    +0.000 A 
ATOM      4  C   UNL     1       2.626   6.970  18.864  0.00  0.00    +0.000 A 
ATOM      5  C   UNL     1       3.371   5.836  18.502  0.00  0.00    +0.000 A 
ATOM      6  C   UNL     1       3.376   4.706  19.319  0.00  0.00    +0.000 A 
ATOM      7  C   UNL     1       2.669   4.693  20.521  0.00  0.00    +0.000 A 
ATOM      8  C   UNL     1       1.929   5.820  20.893  0.00  0.00    +0.000 A 
ATOM      9  C   UNL     1       1.886   6.963  20.071  0.00  0.00    +0.000 A 
ATOM     10  C   UNL     1       1.101   8.089  20.405  0.00  0.00    +0.000 A 
ENDROOT
BRANCH   1  13
ATOM     11  O   UNL     1       1.270  11.290  21.556  0.00  0.00    +0.000 OA
ATOM     12  C   UNL     1       0.286  11.186  20.825  0.00  0.00    +0.000 C 
ATOM     13  N   UNL     1       0.104  10.226  19.860  0.00  0.00    +0.000 N 
ATOM     14  N   UNL     1      -0.701  12.106  20.997  0.00  0.00    +0.000 N 
ATOM     15  C   UNL     1      -1.881  12.170  20.326  0.00  0.00    +0.000 A 
ATOM     16  N   UNL     1      -2.270  11.446  19.309  0.00  0.00    +0.000 NA
ATOM     17  C   UNL     1      -3.566  11.806  18.977  0.00  0.00    +0.000 A 
ATOM     18  C   UNL     1      -4.337  11.246  17.941  0.00  0.00    +0.000 A 
ATOM     19  C   UNL     1      -5.651  11.680  17.740  0.00  0.00    +0.000 A 
ATOM     20  C   UNL     1      -6.196  12.666  18.556  0.00  0.00    +0.000 A 
ATOM     21 CL   UNL     1      -7.823  13.169  18.303  0.00  0.00    +0.000 Cl
ATOM     22  C   UNL     1      -5.452  13.257  19.579  0.00  0.00    +0.000 A 
ATOM     23  C   UNL     1      -4.134  12.812  19.768  0.00  0.00    +0.000 A 
ATOM     24  S   UNL     1      -2.966  13.335  20.922  0.00  0.00    +0.000 S 
ATOM     25  H   UNL     1      -0.674  10.389  19.225  0.00  0.00    +0.000 HD
ATOM     26  H   UNL     1      -0.537  12.772  21.736  0.00  0.00    +0.000 HD
ENDBRANCH   1  13
BRANCH   6  27
ATOM     27  S   UNL     1       4.349   3.309  18.838  0.00  0.00    +0.000 S 
ATOM     28  O   UNL     1       4.276   2.338  19.911  0.00  0.00    +0.000 OA
ATOM     29  O   UNL     1       4.004   2.983  17.474  0.00  0.00    +0.000 OA
BRANCH  27  30
ATOM     30  O   UNL     1       5.868   3.851  18.870  0.00  0.00    +0.000 OA
ATOM     31  H   UNL     1       6.383   3.262  19.463  0.00  0.00    +0.000 HD
ENDBRANCH  27  30
ENDBRANCH   6  27
BRANCH   3  32
ATOM     32  O   UNL     1       3.318   8.146  16.897  0.00  0.00    +0.000 OA
ATOM     33  H   UNL     1       3.212   7.297  16.437  0.00  0.00    +0.000 HD
ENDBRANCH   3  32
TORSDOF 4
ENDMDL
MODEL 4
REMARK VINA RESULT:      -8.4      2.395      3.406
REMARK  Name = 
REMARK  4 active torsions:
REMARK  status: ('A' for Active; 'I' for Inactive)
REMARK    1  A    between atoms: N_3  and  C_4
REMARK    2  A    between atoms: C_6  and  O_7
REMARK    3  A    between atoms: C_10  and  S_11
REMARK    4  A    between atoms: S_11  and  O_14
REMARK                            x       y       z     vdW  Elec       q    Type
REMARK                         _______ _______ _______ _____ _____    ______ ____
ROOT
ATOM      1  C   UNL     1       0.344   9.792  20.606  0.00  0.00    +0.000 A 
ATOM      2  C   UNL     1       0.785  10.275  19.375  0.00  0.00    +0.000 A 
ATOM      3  C   UNL     1       1.596   9.489  18.560  0.00  0.00    +0.000 A 
ATOM      4  C   UNL     1       1.998   8.205  18.951  0.00  0.00    +0.000 A 
ATOM      5  C   UNL     1       2.761   7.381  18.106  0.00  0.00    +0.000 A 
ATOM      6  C   UNL     1       3.123   6.098  18.515  0.00  0.00    +0.000 A 
ATOM      7  C   UNL     1       2.764   5.622  19.775  0.00  0.00    +0.000 A 
ATOM      8  C   UNL     1       2.010   6.438  20.625  0.00  0.00    +0.000 A 
ATOM      9  C   UNL     1       1.608   7.727  20.225  0.00  0.00    +0.000 A 
ATOM     10  C   UNL     1       0.801   8.543  21.049  0.00  0.00    +0.000 A 
ENDROOT
BRANCH   1  13
ATOM     11  O   UNL     1       0.266  10.016  23.521  0.00  0.00    +0.000 OA
ATOM     12  C   UNL     1      -0.552  10.569  22.787  0.00  0.00    +0.000 C 
ATOM     13  N   UNL     1      -0.568  10.505  21.415  0.00  0.00    +0.000 N 
ATOM     14  N   UNL     1      -1.520  11.304  23.398  0.00  0.00    +0.000 N 
ATOM     15  C   UNL     1      -2.537  11.974  22.795  0.00  0.00    +0.000 A 
ATOM     16  N   UNL     1      -2.736  12.153  21.514  0.00  0.00    +0.000 NA
ATOM     17  C   UNL     1      -3.925  12.844  21.343  0.00  0.00    +0.000 A 
ATOM     18  C   UNL     1      -4.489  13.219  20.109  0.00  0.00    +0.000 A 
ATOM     19  C   UNL     1      -5.719  13.884  20.080  0.00  0.00    +0.000 A 
ATOM     20  C   UNL     1      -6.383  14.181  21.265  0.00  0.00    +0.000 A 
ATOM     21 CL   UNL     1      -7.906  14.981  21.204  0.00  0.00    +0.000 Cl
ATOM     22  C   UNL     1      -5.841  13.842  22.507  0.00  0.00    +0.000 A 
ATOM     23  C   UNL     1      -4.605  13.175  22.521  0.00  0.00    +0.000 A 
ATOM     24  S   UNL     1      -3.678  12.633  23.868  0.00  0.00    +0.000 S 
ATOM     25  H   UNL     1      -1.195  11.162  20.956  0.00  0.00    +0.000 HD
ATOM     26  H   UNL     1      -1.486  11.296  24.406  0.00  0.00    +0.000 HD
ENDBRANCH   1  13
BRANCH   6  27
ATOM     27  S   UNL     1       4.106   5.104  17.431  0.00  0.00    +0.000 S 
ATOM     28  O   UNL     1       3.318   3.942  17.071  0.00  0.00    +0.000 OA
ATOM     29  O   UNL     1       4.691   5.979  16.441  0.00  0.00    +0.000 OA
BRANCH  27  30
ATOM     30  O   UNL     1       5.285   4.532  18.372  0.00  0.00    +0.000 OA
ATOM     31  H   UNL     1       4.865   4.057  19.122  0.00  0.00    +0.000 HD
ENDBRANCH  27  30
ENDBRANCH   6  27
BRANCH   3  32
ATOM     32  O   UNL     1       1.996   9.978  17.343  0.00  0.00    +0.000 OA
ATOM     33  H   UNL     1       2.480   9.279  16.873  0.00  0.00    +0.000 HD
ENDBRANCH   3  32
TORSDOF 4
ENDMDL
MODEL 5
REMARK VINA RESULT:      -8.1      4.669     10.087
REMARK  Name = 
REMARK  4 active torsions:
REMARK  status: ('A' for Active; 'I' for Inactive)
REMARK    1  A    between atoms: N_3  and  C_4
REMARK    2  A    between atoms: C_6  and  O_7
REMARK    3  A    between atoms: C_10  and  S_11
REMARK    4  A    between atoms: S_11  and  O_14
REMARK                            x       y       z     vdW  Elec       q    Type
REMARK                         _______ _______ _______ _____ _____    ______ ____
ROOT
ATOM      1  C   UNL     1      -0.019  10.187  19.474  0.00  0.00    +0.000 A 
ATOM      2  C   UNL     1      -0.968  10.773  18.637  0.00  0.00    +0.000 A 
ATOM      3  C   UNL     1      -1.907  11.663  19.152  0.00  0.00    +0.000 A 
ATOM      4  C   UNL     1      -1.934  11.988  20.515  0.00  0.00    +0.000 A 
ATOM      5  C   UNL     1      -2.836  12.935  21.030  0.00  0.00    +0.000 A 
ATOM      6  C   UNL     1      -2.820  13.255  22.387  0.00  0.00    +0.000 A 
ATOM      7  C   UNL     1      -1.936  12.622  23.259  0.00  0.00    +0.000 A 
ATOM      8  C   UNL     1      -1.040  11.673  22.756  0.00  0.00    +0.000 A 
ATOM      9  C   UNL     1      -1.016  11.353  21.385  0.00  0.00    +0.000 A 
ATOM     10  C   UNL     1      -0.082  10.438  20.852  0.00  0.00    +0.000 A 
ENDROOT
BRANCH   1  13
ATOM     11  O   UNL     1       2.244  10.918  17.771  0.00  0.00    +0.000 OA
ATOM     12  C   UNL     1       2.059   9.773  18.179  0.00  0.00    +0.000 C 
ATOM     13  N   UNL     1       1.020   9.367  18.982  0.00  0.00    +0.000 N 
ATOM     14  N   UNL     1       2.967   8.835  17.797  0.00  0.00    +0.000 N 
ATOM     15  C   UNL     1       2.949   7.511  18.103  0.00  0.00    +0.000 A 
ATOM     16  N   UNL     1       2.136   6.882  18.912  0.00  0.00    +0.000 NA
ATOM     17  C   UNL     1       2.438   5.530  18.882  0.00  0.00    +0.000 A 
ATOM     18  C   UNL     1       1.778   4.522  19.611  0.00  0.00    +0.000 A 
ATOM     19  C   UNL     1       2.164   3.187  19.456  0.00  0.00    +0.000 A 
ATOM     20  C   UNL     1       3.200   2.853  18.590  0.00  0.00    +0.000 A 
ATOM     21 CL   UNL     1       3.643   1.200  18.399  0.00  0.00    +0.000 Cl
ATOM     22  C   UNL     1       3.888   3.829  17.868  0.00  0.00    +0.000 A 
ATOM     23  C   UNL     1       3.491   5.166  18.034  0.00  0.00    +0.000 A 
ATOM     24  S   UNL     1       4.132   6.589  17.304  0.00  0.00    +0.000 S 
ATOM     25  H   UNL     1       1.113   8.434  19.376  0.00  0.00    +0.000 HD
ATOM     26  H   UNL     1       3.693   9.172  17.184  0.00  0.00    +0.000 HD
ENDBRANCH   1  13
BRANCH   6  27
ATOM     27  S   UNL     1      -3.989  14.434  22.998  0.00  0.00    +0.000 S 
ATOM     28  O   UNL     1      -3.342  15.730  22.996  0.00  0.00    +0.000 OA
ATOM     29  O   UNL     1      -5.246  14.195  22.327  0.00  0.00    +0.000 OA
BRANCH  27  30
ATOM     30  O   UNL     1      -4.159  14.056  24.558  0.00  0.00    +0.000 OA
ATOM     31  H   UNL     1      -3.820  13.143  24.683  0.00  0.00    +0.000 HD
ENDBRANCH  27  30
ENDBRANCH   6  27
BRANCH   3  32
ATOM     32  O   UNL     1      -2.813  12.245  18.303  0.00  0.00    +0.000 OA
ATOM     33  H   UNL     1      -2.938  11.660  17.537  0.00  0.00    +0.000 HD
ENDBRANCH   3  32
TORSDOF 4
ENDMDL
MODEL 6
REMARK VINA RESULT:      -7.9      3.959      5.242
REMARK  Name = 
REMARK  4 active torsions:
REMARK  status: ('A' for Active; 'I' for Inactive)
REMARK    1  A    between atoms: N_3  and  C_4
REMARK    2  A    between atoms: C_6  and  O_7
REMARK    3  A    between atoms: C_10  and  S_11
REMARK    4  A    between atoms: S_11  and  O_14
REMARK                            x       y       z     vdW  Elec       q    Type
REMARK                         _______ _______ _______ _____ _____    ______ ____
ROOT
ATOM      1  C   UNL     1       2.082   8.870  18.736  0.00  0.00    +0.000 A 
ATOM      2  C   UNL     1       2.959   8.508  17.715  0.00  0.00    +0.000 A 
ATOM      3  C   UNL     1       3.451   7.208  17.637  0.00  0.00    +0.000 A 
ATOM      4  C   UNL     1       3.091   6.233  18.578  0.00  0.00    +0.000 A 
ATOM      5  C   UNL     1       3.530   4.903  18.469  0.00  0.00    +0.000 A 
ATOM      6  C   UNL     1       3.134   3.952  19.407  0.00  0.00    +0.000 A 
ATOM      7  C   UNL     1       2.323   4.307  20.485  0.00  0.00    +0.000 A 
ATOM      8  C   UNL     1       1.887   5.631  20.605  0.00  0.00    +0.000 A 
ATOM      9  C   UNL     1       2.250   6.604  19.655  0.00  0.00    +0.000 A 
ATOM     10  C   UNL     1       1.774   7.932  19.732  0.00  0.00    +0.000 A 
ENDROOT
BRANCH   1  13
ATOM     11  O   UNL     1      -0.534   9.696  17.719  0.00  0.00    +0.000 OA
ATOM     12  C   UNL     1       0.234  10.468  18.292  0.00  0.00    +0.000 C 
ATOM     13  N   UNL     1       1.471  10.142  18.793  0.00  0.00    +0.000 N 
ATOM     14  N   UNL     1      -0.188  11.753  18.434  0.00  0.00    +0.000 N 
ATOM     15  C   UNL     1       0.498  12.778  19.005  0.00  0.00    +0.000 A 
ATOM     16  N   UNL     1       1.644  12.729  19.633  0.00  0.00    +0.000 NA
ATOM     17  C   UNL     1       2.003  14.015  20.001  0.00  0.00    +0.000 A 
ATOM     18  C   UNL     1       3.178  14.377  20.688  0.00  0.00    +0.000 A 
ATOM     19  C   UNL     1       3.435  15.724  20.964  0.00  0.00    +0.000 A 
ATOM     20  C   UNL     1       2.532  16.705  20.567  0.00  0.00    +0.000 A 
ATOM     21 CL   UNL     1       2.879  18.358  20.898  0.00  0.00    +0.000 Cl
ATOM     22  C   UNL     1       1.348  16.378  19.902  0.00  0.00    +0.000 A 
ATOM     23  C   UNL     1       1.103  15.022  19.633  0.00  0.00    +0.000 A 
ATOM     24  S   UNL     1      -0.248  14.297  18.847  0.00  0.00    +0.000 S 
ATOM     25  H   UNL     1       1.896  10.845  19.393  0.00  0.00    +0.000 HD
ATOM     26  H   UNL     1      -1.088  11.952  18.024  0.00  0.00    +0.000 HD
ENDBRANCH   1  13
BRANCH   6  27
ATOM     27  S   UNL     1       3.731   2.294  19.246  0.00  0.00    +0.000 S 
ATOM     28  O   UNL     1       4.796   2.119  20.212  0.00  0.00    +0.000 OA
ATOM     29  O   UNL     1       2.583   1.418  19.191  0.00  0.00    +0.000 OA
BRANCH  27  30
ATOM     30  O   UNL     1       4.464   2.272  17.809  0.00  0.00    +0.000 OA
ATOM     31  H   UNL     1       4.780   3.182  17.621  0.00  0.00    +0.000 HD
ENDBRANCH  27  30
ENDBRANCH   6  27
BRANCH   3  32
ATOM     32  O   UNL     1       4.293   6.871  16.608  0.00  0.00    +0.000 OA
ATOM     33  H   UNL     1       3.762   6.499  15.884  0.00  0.00    +0.000 HD
ENDBRANCH   3  32
TORSDOF 4
ENDMDL
MODEL 7
REMARK VINA RESULT:      -7.8      4.957      9.848
REMARK  Name = 
REMARK  4 active torsions:
REMARK  status: ('A' for Active; 'I' for Inactive)
REMARK    1  A    between atoms: N_3  and  C_4
REMARK    2  A    between atoms: C_6  and  O_7
REMARK    3  A    between atoms: C_10  and  S_11
REMARK    4  A    between atoms: S_11  and  O_14
REMARK                            x       y       z     vdW  Elec       q    Type
REMARK                         _______ _______ _______ _____ _____    ______ ____
ROOT
ATOM      1  C   UNL     1       0.773  10.614  19.315  0.00  0.00    +0.000 A 
ATOM      2  C   UNL     1      -0.431  10.832  18.647  0.00  0.00    +0.000 A 
ATOM      3  C   UNL     1      -0.905  12.127  18.454  0.00  0.00    +0.000 A 
ATOM      4  C   UNL     1      -0.199  13.241  18.929  0.00  0.00    +0.000 A 
ATOM      5  C   UNL     1      -0.638  14.553  18.681  0.00  0.00    +0.000 A 
ATOM      6  C   UNL     1       0.101  15.641  19.145  0.00  0.00    +0.000 A 
ATOM      7  C   UNL     1       1.265  15.448  19.887  0.00  0.00    +0.000 A 
ATOM      8  C   UNL     1       1.705  14.146  20.144  0.00  0.00    +0.000 A 
ATOM      9  C   UNL     1       0.993  13.031  19.662  0.00  0.00    +0.000 A 
ATOM     10  C   UNL     1       1.452  11.711  19.867  0.00  0.00    +0.000 A 
ENDROOT
BRANCH   1  13
ATOM     11  O   UNL     1       0.480   8.671  21.482  0.00  0.00    +0.000 OA
ATOM     12  C   UNL     1       1.173   8.463  20.488  0.00  0.00    +0.000 C 
ATOM     13  N   UNL     1       1.349   9.331  19.438  0.00  0.00    +0.000 N 
ATOM     14  N   UNL     1       1.818   7.266  20.434  0.00  0.00    +0.000 N 
ATOM     15  C   UNL     1       2.652   6.832  19.453  0.00  0.00    +0.000 A 
ATOM     16  N   UNL     1       2.922   7.411  18.311  0.00  0.00    +0.000 NA
ATOM     17  C   UNL     1       3.869   6.652  17.643  0.00  0.00    +0.000 A 
ATOM     18  C   UNL     1       4.424   6.951  16.384  0.00  0.00    +0.000 A 
ATOM     19  C   UNL     1       5.404   6.114  15.840  0.00  0.00    +0.000 A 
ATOM     20  C   UNL     1       5.826   4.986  16.535  0.00  0.00    +0.000 A 
ATOM     21 CL   UNL     1       7.048   3.982  15.855  0.00  0.00    +0.000 Cl
ATOM     22  C   UNL     1       5.282   4.650  17.776  0.00  0.00    +0.000 A 
ATOM     23  C   UNL     1       4.298   5.499  18.309  0.00  0.00    +0.000 A 
ATOM     24  S   UNL     1       3.435   5.363  19.794  0.00  0.00    +0.000 S 
ATOM     25  H   UNL     1       1.802   8.935  18.617  0.00  0.00    +0.000 HD
ATOM     26  H   UNL     1       1.683   6.675  21.240  0.00  0.00    +0.000 HD
ENDBRANCH   1  13
BRANCH   6  27
ATOM     27  S   UNL     1      -0.501  17.275  18.832  0.00  0.00    +0.000 S 
ATOM     28  O   UNL     1      -0.064  18.116  19.927  0.00  0.00    +0.000 OA
ATOM     29  O   UNL     1      -0.216  17.591  17.451  0.00  0.00    +0.000 OA
BRANCH  27  30
ATOM     30  O   UNL     1      -2.099  17.154  19.012  0.00  0.00    +0.000 OA
ATOM     31  H   UNL     1      -2.431  16.535  18.326  0.00  0.00    +0.000 HD
ENDBRANCH  27  30
ENDBRANCH   6  27
BRANCH   3  32
ATOM     32  O   UNL     1      -2.079  12.314  17.771  0.00  0.00    +0.000 OA
ATOM     33  H   UNL     1      -2.662  12.878  18.308  0.00  0.00    +0.000 HD
ENDBRANCH   3  32
TORSDOF 4
ENDMDL
MODEL 8
REMARK VINA RESULT:      -7.7      4.500     10.003
REMARK  Name = 
REMARK  4 active torsions:
REMARK  status: ('A' for Active; 'I' for Inactive)
REMARK    1  A    between atoms: N_3  and  C_4
REMARK    2  A    between atoms: C_6  and  O_7
REMARK    3  A    between atoms: C_10  and  S_11
REMARK    4  A    between atoms: S_11  and  O_14
REMARK                            x       y       z     vdW  Elec       q    Type
REMARK                         _______ _______ _______ _____ _____    ______ ____
ROOT
ATOM      1  C   UNL     1       0.357  10.127  19.796  0.00  0.00    +0.000 A 
ATOM      2  C   UNL     1       0.463  10.510  21.132  0.00  0.00    +0.000 A 
ATOM      3  C   UNL     1      -0.537  11.273  21.728  0.00  0.00    +0.000 A 
ATOM      4  C   UNL     1      -1.668  11.684  21.009  0.00  0.00    +0.000 A 
ATOM      5  C   UNL     1      -2.713  12.397  21.620  0.00  0.00    +0.000 A 
ATOM      6  C   UNL     1      -3.837  12.769  20.883  0.00  0.00    +0.000 A 
ATOM      7  C   UNL     1      -3.930  12.468  19.525  0.00  0.00    +0.000 A 
ATOM      8  C   UNL     1      -2.891  11.765  18.906  0.00  0.00    +0.000 A 
ATOM      9  C   UNL     1      -1.759  11.353  19.636  0.00  0.00    +0.000 A 
ATOM     10  C   UNL     1      -0.727  10.595  19.039  0.00  0.00    +0.000 A 
ENDROOT
BRANCH   1  13
ATOM     11  O   UNL     1       2.275  10.714  17.667  0.00  0.00    +0.000 OA
ATOM     12  C   UNL     1       2.165   9.601  18.178  0.00  0.00    +0.000 C 
ATOM     13  N   UNL     1       1.289   9.262  19.181  0.00  0.00    +0.000 N 
ATOM     14  N   UNL     1       2.987   8.627  17.702  0.00  0.00    +0.000 N 
ATOM     15  C   UNL     1       3.024   7.327  18.094  0.00  0.00    +0.000 A 
ATOM     16  N   UNL     1       2.370   6.763  19.077  0.00  0.00    +0.000 NA
ATOM     17  C   UNL     1       2.661   5.408  19.083  0.00  0.00    +0.000 A 
ATOM     18  C   UNL     1       2.143   4.460  19.986  0.00  0.00    +0.000 A 
ATOM     19  C   UNL     1       2.493   3.112  19.854  0.00  0.00    +0.000 A 
ATOM     20  C   UNL     1       3.354   2.708  18.839  0.00  0.00    +0.000 A 
ATOM     21 CL   UNL     1       3.753   1.040  18.683  0.00  0.00    +0.000 Cl
ATOM     22  C   UNL     1       3.901   3.626  17.940  0.00  0.00    +0.000 A 
ATOM     23  C   UNL     1       3.542   4.976  18.086  0.00  0.00    +0.000 A 
ATOM     24  S   UNL     1       4.042   6.339  17.158  0.00  0.00    +0.000 S 
ATOM     25  H   UNL     1       1.451   8.356  19.613  0.00  0.00    +0.000 HD
ATOM     26  H   UNL     1       3.591   8.914  16.947  0.00  0.00    +0.000 HD
ENDBRANCH   1  13
BRANCH   6  27
ATOM     27  S   UNL     1      -5.117  13.688  21.686  0.00  0.00    +0.000 S 
ATOM     28  O   UNL     1      -4.480  14.643  22.568  0.00  0.00    +0.000 OA
ATOM     29  O   UNL     1      -6.072  14.084  20.676  0.00  0.00    +0.000 OA
BRANCH  27  30
ATOM     30  O   UNL     1      -5.820  12.619  22.668  0.00  0.00    +0.000 OA
ATOM     31  H   UNL     1      -5.922  11.778  22.172  0.00  0.00    +0.000 HD
ENDBRANCH  27  30
ENDBRANCH   6  27
BRANCH   3  32
ATOM     32  O   UNL     1      -0.420  11.616  23.050  0.00  0.00    +0.000 OA
ATOM     33  H   UNL     1       0.384  12.151  23.161  0.00  0.00    +0.000 HD
ENDBRANCH   3  32
TORSDOF 4
ENDMDL
MODEL 9
REMARK VINA RESULT:      -7.7      3.557      4.534
REMARK  Name = 
REMARK  4 active torsions:
REMARK  status: ('A' for Active; 'I' for Inactive)
REMARK    1  A    between atoms: N_3  and  C_4
REMARK    2  A    between atoms: C_6  and  O_7
REMARK    3  A    between atoms: C_10  and  S_11
REMARK    4  A    between atoms: S_11  and  O_14
REMARK                            x       y       z     vdW  Elec       q    Type
REMARK                         _______ _______ _______ _____ _____    ______ ____
ROOT
ATOM      1  C   UNL     1       1.689   8.888  19.363  0.00  0.00    +0.000 A 
ATOM      2  C   UNL     1       2.470   8.693  18.225  0.00  0.00    +0.000 A 
ATOM      3  C   UNL     1       3.045   7.451  17.970  0.00  0.00    +0.000 A 
ATOM      4  C   UNL     1       2.866   6.370  18.844  0.00  0.00    +0.000 A 
ATOM      5  C   UNL     1       3.387   5.096  18.559  0.00  0.00    +0.000 A 
ATOM      6  C   UNL     1       3.169   4.035  19.437  0.00  0.00    +0.000 A 
ATOM      7  C   UNL     1       2.461   4.224  20.623  0.00  0.00    +0.000 A 
ATOM      8  C   UNL     1       1.944   5.490  20.918  0.00  0.00    +0.000 A 
ATOM      9  C   UNL     1       2.126   6.571  20.034  0.00  0.00    +0.000 A 
ATOM     10  C   UNL     1       1.565   7.842  20.290  0.00  0.00    +0.000 A 
ENDROOT
BRANCH   1  13
ATOM     11  O   UNL     1      -0.902   9.284  20.663  0.00  0.00    +0.000 OA
ATOM     12  C   UNL     1      -0.226  10.214  20.224  0.00  0.00    +0.000 C 
ATOM     13  N   UNL     1       0.996  10.094  19.608  0.00  0.00    +0.000 N 
ATOM     14  N   UNL     1      -0.743  11.464  20.367  0.00  0.00    +0.000 N 
ATOM     15  C   UNL     1      -0.190  12.629  19.938  0.00  0.00    +0.000 A 
ATOM     16  N   UNL     1       0.992  12.812  19.408  0.00  0.00    +0.000 NA
ATOM     17  C   UNL     1       1.121  14.148  19.065  0.00  0.00    +0.000 A 
ATOM     18  C   UNL     1       2.248  14.737  18.459  0.00  0.00    +0.000 A 
ATOM     19  C   UNL     1       2.229  16.096  18.130  0.00  0.00    +0.000 A 
ATOM     20  C   UNL     1       1.105  16.868  18.405  0.00  0.00    +0.000 A 
ATOM     21 CL   UNL     1       1.096  18.534  17.971  0.00  0.00    +0.000 Cl
ATOM     22  C   UNL     1      -0.021  16.320  19.022  0.00  0.00    +0.000 A 
ATOM     23  C   UNL     1       0.013  14.954  19.348  0.00  0.00    +0.000 A 
ATOM     24  S   UNL     1      -1.193  13.989  20.112  0.00  0.00    +0.000 S 
ATOM     25  H   UNL     1       1.502  10.967  19.471  0.00  0.00    +0.000 HD
ATOM     26  H   UNL     1      -1.655  11.499  20.797  0.00  0.00    +0.000 HD
ENDBRANCH   1  13
BRANCH   6  27
ATOM     27  S   UNL     1       3.865   2.455  19.053  0.00  0.00    +0.000 S 
ATOM     28  O   UNL     1       4.860   2.160  20.063  0.00  0.00    +0.000 OA
ATOM     29  O   UNL     1       2.774   1.555  18.755  0.00  0.00    +0.000 OA
BRANCH  27  30
ATOM     30  O   UNL     1       4.707   2.707  17.700  0.00  0.00    +0.000 OA
ATOM     31  H   UNL     1       4.686   3.670  17.510  0.00  0.00    +0.000 HD
ENDBRANCH  27  30
ENDBRANCH   6  27
BRANCH   3  32
ATOM     32  O   UNL     1       3.788   7.279  16.830  0.00  0.00    +0.000 OA
ATOM     33  H   UNL     1       4.581   7.838  16.892  0.00  0.00    +0.000 HD
ENDBRANCH   3  32
TORSDOF 4
ENDMDL
