MODEL 1
REMARK VINA RESULT:      -9.2      0.000      0.000
REMARK  Name = 
REMARK  7 active torsions:
REMARK  status: ('A' for Active; 'I' for Inactive)
REMARK    1  A    between atoms: C_1  and  N_2
REMARK    2  A    between atoms: N_2  and  C_3
REMARK    3  A    between atoms: C_9  and  C_10
REMARK    4  A    between atoms: C_10  and  C_11
REMARK    5  A    between atoms: C_11  and  O_12
REMARK    6  A    between atoms: C_11  and  C_13
REMARK    7  A    between atoms: C_11  and  C_20
REMARK                            x       y       z     vdW  Elec       q    Type
REMARK                         _______ _______ _______ _____ _____    ______ ____
ROOT
ATOM      1  C   UNL     1       5.297   5.448  16.105  0.00  0.00    +0.000 C 
ENDROOT
BRANCH   1   2
ATOM      2  C   UNL     1       6.409   5.864  17.095  0.00  0.00    +0.000 A 
ATOM      3  C   UNL     1       6.978   4.944  18.014  0.00  0.00    +0.000 A 
ATOM      4  C   UNL     1       7.949   5.348  18.933  0.00  0.00    +0.000 A 
ATOM      5  C   UNL     1       8.367   6.675  18.971  0.00  0.00    +0.000 A 
ATOM      6  C   UNL     1       7.828   7.601  18.076  0.00  0.00    +0.000 A 
ATOM      7  F   UNL     1       8.231   8.896  18.123  0.00  0.00    +0.000 F 
ATOM      8  C   UNL     1       6.864   7.202  17.141  0.00  0.00    +0.000 A 
ENDBRANCH   1   2
BRANCH   1   9
ATOM      9  C   UNL     1       5.998   4.992  14.814  0.00  0.00    +0.000 A 
ATOM     10  C   UNL     1       5.397   3.998  14.013  0.00  0.00    +0.000 A 
ATOM     11  C   UNL     1       5.998   3.571  12.826  0.00  0.00    +0.000 A 
ATOM     12  C   UNL     1       7.207   4.131  12.410  0.00  0.00    +0.000 A 
ATOM     13  C   UNL     1       7.806   5.130  13.175  0.00  0.00    +0.000 A 
ATOM     14  F   UNL     1       8.975   5.685  12.763  0.00  0.00    +0.000 F 
ATOM     15  C   UNL     1       7.213   5.562  14.361  0.00  0.00    +0.000 A 
ENDBRANCH   1   9
BRANCH   1  16
ATOM     16  O   UNL     1       4.527   6.584  15.788  0.00  0.00    +0.000 OA
ATOM     17  H   UNL     1       4.195   6.493  14.860  0.00  0.00    +0.000 HD
ENDBRANCH   1  16
BRANCH   1  18
ATOM     18  C   UNL     1       4.344   4.337  16.713  0.00  0.00    +0.000 C 
BRANCH  18  27
ATOM     19  C   UNL     1       1.982   2.489  21.316  0.00  0.00    +0.000 C 
ATOM     20  N   UNL     1       2.060   3.462  20.178  0.00  0.00    +0.000 N 
ATOM     21  C   UNL     1       0.955   4.428  20.444  0.00  0.00    +0.000 C 
ATOM     22  C   UNL     1       3.424   4.060  20.096  0.00  0.00    +0.000 C 
ATOM     23  C   UNL     1       4.308   2.894  19.594  0.00  0.00    +0.000 C 
ATOM     24  C   UNL     1       3.333   2.018  18.759  0.00  0.00    +0.000 C 
ATOM     25  C   UNL     1       2.006   2.787  18.845  0.00  0.00    +0.000 C 
ATOM     26  C   UNL     1       1.937   3.828  17.657  0.00  0.00    +0.000 C 
ATOM     27  C   UNL     1       3.129   4.839  17.614  0.00  0.00    +0.000 C 
ATOM     28  C   UNL     1       3.457   5.253  19.078  0.00  0.00    +0.000 C 
ENDBRANCH  18  27
ENDBRANCH   1  18
TORSDOF 5
ENDMDL
MODEL 2
REMARK VINA RESULT:      -9.1      0.915      1.304
REMARK  Name = 
REMARK  7 active torsions:
REMARK  status: ('A' for Active; 'I' for Inactive)
REMARK    1  A    between atoms: C_1  and  N_2
REMARK    2  A    between atoms: N_2  and  C_3
REMARK    3  A    between atoms: C_9  and  C_10
REMARK    4  A    between atoms: C_10  and  C_11
REMARK    5  A    between atoms: C_11  and  O_12
REMARK    6  A    between atoms: C_11  and  C_13
REMARK    7  A    between atoms: C_11  and  C_20
REMARK                            x       y       z     vdW  Elec       q    Type
REMARK                         _______ _______ _______ _____ _____    ______ ____
ROOT
ATOM      1  C   UNL     1       5.252   5.390  16.050  0.00  0.00    +0.000 C 
ENDROOT
BRANCH   1   2
ATOM      2  C   UNL     1       6.376   5.802  17.028  0.00  0.00    +0.000 A 
ATOM      3  C   UNL     1       6.966   4.874  17.925  0.00  0.00    +0.000 A 
ATOM      4  C   UNL     1       7.949   5.274  18.834  0.00  0.00    +0.000 A 
ATOM      5  C   UNL     1       8.357   6.603  18.883  0.00  0.00    +0.000 A 
ATOM      6  C   UNL     1       7.797   7.537  18.009  0.00  0.00    +0.000 A 
ATOM      7  F   UNL     1       8.191   8.834  18.066  0.00  0.00    +0.000 F 
ATOM      8  C   UNL     1       6.821   7.142  17.084  0.00  0.00    +0.000 A 
ENDBRANCH   1   2
BRANCH   1   9
ATOM      9  C   UNL     1       5.937   4.925  14.753  0.00  0.00    +0.000 A 
ATOM     10  C   UNL     1       7.194   5.463  14.402  0.00  0.00    +0.000 A 
ATOM     11  C   UNL     1       7.852   5.052  13.240  0.00  0.00    +0.000 A 
ATOM     12  C   UNL     1       7.273   4.092  12.408  0.00  0.00    +0.000 A 
ATOM     13  C   UNL     1       6.043   3.532  12.747  0.00  0.00    +0.000 A 
ATOM     14  F   UNL     1       5.487   2.589  11.945  0.00  0.00    +0.000 F 
ATOM     15  C   UNL     1       5.379   3.937  13.905  0.00  0.00    +0.000 A 
ENDBRANCH   1   9
BRANCH   1  16
ATOM     16  O   UNL     1       4.486   6.530  15.736  0.00  0.00    +0.000 OA
ATOM     17  H   UNL     1       3.530   6.276  15.724  0.00  0.00    +0.000 HD
ENDBRANCH   1  16
BRANCH   1  18
ATOM     18  C   UNL     1       4.297   4.287  16.671  0.00  0.00    +0.000 C 
BRANCH  18  27
ATOM     19  C   UNL     1       2.013   2.498  21.336  0.00  0.00    +0.000 C 
ATOM     20  N   UNL     1       2.071   3.456  20.183  0.00  0.00    +0.000 N 
ATOM     21  C   UNL     1       0.969   4.423  20.454  0.00  0.00    +0.000 C 
ATOM     22  C   UNL     1       3.433   4.055  20.071  0.00  0.00    +0.000 C 
ATOM     23  C   UNL     1       4.311   2.883  19.571  0.00  0.00    +0.000 C 
ATOM     24  C   UNL     1       3.324   1.994  18.764  0.00  0.00    +0.000 C 
ATOM     25  C   UNL     1       1.997   2.763  18.861  0.00  0.00    +0.000 C 
ATOM     26  C   UNL     1       1.908   3.787  17.660  0.00  0.00    +0.000 C 
ATOM     27  C   UNL     1       3.096   4.799  17.584  0.00  0.00    +0.000 C 
ATOM     28  C   UNL     1       3.447   5.234  19.036  0.00  0.00    +0.000 C 
ENDBRANCH  18  27
ENDBRANCH   1  18
TORSDOF 5
ENDMDL
MODEL 3
REMARK VINA RESULT:      -8.6      0.847      1.257
REMARK  Name = 
REMARK  7 active torsions:
REMARK  status: ('A' for Active; 'I' for Inactive)
REMARK    1  A    between atoms: C_1  and  N_2
REMARK    2  A    between atoms: N_2  and  C_3
REMARK    3  A    between atoms: C_9  and  C_10
REMARK    4  A    between atoms: C_10  and  C_11
REMARK    5  A    between atoms: C_11  and  O_12
REMARK    6  A    between atoms: C_11  and  C_13
REMARK    7  A    between atoms: C_11  and  C_20
REMARK                            x       y       z     vdW  Elec       q    Type
REMARK                         _______ _______ _______ _____ _____    ______ ____
ROOT
ATOM      1  C   UNL     1       5.271   5.605  16.174  0.00  0.00    +0.000 C 
ENDROOT
BRANCH   1   2
ATOM      2  C   UNL     1       6.350   6.187  17.117  0.00  0.00    +0.000 A 
ATOM      3  C   UNL     1       6.803   7.527  17.001  0.00  0.00    +0.000 A 
ATOM      4  C   UNL     1       7.810   8.023  17.832  0.00  0.00    +0.000 A 
ATOM      5  C   UNL     1       8.401   7.199  18.784  0.00  0.00    +0.000 A 
ATOM      6  C   UNL     1       7.972   5.877  18.924  0.00  0.00    +0.000 A 
ATOM      7  F   UNL     1       8.556   5.073  19.848  0.00  0.00    +0.000 F 
ATOM      8  C   UNL     1       6.951   5.375  18.105  0.00  0.00    +0.000 A 
ENDBRANCH   1   2
BRANCH   1   9
ATOM      9  C   UNL     1       6.001   5.112  14.913  0.00  0.00    +0.000 A 
ATOM     10  C   UNL     1       5.430   4.077  14.142  0.00  0.00    +0.000 A 
ATOM     11  C   UNL     1       6.057   3.615  12.982  0.00  0.00    +0.000 A 
ATOM     12  C   UNL     1       7.263   4.181  12.563  0.00  0.00    +0.000 A 
ATOM     13  C   UNL     1       7.833   5.219  13.298  0.00  0.00    +0.000 A 
ATOM     14  F   UNL     1       8.998   5.778  12.884  0.00  0.00    +0.000 F 
ATOM     15  C   UNL     1       7.213   5.685  14.458  0.00  0.00    +0.000 A 
ENDBRANCH   1   9
BRANCH   1  16
ATOM     16  O   UNL     1       4.407   6.645  15.782  0.00  0.00    +0.000 OA
ATOM     17  H   UNL     1       3.697   6.742  16.464  0.00  0.00    +0.000 HD
ENDBRANCH   1  16
BRANCH   1  18
ATOM     18  C   UNL     1       4.419   4.467  16.876  0.00  0.00    +0.000 C 
BRANCH  18  27
ATOM     19  C   UNL     1       1.818   2.438  21.270  0.00  0.00    +0.000 C 
ATOM     20  N   UNL     1       1.954   3.455  20.175  0.00  0.00    +0.000 N 
ATOM     21  C   UNL     1       0.831   4.406  20.417  0.00  0.00    +0.000 C 
ATOM     22  C   UNL     1       3.317   4.059  20.190  0.00  0.00    +0.000 C 
ATOM     23  C   UNL     1       4.234   2.916  19.693  0.00  0.00    +0.000 C 
ATOM     24  C   UNL     1       3.309   2.069  18.774  0.00  0.00    +0.000 C 
ATOM     25  C   UNL     1       1.976   2.831  18.816  0.00  0.00    +0.000 C 
ATOM     26  C   UNL     1       1.967   3.915  17.667  0.00  0.00    +0.000 C 
ATOM     27  C   UNL     1       3.154   4.931  17.727  0.00  0.00    +0.000 C 
ATOM     28  C   UNL     1       3.400   5.290  19.221  0.00  0.00    +0.000 C 
ENDBRANCH  18  27
ENDBRANCH   1  18
TORSDOF 5
ENDMDL
MODEL 4
REMARK VINA RESULT:      -8.4      1.054      3.975
REMARK  Name = 
REMARK  7 active torsions:
REMARK  status: ('A' for Active; 'I' for Inactive)
REMARK    1  A    between atoms: C_1  and  N_2
REMARK    2  A    between atoms: N_2  and  C_3
REMARK    3  A    between atoms: C_9  and  C_10
REMARK    4  A    between atoms: C_10  and  C_11
REMARK    5  A    between atoms: C_11  and  O_12
REMARK    6  A    between atoms: C_11  and  C_13
REMARK    7  A    between atoms: C_11  and  C_20
REMARK                            x       y       z     vdW  Elec       q    Type
REMARK                         _______ _______ _______ _____ _____    ______ ____
ROOT
ATOM      1  C   UNL     1       5.635   4.292  16.332  0.00  0.00    +0.000 C 
ENDROOT
BRANCH   1   2
ATOM      2  C   UNL     1       6.119   4.350  14.865  0.00  0.00    +0.000 A 
ATOM      3  C   UNL     1       5.461   3.636  13.829  0.00  0.00    +0.000 A 
ATOM      4  C   UNL     1       5.939   3.664  12.517  0.00  0.00    +0.000 A 
ATOM      5  C   UNL     1       7.086   4.388  12.205  0.00  0.00    +0.000 A 
ATOM      6  C   UNL     1       7.750   5.105  13.203  0.00  0.00    +0.000 A 
ATOM      7  F   UNL     1       8.873   5.802  12.897  0.00  0.00    +0.000 F 
ATOM      8  C   UNL     1       7.269   5.094  14.519  0.00  0.00    +0.000 A 
ENDBRANCH   1   2
BRANCH   1   9
ATOM      9  C   UNL     1       6.495   5.289  17.126  0.00  0.00    +0.000 A 
ATOM     10  C   UNL     1       7.326   4.816  18.164  0.00  0.00    +0.000 A 
ATOM     11  C   UNL     1       8.132   5.692  18.895  0.00  0.00    +0.000 A 
ATOM     12  C   UNL     1       8.131   7.057  18.601  0.00  0.00    +0.000 A 
ATOM     13  C   UNL     1       7.336   7.542  17.566  0.00  0.00    +0.000 A 
ATOM     14  F   UNL     1       7.345   8.868  17.272  0.00  0.00    +0.000 F 
ATOM     15  C   UNL     1       6.527   6.675  16.831  0.00  0.00    +0.000 A 
ENDBRANCH   1   9
BRANCH   1  16
ATOM     16  O   UNL     1       5.901   3.006  16.843  0.00  0.00    +0.000 OA
ATOM     17  H   UNL     1       5.668   2.993  17.805  0.00  0.00    +0.000 HD
ENDBRANCH   1  16
BRANCH   1  18
ATOM     18  C   UNL     1       4.081   4.582  16.458  0.00  0.00    +0.000 C 
BRANCH  18  27
ATOM     19  C   UNL     1       1.338   2.724  20.841  0.00  0.00    +0.000 C 
ATOM     20  N   UNL     1       1.995   3.833  20.074  0.00  0.00    +0.000 N 
ATOM     21  C   UNL     1       1.853   5.026  20.958  0.00  0.00    +0.000 C 
ATOM     22  C   UNL     1       3.397   3.464  19.721  0.00  0.00    +0.000 C 
ATOM     23  C   UNL     1       3.229   2.370  18.640  0.00  0.00    +0.000 C 
ATOM     24  C   UNL     1       1.876   2.720  17.961  0.00  0.00    +0.000 C 
ATOM     25  C   UNL     1       1.428   3.990  18.699  0.00  0.00    +0.000 C 
ATOM     26  C   UNL     1       2.021   5.253  17.956  0.00  0.00    +0.000 C 
ATOM     27  C   UNL     1       3.578   5.249  17.815  0.00  0.00    +0.000 C 
ATOM     28  C   UNL     1       4.176   4.695  19.141  0.00  0.00    +0.000 C 
ENDBRANCH  18  27
ENDBRANCH   1  18
TORSDOF 5
ENDMDL
MODEL 5
REMARK VINA RESULT:      -8.4      1.368      4.288
REMARK  Name = 
REMARK  7 active torsions:
REMARK  status: ('A' for Active; 'I' for Inactive)
REMARK    1  A    between atoms: C_1  and  N_2
REMARK    2  A    between atoms: N_2  and  C_3
REMARK    3  A    between atoms: C_9  and  C_10
REMARK    4  A    between atoms: C_10  and  C_11
REMARK    5  A    between atoms: C_11  and  O_12
REMARK    6  A    between atoms: C_11  and  C_13
REMARK    7  A    between atoms: C_11  and  C_20
REMARK                            x       y       z     vdW  Elec       q    Type
REMARK                         _______ _______ _______ _____ _____    ______ ____
ROOT
ATOM      1  C   UNL     1       5.654   4.181  16.069  0.00  0.00    +0.000 C 
ENDROOT
BRANCH   1   2
ATOM      2  C   UNL     1       6.173   4.306  14.618  0.00  0.00    +0.000 A 
ATOM      3  C   UNL     1       5.567   3.605  13.542  0.00  0.00    +0.000 A 
ATOM      4  C   UNL     1       6.076   3.694  12.245  0.00  0.00    +0.000 A 
ATOM      5  C   UNL     1       7.205   4.467  11.987  0.00  0.00    +0.000 A 
ATOM      6  C   UNL     1       7.819   5.171  13.026  0.00  0.00    +0.000 A 
ATOM      7  F   UNL     1       8.924   5.916  12.773  0.00  0.00    +0.000 F 
ATOM      8  C   UNL     1       7.305   5.100  14.328  0.00  0.00    +0.000 A 
ENDBRANCH   1   2
BRANCH   1   9
ATOM      9  C   UNL     1       6.484   5.153  16.925  0.00  0.00    +0.000 A 
ATOM     10  C   UNL     1       6.426   6.537  16.656  0.00  0.00    +0.000 A 
ATOM     11  C   UNL     1       7.154   7.450  17.422  0.00  0.00    +0.000 A 
ATOM     12  C   UNL     1       7.951   7.002  18.477  0.00  0.00    +0.000 A 
ATOM     13  C   UNL     1       8.006   5.641  18.775  0.00  0.00    +0.000 A 
ATOM     14  F   UNL     1       8.770   5.207  19.809  0.00  0.00    +0.000 F 
ATOM     15  C   UNL     1       7.282   4.723  18.013  0.00  0.00    +0.000 A 
ENDBRANCH   1   9
BRANCH   1  16
ATOM     16  O   UNL     1       5.922   2.878  16.533  0.00  0.00    +0.000 OA
ATOM     17  H   UNL     1       6.712   2.526  16.051  0.00  0.00    +0.000 HD
ENDBRANCH   1  16
BRANCH   1  18
ATOM     18  C   UNL     1       4.095   4.450  16.169  0.00  0.00    +0.000 C 
BRANCH  18  27
ATOM     19  C   UNL     1       1.840   4.816  21.166  0.00  0.00    +0.000 C 
ATOM     20  N   UNL     1       2.161   4.042  19.921  0.00  0.00    +0.000 N 
ATOM     21  C   UNL     1       1.528   2.711  20.144  0.00  0.00    +0.000 C 
ATOM     22  C   UNL     1       1.691   4.780  18.713  0.00  0.00    +0.000 C 
ATOM     23  C   UNL     1       2.660   5.982  18.614  0.00  0.00    +0.000 C 
ATOM     24  C   UNL     1       3.972   5.457  19.260  0.00  0.00    +0.000 C 
ATOM     25  C   UNL     1       3.628   4.007  19.633  0.00  0.00    +0.000 C 
ATOM     26  C   UNL     1       3.968   3.068  18.408  0.00  0.00    +0.000 C 
ATOM     27  C   UNL     1       3.245   3.454  17.077  0.00  0.00    +0.000 C 
ATOM     28  C   UNL     1       1.792   3.884  17.430  0.00  0.00    +0.000 C 
ENDBRANCH  18  27
ENDBRANCH   1  18
TORSDOF 5
ENDMDL
MODEL 6
REMARK VINA RESULT:      -8.4      1.292      4.081
REMARK  Name = 
REMARK  7 active torsions:
REMARK  status: ('A' for Active; 'I' for Inactive)
REMARK    1  A    between atoms: C_1  and  N_2
REMARK    2  A    between atoms: N_2  and  C_3
REMARK    3  A    between atoms: C_9  and  C_10
REMARK    4  A    between atoms: C_10  and  C_11
REMARK    5  A    between atoms: C_11  and  O_12
REMARK    6  A    between atoms: C_11  and  C_13
REMARK    7  A    between atoms: C_11  and  C_20
REMARK                            x       y       z     vdW  Elec       q    Type
REMARK                         _______ _______ _______ _____ _____    ______ ____
ROOT
ATOM      1  C   UNL     1       5.605   4.225  16.260  0.00  0.00    +0.000 C 
ENDROOT
BRANCH   1   2
ATOM      2  C   UNL     1       6.077   4.295  14.790  0.00  0.00    +0.000 A 
ATOM      3  C   UNL     1       5.420   3.578  13.756  0.00  0.00    +0.000 A 
ATOM      4  C   UNL     1       5.888   3.617  12.440  0.00  0.00    +0.000 A 
ATOM      5  C   UNL     1       7.025   4.354  12.123  0.00  0.00    +0.000 A 
ATOM      6  C   UNL     1       7.689   5.073  13.119  0.00  0.00    +0.000 A 
ATOM      7  F   UNL     1       8.802   5.783  12.808  0.00  0.00    +0.000 F 
ATOM      8  C   UNL     1       7.218   5.052  14.439  0.00  0.00    +0.000 A 
ENDBRANCH   1   2
BRANCH   1   9
ATOM      9  C   UNL     1       6.469   5.219  17.054  0.00  0.00    +0.000 A 
ATOM     10  C   UNL     1       6.431   6.590  16.722  0.00  0.00    +0.000 A 
ATOM     11  C   UNL     1       7.190   7.523  17.432  0.00  0.00    +0.000 A 
ATOM     12  C   UNL     1       7.999   7.109  18.492  0.00  0.00    +0.000 A 
ATOM     13  C   UNL     1       8.034   5.763  18.852  0.00  0.00    +0.000 A 
ATOM     14  F   UNL     1       8.809   5.363  19.891  0.00  0.00    +0.000 F 
ATOM     15  C   UNL     1       7.279   4.825  18.147  0.00  0.00    +0.000 A 
ENDBRANCH   1   9
BRANCH   1  16
ATOM     16  O   UNL     1       5.878   2.936  16.760  0.00  0.00    +0.000 OA
ATOM     17  H   UNL     1       5.636   2.270  16.070  0.00  0.00    +0.000 HD
ENDBRANCH   1  16
BRANCH   1  18
ATOM     18  C   UNL     1       4.052   4.510  16.401  0.00  0.00    +0.000 C 
BRANCH  18  27
ATOM     19  C   UNL     1       1.378   2.674  20.835  0.00  0.00    +0.000 C 
ATOM     20  N   UNL     1       2.017   3.780  20.049  0.00  0.00    +0.000 N 
ATOM     21  C   UNL     1       1.876   4.980  20.923  0.00  0.00    +0.000 C 
ATOM     22  C   UNL     1       3.416   3.419  19.682  0.00  0.00    +0.000 C 
ATOM     23  C   UNL     1       3.244   2.313  18.614  0.00  0.00    +0.000 C 
ATOM     24  C   UNL     1       1.880   2.646  17.948  0.00  0.00    +0.000 C 
ATOM     25  C   UNL     1       1.431   3.920  18.680  0.00  0.00    +0.000 C 
ATOM     26  C   UNL     1       2.005   5.180  17.917  0.00  0.00    +0.000 C 
ATOM     27  C   UNL     1       3.560   5.187  17.756  0.00  0.00    +0.000 C 
ATOM     28  C   UNL     1       4.179   4.650  19.080  0.00  0.00    +0.000 C 
ENDBRANCH  18  27
ENDBRANCH   1  18
TORSDOF 5
ENDMDL
MODEL 7
REMARK VINA RESULT:      -8.4      1.138      4.184
REMARK  Name = 
REMARK  7 active torsions:
REMARK  status: ('A' for Active; 'I' for Inactive)
REMARK    1  A    between atoms: C_1  and  N_2
REMARK    2  A    between atoms: N_2  and  C_3
REMARK    3  A    between atoms: C_9  and  C_10
REMARK    4  A    between atoms: C_10  and  C_11
REMARK    5  A    between atoms: C_11  and  O_12
REMARK    6  A    between atoms: C_11  and  C_13
REMARK    7  A    between atoms: C_11  and  C_20
REMARK                            x       y       z     vdW  Elec       q    Type
REMARK                         _______ _______ _______ _____ _____    ______ ____
ROOT
ATOM      1  C   UNL     1       5.676   4.208  16.089  0.00  0.00    +0.000 C 
ENDROOT
BRANCH   1   2
ATOM      2  C   UNL     1       6.217   4.349  14.648  0.00  0.00    +0.000 A 
ATOM      3  C   UNL     1       5.630   3.658  13.555  0.00  0.00    +0.000 A 
ATOM      4  C   UNL     1       6.160   3.762  12.267  0.00  0.00    +0.000 A 
ATOM      5  C   UNL     1       7.291   4.539  12.036  0.00  0.00    +0.000 A 
ATOM      6  C   UNL     1       7.887   5.233  13.091  0.00  0.00    +0.000 A 
ATOM      7  F   UNL     1       8.995   5.983  12.863  0.00  0.00    +0.000 F 
ATOM      8  C   UNL     1       7.353   5.148  14.384  0.00  0.00    +0.000 A 
ENDBRANCH   1   2
BRANCH   1   9
ATOM      9  C   UNL     1       6.497   5.165  16.970  0.00  0.00    +0.000 A 
ATOM     10  C   UNL     1       7.310   4.638  17.996  0.00  0.00    +0.000 A 
ATOM     11  C   UNL     1       8.081   5.477  18.804  0.00  0.00    +0.000 A 
ATOM     12  C   UNL     1       8.062   6.858  18.602  0.00  0.00    +0.000 A 
ATOM     13  C   UNL     1       7.284   7.398  17.579  0.00  0.00    +0.000 A 
ATOM     14  F   UNL     1       7.277   8.740  17.374  0.00  0.00    +0.000 F 
ATOM     15  C   UNL     1       6.511   6.567  16.768  0.00  0.00    +0.000 A 
ENDBRANCH   1   9
BRANCH   1  16
ATOM     16  O   UNL     1       5.930   2.898  16.540  0.00  0.00    +0.000 OA
ATOM     17  H   UNL     1       5.443   2.755  17.389  0.00  0.00    +0.000 HD
ENDBRANCH   1  16
BRANCH   1  18
ATOM     18  C   UNL     1       4.117   4.484  16.169  0.00  0.00    +0.000 C 
BRANCH  18  27
ATOM     19  C   UNL     1       1.802   4.723  21.146  0.00  0.00    +0.000 C 
ATOM     20  N   UNL     1       2.131   3.984  19.883  0.00  0.00    +0.000 N 
ATOM     21  C   UNL     1       1.482   2.653  20.057  0.00  0.00    +0.000 C 
ATOM     22  C   UNL     1       1.683   4.762  18.692  0.00  0.00    +0.000 C 
ATOM     23  C   UNL     1       2.666   5.956  18.640  0.00  0.00    +0.000 C 
ATOM     24  C   UNL     1       3.965   5.400  19.287  0.00  0.00    +0.000 C 
ATOM     25  C   UNL     1       3.601   3.943  19.611  0.00  0.00    +0.000 C 
ATOM     26  C   UNL     1       3.947   3.037  18.363  0.00  0.00    +0.000 C 
ATOM     27  C   UNL     1       3.246   3.469  17.035  0.00  0.00    +0.000 C 
ATOM     28  C   UNL     1       1.792   3.904  17.383  0.00  0.00    +0.000 C 
ENDBRANCH  18  27
ENDBRANCH   1  18
TORSDOF 5
ENDMDL
MODEL 8
REMARK VINA RESULT:      -8.3      1.237      1.804
REMARK  Name = 
REMARK  7 active torsions:
REMARK  status: ('A' for Active; 'I' for Inactive)
REMARK    1  A    between atoms: C_1  and  N_2
REMARK    2  A    between atoms: N_2  and  C_3
REMARK    3  A    between atoms: C_9  and  C_10
REMARK    4  A    between atoms: C_10  and  C_11
REMARK    5  A    between atoms: C_11  and  O_12
REMARK    6  A    between atoms: C_11  and  C_13
REMARK    7  A    between atoms: C_11  and  C_20
REMARK                            x       y       z     vdW  Elec       q    Type
REMARK                         _______ _______ _______ _____ _____    ______ ____
ROOT
ATOM      1  C   UNL     1       5.228   5.447  16.122  0.00  0.00    +0.000 C 
ENDROOT
BRANCH   1   2
ATOM      2  C   UNL     1       6.310   6.044  17.051  0.00  0.00    +0.000 A 
ATOM      3  C   UNL     1       6.756   7.385  16.919  0.00  0.00    +0.000 A 
ATOM      4  C   UNL     1       7.766   7.895  17.737  0.00  0.00    +0.000 A 
ATOM      5  C   UNL     1       8.367   7.083  18.694  0.00  0.00    +0.000 A 
ATOM      6  C   UNL     1       7.946   5.760  18.851  0.00  0.00    +0.000 A 
ATOM      7  F   UNL     1       8.540   4.969  19.779  0.00  0.00    +0.000 F 
ATOM      8  C   UNL     1       6.922   5.245  18.044  0.00  0.00    +0.000 A 
ENDBRANCH   1   2
BRANCH   1   9
ATOM      9  C   UNL     1       5.940   5.017  14.828  0.00  0.00    +0.000 A 
ATOM     10  C   UNL     1       7.187   5.591  14.499  0.00  0.00    +0.000 A 
ATOM     11  C   UNL     1       7.868   5.212  13.339  0.00  0.00    +0.000 A 
ATOM     12  C   UNL     1       7.323   4.250  12.487  0.00  0.00    +0.000 A 
ATOM     13  C   UNL     1       6.104   3.654  12.805  0.00  0.00    +0.000 A 
ATOM     14  F   UNL     1       5.581   2.709  11.984  0.00  0.00    +0.000 F 
ATOM     15  C   UNL     1       5.417   4.027  13.960  0.00  0.00    +0.000 A 
ENDBRANCH   1   9
BRANCH   1  16
ATOM     16  O   UNL     1       4.314   6.464  15.783  0.00  0.00    +0.000 OA
ATOM     17  H   UNL     1       3.730   6.135  15.055  0.00  0.00    +0.000 HD
ENDBRANCH   1  16
BRANCH   1  18
ATOM     18  C   UNL     1       4.439   4.259  16.814  0.00  0.00    +0.000 C 
BRANCH  18  27
ATOM     19  C   UNL     1       2.097   2.545  21.479  0.00  0.00    +0.000 C 
ATOM     20  N   UNL     1       2.090   3.383  20.235  0.00  0.00    +0.000 N 
ATOM     21  C   UNL     1       0.820   4.158  20.321  0.00  0.00    +0.000 C 
ATOM     22  C   UNL     1       3.334   4.202  20.151  0.00  0.00    +0.000 C 
ATOM     23  C   UNL     1       4.440   3.164  19.844  0.00  0.00    +0.000 C 
ATOM     24  C   UNL     1       3.693   2.040  19.074  0.00  0.00    +0.000 C 
ATOM     25  C   UNL     1       2.251   2.564  18.994  0.00  0.00    +0.000 C 
ATOM     26  C   UNL     1       2.093   3.436  17.685  0.00  0.00    +0.000 C 
ATOM     27  C   UNL     1       3.093   4.633  17.580  0.00  0.00    +0.000 C 
ATOM     28  C   UNL     1       3.237   5.260  18.998  0.00  0.00    +0.000 C 
ENDBRANCH  18  27
ENDBRANCH   1  18
TORSDOF 5
ENDMDL
MODEL 9
REMARK VINA RESULT:      -8.2      1.606      4.349
REMARK  Name = 
REMARK  7 active torsions:
REMARK  status: ('A' for Active; 'I' for Inactive)
REMARK    1  A    between atoms: C_1  and  N_2
REMARK    2  A    between atoms: N_2  and  C_3
REMARK    3  A    between atoms: C_9  and  C_10
REMARK    4  A    between atoms: C_10  and  C_11
REMARK    5  A    between atoms: C_11  and  O_12
REMARK    6  A    between atoms: C_11  and  C_13
REMARK    7  A    between atoms: C_11  and  C_20
REMARK                            x       y       z     vdW  Elec       q    Type
REMARK                         _______ _______ _______ _____ _____    ______ ____
ROOT
ATOM      1  C   UNL     1       5.583   4.209  16.314  0.00  0.00    +0.000 C 
ENDROOT
BRANCH   1   2
ATOM      2  C   UNL     1       6.080   4.221  14.850  0.00  0.00    +0.000 A 
ATOM      3  C   UNL     1       7.240   4.940  14.458  0.00  0.00    +0.000 A 
ATOM      4  C   UNL     1       7.649   4.977  13.123  0.00  0.00    +0.000 A 
ATOM      5  C   UNL     1       6.911   4.316  12.146  0.00  0.00    +0.000 A 
ATOM      6  C   UNL     1       5.769   3.597  12.503  0.00  0.00    +0.000 A 
ATOM      7  F   UNL     1       5.047   2.961  11.547  0.00  0.00    +0.000 F 
ATOM      8  C   UNL     1       5.359   3.542  13.842  0.00  0.00    +0.000 A 
ENDBRANCH   1   2
BRANCH   1   9
ATOM      9  C   UNL     1       6.456   5.210  17.090  0.00  0.00    +0.000 A 
ATOM     10  C   UNL     1       6.422   6.577  16.740  0.00  0.00    +0.000 A 
ATOM     11  C   UNL     1       7.191   7.515  17.433  0.00  0.00    +0.000 A 
ATOM     12  C   UNL     1       8.004   7.111  18.494  0.00  0.00    +0.000 A 
ATOM     13  C   UNL     1       8.035   5.769  18.870  0.00  0.00    +0.000 A 
ATOM     14  F   UNL     1       8.815   5.379  19.910  0.00  0.00    +0.000 F 
ATOM     15  C   UNL     1       7.271   4.826  18.183  0.00  0.00    +0.000 A 
ENDBRANCH   1   9
BRANCH   1  16
ATOM     16  O   UNL     1       5.819   2.932  16.859  0.00  0.00    +0.000 OA
ATOM     17  H   UNL     1       6.460   2.453  16.278  0.00  0.00    +0.000 HD
ENDBRANCH   1  16
BRANCH   1  18
ATOM     18  C   UNL     1       4.034   4.533  16.419  0.00  0.00    +0.000 C 
BRANCH  18  27
ATOM     19  C   UNL     1       1.360   2.720  20.863  0.00  0.00    +0.000 C 
ATOM     20  N   UNL     1       1.990   3.824  20.066  0.00  0.00    +0.000 N 
ATOM     21  C   UNL     1       1.832   5.033  20.926  0.00  0.00    +0.000 C 
ATOM     22  C   UNL     1       3.396   3.474  19.710  0.00  0.00    +0.000 C 
ATOM     23  C   UNL     1       3.241   2.353  18.655  0.00  0.00    +0.000 C 
ATOM     24  C   UNL     1       1.876   2.664  17.978  0.00  0.00    +0.000 C 
ATOM     25  C   UNL     1       1.410   3.941  18.693  0.00  0.00    +0.000 C 
ATOM     26  C   UNL     1       1.973   5.198  17.918  0.00  0.00    +0.000 C 
ATOM     27  C   UNL     1       3.528   5.220  17.764  0.00  0.00    +0.000 C 
ATOM     28  C   UNL     1       4.147   4.707  19.097  0.00  0.00    +0.000 C 
ENDBRANCH  18  27
ENDBRANCH   1  18
TORSDOF 5
ENDMDL
