MODEL 1
REMARK VINA RESULT:      -7.4      0.000      0.000
REMARK  Name = 
REMARK  5 active torsions:
REMARK  status: ('A' for Active; 'I' for Inactive)
REMARK    1  A    between atoms: C_1  and  O_2
REMARK    2  A    between atoms: O_2  and  C_3
REMARK    3  A    between atoms: C_6  and  O_7
REMARK    4  A    between atoms: O_7  and  C_8
REMARK    5  A    between atoms: C_21  and  N_22
REMARK                            x       y       z     vdW  Elec       q    Type
REMARK                         _______ _______ _______ _____ _____    ______ ____
ROOT
ATOM      1  C   UNL     1       4.622   5.801  18.452  0.00  0.00    +0.000 C 
ATOM      2  C   UNL     1       3.541   6.578  18.615  0.00  0.00    +0.000 C 
ATOM      3 CL   UNL     1       3.406   8.110  17.809  0.00  0.00    +0.000 Cl
ATOM      4  C   UNL     1       2.383   6.194  19.463  0.00  0.00    +0.000 C 
ATOM      5  O   UNL     1       1.427   6.934  19.658  0.00  0.00    +0.000 OA
ATOM      6  C   UNL     1       2.389   4.837  20.032  0.00  0.00    +0.000 A 
ATOM      7  C   UNL     1       1.250   4.358  20.694  0.00  0.00    +0.000 A 
ATOM      8  C   UNL     1       1.239   3.066  21.218  0.00  0.00    +0.000 A 
ATOM      9  C   UNL     1       2.361   2.248  21.079  0.00  0.00    +0.000 A 
ATOM     10  C   UNL     1       3.500   2.729  20.429  0.00  0.00    +0.000 A 
ATOM     11  C   UNL     1       3.516   4.031  19.909  0.00  0.00    +0.000 A 
ATOM     12  C   UNL     1       4.736   4.543  19.253  0.00  0.00    +0.000 C 
ATOM     13  O   UNL     1       5.787   3.932  19.395  0.00  0.00    +0.000 OA
ENDROOT
BRANCH   1  14
ATOM     14  O   UNL     1       5.635   6.237  17.599  0.00  0.00    +0.000 OA
BRANCH  14  18
ATOM     15  C   UNL     1       6.276   4.241  13.990  0.00  0.00    +0.000 A 
ATOM     16  C   UNL     1       5.180   5.074  14.193  0.00  0.00    +0.000 A 
ATOM     17  C   UNL     1       5.035   5.738  15.411  0.00  0.00    +0.000 A 
ATOM     18  C   UNL     1       5.977   5.584  16.439  0.00  0.00    +0.000 A 
ATOM     19  C   UNL     1       7.083   4.739  16.261  0.00  0.00    +0.000 A 
ATOM     20  C   UNL     1       7.205   4.075  15.025  0.00  0.00    +0.000 A 
BRANCH  19  21
ATOM     21  N   UNL     1       7.925   4.310  17.301  0.00  0.00    +0.000 N 
ATOM     22  H   UNL     1       7.536   4.336  18.229  0.00  0.00    +0.000 HD
ATOM     23  H   UNL     1       8.849   4.732  17.256  0.00  0.00    +0.000 HD
ENDBRANCH  19  21
BRANCH  15  25
ATOM     24  C   UNL     1       5.432   3.202  12.028  0.00  0.00    +0.000 C 
ATOM     25  O   UNL     1       6.540   3.518  12.860  0.00  0.00    +0.000 OA
ENDBRANCH  15  25
ENDBRANCH  14  18
ENDBRANCH   1  14
TORSDOF 4
ENDMDL
MODEL 2
REMARK VINA RESULT:      -6.8      2.998      4.165
REMARK  Name = 
REMARK  5 active torsions:
REMARK  status: ('A' for Active; 'I' for Inactive)
REMARK    1  A    between atoms: C_1  and  O_2
REMARK    2  A    between atoms: O_2  and  C_3
REMARK    3  A    between atoms: C_6  and  O_7
REMARK    4  A    between atoms: O_7  and  C_8
REMARK    5  A    between atoms: C_21  and  N_22
REMARK                            x       y       z     vdW  Elec       q    Type
REMARK                         _______ _______ _______ _____ _____    ______ ____
ROOT
ATOM      1  C   UNL     1       5.161   4.205  18.061  0.00  0.00    +0.000 C 
ATOM      2  C   UNL     1       4.404   3.875  17.003  0.00  0.00    +0.000 C 
ATOM      3 CL   UNL     1       5.071   3.833  15.400  0.00  0.00    +0.000 Cl
ATOM      4  C   UNL     1       2.970   3.505  17.113  0.00  0.00    +0.000 C 
ATOM      5  O   UNL     1       2.268   3.267  16.138  0.00  0.00    +0.000 OA
ATOM      6  C   UNL     1       2.413   3.374  18.468  0.00  0.00    +0.000 A 
ATOM      7  C   UNL     1       1.119   2.862  18.639  0.00  0.00    +0.000 A 
ATOM      8  C   UNL     1       0.590   2.713  19.921  0.00  0.00    +0.000 A 
ATOM      9  C   UNL     1       1.352   3.070  21.033  0.00  0.00    +0.000 A 
ATOM     10  C   UNL     1       2.637   3.590  20.864  0.00  0.00    +0.000 A 
ATOM     11  C   UNL     1       3.167   3.748  19.575  0.00  0.00    +0.000 A 
ATOM     12  C   UNL     1       4.513   4.331  19.403  0.00  0.00    +0.000 C 
ATOM     13  O   UNL     1       5.040   4.898  20.351  0.00  0.00    +0.000 OA
ENDROOT
BRANCH   1  14
ATOM     14  O   UNL     1       6.509   4.493  17.852  0.00  0.00    +0.000 OA
BRANCH  14  18
ATOM     15  C   UNL     1       8.141   8.332  17.959  0.00  0.00    +0.000 A 
ATOM     16  C   UNL     1       7.322   7.903  16.920  0.00  0.00    +0.000 A 
ATOM     17  C   UNL     1       6.781   6.617  16.954  0.00  0.00    +0.000 A 
ATOM     18  C   UNL     1       7.047   5.746  18.021  0.00  0.00    +0.000 A 
ATOM     19  C   UNL     1       7.881   6.154  19.074  0.00  0.00    +0.000 A 
ATOM     20  C   UNL     1       8.419   7.453  19.014  0.00  0.00    +0.000 A 
BRANCH  19  21
ATOM     21  N   UNL     1       8.420   5.284  20.037  0.00  0.00    +0.000 N 
ATOM     22  H   UNL     1       8.532   4.324  19.757  0.00  0.00    +0.000 HD
ATOM     23  H   UNL     1       7.967   5.374  20.943  0.00  0.00    +0.000 HD
ENDBRANCH  19  21
BRANCH  15  25
ATOM     24  C   UNL     1       9.166   9.962  19.350  0.00  0.00    +0.000 C 
ATOM     25  O   UNL     1       8.751   9.553  18.053  0.00  0.00    +0.000 OA
ENDBRANCH  15  25
ENDBRANCH  14  18
ENDBRANCH   1  14
TORSDOF 4
ENDMDL
MODEL 3
REMARK VINA RESULT:      -6.5      3.255      6.636
REMARK  Name = 
REMARK  5 active torsions:
REMARK  status: ('A' for Active; 'I' for Inactive)
REMARK    1  A    between atoms: C_1  and  O_2
REMARK    2  A    between atoms: O_2  and  C_3
REMARK    3  A    between atoms: C_6  and  O_7
REMARK    4  A    between atoms: O_7  and  C_8
REMARK    5  A    between atoms: C_21  and  N_22
REMARK                            x       y       z     vdW  Elec       q    Type
REMARK                         _______ _______ _______ _____ _____    ______ ____
ROOT
ATOM      1  C   UNL     1       3.617   5.623  18.644  0.00  0.00    +0.000 C 
ATOM      2  C   UNL     1       2.903   4.603  18.144  0.00  0.00    +0.000 C 
ATOM      3 CL   UNL     1       1.331   4.216  18.772  0.00  0.00    +0.000 Cl
ATOM      4  C   UNL     1       3.376   3.752  17.023  0.00  0.00    +0.000 C 
ATOM      5  O   UNL     1       2.748   2.784  16.613  0.00  0.00    +0.000 OA
ATOM      6  C   UNL     1       4.629   4.148  16.361  0.00  0.00    +0.000 A 
ATOM      7  C   UNL     1       5.034   3.489  15.192  0.00  0.00    +0.000 A 
ATOM      8  C   UNL     1       6.208   3.872  14.546  0.00  0.00    +0.000 A 
ATOM      9  C   UNL     1       6.977   4.916  15.060  0.00  0.00    +0.000 A 
ATOM     10  C   UNL     1       6.580   5.566  16.231  0.00  0.00    +0.000 A 
ATOM     11  C   UNL     1       5.403   5.176  16.887  0.00  0.00    +0.000 A 
ATOM     12  C   UNL     1       5.009   5.846  18.142  0.00  0.00    +0.000 C 
ATOM     13  O   UNL     1       5.827   6.544  18.726  0.00  0.00    +0.000 OA
ENDROOT
BRANCH   1  14
ATOM     14  O   UNL     1       3.061   6.388  19.669  0.00  0.00    +0.000 OA
BRANCH  14  18
ATOM     15  C   UNL     1       0.941   9.842  18.673  0.00  0.00    +0.000 A 
ATOM     16  C   UNL     1       1.653   9.110  17.729  0.00  0.00    +0.000 A 
ATOM     17  C   UNL     1       2.319   7.946  18.116  0.00  0.00    +0.000 A 
ATOM     18  C   UNL     1       2.282   7.497  19.444  0.00  0.00    +0.000 A 
ATOM     19  C   UNL     1       1.580   8.227  20.417  0.00  0.00    +0.000 A 
ATOM     20  C   UNL     1       0.922   9.400  20.003  0.00  0.00    +0.000 A 
BRANCH  19  21
ATOM     21  N   UNL     1       1.701   8.017  21.801  0.00  0.00    +0.000 N 
ATOM     22  H   UNL     1       1.665   7.061  22.112  0.00  0.00    +0.000 HD
ATOM     23  H   UNL     1       1.092   8.625  22.343  0.00  0.00    +0.000 HD
ENDBRANCH  19  21
BRANCH  15  25
ATOM     24  C   UNL     1      -0.938  11.199  19.189  0.00  0.00    +0.000 C 
ATOM     25  O   UNL     1       0.257  11.003  18.444  0.00  0.00    +0.000 OA
ENDBRANCH  15  25
ENDBRANCH  14  18
ENDBRANCH   1  14
TORSDOF 4
ENDMDL
MODEL 4
REMARK VINA RESULT:      -6.5      2.228      3.238
REMARK  Name = 
REMARK  5 active torsions:
REMARK  status: ('A' for Active; 'I' for Inactive)
REMARK    1  A    between atoms: C_1  and  O_2
REMARK    2  A    between atoms: O_2  and  C_3
REMARK    3  A    between atoms: C_6  and  O_7
REMARK    4  A    between atoms: O_7  and  C_8
REMARK    5  A    between atoms: C_21  and  N_22
REMARK                            x       y       z     vdW  Elec       q    Type
REMARK                         _______ _______ _______ _____ _____    ______ ____
ROOT
ATOM      1  C   UNL     1       3.518   4.227  18.380  0.00  0.00    +0.000 C 
ATOM      2  C   UNL     1       2.888   3.617  19.395  0.00  0.00    +0.000 C 
ATOM      3 CL   UNL     1       3.124   1.925  19.710  0.00  0.00    +0.000 Cl
ATOM      4  C   UNL     1       1.974   4.324  20.327  0.00  0.00    +0.000 C 
ATOM      5  O   UNL     1       1.353   3.749  21.213  0.00  0.00    +0.000 OA
ATOM      6  C   UNL     1       1.875   5.785  20.191  0.00  0.00    +0.000 A 
ATOM      7  C   UNL     1       1.166   6.524  21.148  0.00  0.00    +0.000 A 
ATOM      8  C   UNL     1       1.085   7.912  21.039  0.00  0.00    +0.000 A 
ATOM      9  C   UNL     1       1.714   8.565  19.980  0.00  0.00    +0.000 A 
ATOM     10  C   UNL     1       2.412   7.829  19.020  0.00  0.00    +0.000 A 
ATOM     11  C   UNL     1       2.487   6.432  19.123  0.00  0.00    +0.000 A 
ATOM     12  C   UNL     1       3.198   5.658  18.086  0.00  0.00    +0.000 C 
ATOM     13  O   UNL     1       3.487   6.206  17.030  0.00  0.00    +0.000 OA
ENDROOT
BRANCH   1  14
ATOM     14  O   UNL     1       4.391   3.479  17.589  0.00  0.00    +0.000 OA
BRANCH  14  18
ATOM     15  C   UNL     1       7.086   4.951  14.763  0.00  0.00    +0.000 A 
ATOM     16  C   UNL     1       5.850   4.423  14.405  0.00  0.00    +0.000 A 
ATOM     17  C   UNL     1       4.978   3.974  15.398  0.00  0.00    +0.000 A 
ATOM     18  C   UNL     1       5.325   4.045  16.755  0.00  0.00    +0.000 A 
ATOM     19  C   UNL     1       6.572   4.562  17.139  0.00  0.00    +0.000 A 
ATOM     20  C   UNL     1       7.436   5.004  16.119  0.00  0.00    +0.000 A 
BRANCH  19  21
ATOM     21  N   UNL     1       7.118   4.432  18.427  0.00  0.00    +0.000 N 
ATOM     22  H   UNL     1       6.677   4.970  19.154  0.00  0.00    +0.000 HD
ATOM     23  H   UNL     1       8.131   4.527  18.434  0.00  0.00    +0.000 HD
ENDBRANCH  19  21
BRANCH  15  25
ATOM     24  C   UNL     1       7.782   5.269  12.515  0.00  0.00    +0.000 C 
ATOM     25  O   UNL     1       8.044   5.414  13.905  0.00  0.00    +0.000 OA
ENDBRANCH  15  25
ENDBRANCH  14  18
ENDBRANCH   1  14
TORSDOF 4
ENDMDL
MODEL 5
REMARK VINA RESULT:      -6.5      2.996      4.490
REMARK  Name = 
REMARK  5 active torsions:
REMARK  status: ('A' for Active; 'I' for Inactive)
REMARK    1  A    between atoms: C_1  and  O_2
REMARK    2  A    between atoms: O_2  and  C_3
REMARK    3  A    between atoms: C_6  and  O_7
REMARK    4  A    between atoms: O_7  and  C_8
REMARK    5  A    between atoms: C_21  and  N_22
REMARK                            x       y       z     vdW  Elec       q    Type
REMARK                         _______ _______ _______ _____ _____    ______ ____
ROOT
ATOM      1  C   UNL     1       4.612   5.120  17.263  0.00  0.00    +0.000 C 
ATOM      2  C   UNL     1       4.614   3.800  17.021  0.00  0.00    +0.000 C 
ATOM      3 CL   UNL     1       5.780   3.086  15.949  0.00  0.00    +0.000 Cl
ATOM      4  C   UNL     1       3.656   2.856  17.650  0.00  0.00    +0.000 C 
ATOM      5  O   UNL     1       3.622   1.663  17.378  0.00  0.00    +0.000 OA
ATOM      6  C   UNL     1       2.760   3.399  18.683  0.00  0.00    +0.000 A 
ATOM      7  C   UNL     1       1.958   2.527  19.433  0.00  0.00    +0.000 A 
ATOM      8  C   UNL     1       1.121   3.030  20.429  0.00  0.00    +0.000 A 
ATOM      9  C   UNL     1       1.088   4.401  20.683  0.00  0.00    +0.000 A 
ATOM     10  C   UNL     1       1.878   5.271  19.929  0.00  0.00    +0.000 A 
ATOM     11  C   UNL     1       2.714   4.768  18.921  0.00  0.00    +0.000 A 
ATOM     12  C   UNL     1       3.521   5.699  18.107  0.00  0.00    +0.000 C 
ATOM     13  O   UNL     1       3.266   6.895  18.143  0.00  0.00    +0.000 OA
ENDROOT
BRANCH   1  14
ATOM     14  O   UNL     1       5.584   5.912  16.653  0.00  0.00    +0.000 OA
BRANCH  14  18
ATOM     15  C   UNL     1       8.307   8.496  18.477  0.00  0.00    +0.000 A 
ATOM     16  C   UNL     1       7.349   8.944  17.574  0.00  0.00    +0.000 A 
ATOM     17  C   UNL     1       6.446   8.037  17.018  0.00  0.00    +0.000 A 
ATOM     18  C   UNL     1       6.484   6.676  17.356  0.00  0.00    +0.000 A 
ATOM     19  C   UNL     1       7.450   6.199  18.256  0.00  0.00    +0.000 A 
ATOM     20  C   UNL     1       8.353   7.133  18.798  0.00  0.00    +0.000 A 
BRANCH  19  21
ATOM     21  N   UNL     1       7.744   4.839  18.451  0.00  0.00    +0.000 N 
ATOM     22  H   UNL     1       8.022   4.321  17.635  0.00  0.00    +0.000 HD
ATOM     23  H   UNL     1       7.028   4.358  18.991  0.00  0.00    +0.000 HD
ENDBRANCH  19  21
BRANCH  15  25
ATOM     24  C   UNL     1       9.331  10.628  18.698  0.00  0.00    +0.000 C 
ATOM     25  O   UNL     1       9.261   9.262  19.087  0.00  0.00    +0.000 OA
ENDBRANCH  15  25
ENDBRANCH  14  18
ENDBRANCH   1  14
TORSDOF 4
ENDMDL
MODEL 6
REMARK VINA RESULT:      -6.5      3.112      4.417
REMARK  Name = 
REMARK  5 active torsions:
REMARK  status: ('A' for Active; 'I' for Inactive)
REMARK    1  A    between atoms: C_1  and  O_2
REMARK    2  A    between atoms: O_2  and  C_3
REMARK    3  A    between atoms: C_6  and  O_7
REMARK    4  A    between atoms: O_7  and  C_8
REMARK    5  A    between atoms: C_21  and  N_22
REMARK                            x       y       z     vdW  Elec       q    Type
REMARK                         _______ _______ _______ _____ _____    ______ ____
ROOT
ATOM      1  C   UNL     1       5.263   4.332  17.989  0.00  0.00    +0.000 C 
ATOM      2  C   UNL     1       4.581   3.747  16.993  0.00  0.00    +0.000 C 
ATOM      3 CL   UNL     1       5.344   3.387  15.475  0.00  0.00    +0.000 Cl
ATOM      4  C   UNL     1       3.156   3.348  17.107  0.00  0.00    +0.000 C 
ATOM      5  O   UNL     1       2.521   2.873  16.173  0.00  0.00    +0.000 OA
ATOM      6  C   UNL     1       2.522   3.491  18.427  0.00  0.00    +0.000 A 
ATOM      7  C   UNL     1       1.237   2.972  18.639  0.00  0.00    +0.000 A 
ATOM      8  C   UNL     1       0.638   3.083  19.893  0.00  0.00    +0.000 A 
ATOM      9  C   UNL     1       1.320   3.706  20.938  0.00  0.00    +0.000 A 
ATOM     10  C   UNL     1       2.596   4.232  20.725  0.00  0.00    +0.000 A 
ATOM     11  C   UNL     1       3.197   4.129  19.462  0.00  0.00    +0.000 A 
ATOM     12  C   UNL     1       4.532   4.718  19.236  0.00  0.00    +0.000 C 
ATOM     13  O   UNL     1       4.983   5.501  20.062  0.00  0.00    +0.000 OA
ENDROOT
BRANCH   1  14
ATOM     14  O   UNL     1       6.612   4.626  17.793  0.00  0.00    +0.000 OA
BRANCH  14  18
ATOM     15  C   UNL     1       8.175   8.480  18.136  0.00  0.00    +0.000 A 
ATOM     16  C   UNL     1       8.520   7.459  19.015  0.00  0.00    +0.000 A 
ATOM     17  C   UNL     1       7.988   6.182  18.832  0.00  0.00    +0.000 A 
ATOM     18  C   UNL     1       7.109   5.907  17.774  0.00  0.00    +0.000 A 
ATOM     19  C   UNL     1       6.737   6.926  16.882  0.00  0.00    +0.000 A 
ATOM     20  C   UNL     1       7.282   8.207  17.091  0.00  0.00    +0.000 A 
BRANCH  19  21
ATOM     21  N   UNL     1       5.674   6.826  15.968  0.00  0.00    +0.000 N 
ATOM     22  H   UNL     1       5.063   7.623  15.907  0.00  0.00    +0.000 HD
ATOM     23  H   UNL     1       5.163   5.952  16.056  0.00  0.00    +0.000 HD
ENDBRANCH  19  21
BRANCH  15  25
ATOM     24  C   UNL     1       9.264  10.176  19.394  0.00  0.00    +0.000 C 
ATOM     25  O   UNL     1       8.603   9.777  18.199  0.00  0.00    +0.000 OA
ENDBRANCH  15  25
ENDBRANCH  14  18
ENDBRANCH   1  14
TORSDOF 4
ENDMDL
MODEL 7
REMARK VINA RESULT:      -6.4      5.922      8.684
REMARK  Name = 
REMARK  5 active torsions:
REMARK  status: ('A' for Active; 'I' for Inactive)
REMARK    1  A    between atoms: C_1  and  O_2
REMARK    2  A    between atoms: O_2  and  C_3
REMARK    3  A    between atoms: C_6  and  O_7
REMARK    4  A    between atoms: O_7  and  C_8
REMARK    5  A    between atoms: C_21  and  N_22
REMARK                            x       y       z     vdW  Elec       q    Type
REMARK                         _______ _______ _______ _____ _____    ______ ____
ROOT
ATOM      1  C   UNL     1       0.780   9.997  19.100  0.00  0.00    +0.000 C 
ATOM      2  C   UNL     1       0.605   9.479  20.325  0.00  0.00    +0.000 C 
ATOM      3 CL   UNL     1      -0.478  10.218  21.465  0.00  0.00    +0.000 Cl
ATOM      4  C   UNL     1       1.289   8.247  20.793  0.00  0.00    +0.000 C 
ATOM      5  O   UNL     1       1.174   7.815  21.933  0.00  0.00    +0.000 OA
ATOM      6  C   UNL     1       2.088   7.506  19.804  0.00  0.00    +0.000 A 
ATOM      7  C   UNL     1       2.613   6.250  20.138  0.00  0.00    +0.000 A 
ATOM      8  C   UNL     1       3.353   5.531  19.200  0.00  0.00    +0.000 A 
ATOM      9  C   UNL     1       3.565   6.060  17.928  0.00  0.00    +0.000 A 
ATOM     10  C   UNL     1       3.052   7.316  17.598  0.00  0.00    +0.000 A 
ATOM     11  C   UNL     1       2.314   8.045  18.542  0.00  0.00    +0.000 A 
ATOM     12  C   UNL     1       1.804   9.386  18.197  0.00  0.00    +0.000 C 
ATOM     13  O   UNL     1       2.239   9.949  17.200  0.00  0.00    +0.000 OA
ENDROOT
BRANCH   1  14
ATOM     14  O   UNL     1       0.055  11.134  18.746  0.00  0.00    +0.000 OA
BRANCH  14  18
ATOM     15  C   UNL     1      -3.947  10.909  17.582  0.00  0.00    +0.000 A 
ATOM     16  C   UNL     1      -2.986  10.019  17.113  0.00  0.00    +0.000 A 
ATOM     17  C   UNL     1      -1.669  10.125  17.561  0.00  0.00    +0.000 A 
ATOM     18  C   UNL     1      -1.293  11.116  18.481  0.00  0.00    +0.000 A 
ATOM     19  C   UNL     1      -2.243  12.033  18.957  0.00  0.00    +0.000 A 
ATOM     20  C   UNL     1      -3.564  11.908  18.486  0.00  0.00    +0.000 A 
BRANCH  19  21
ATOM     21  N   UNL     1      -1.924  13.209  19.658  0.00  0.00    +0.000 N 
ATOM     22  H   UNL     1      -1.744  13.105  20.642  0.00  0.00    +0.000 HD
ATOM     23  H   UNL     1      -2.568  13.969  19.459  0.00  0.00    +0.000 HD
ENDBRANCH  19  21
BRANCH  15  25
ATOM     24  C   UNL     1      -5.990  12.119  17.530  0.00  0.00    +0.000 C 
ATOM     25  O   UNL     1      -5.265  10.935  17.222  0.00  0.00    +0.000 OA
ENDBRANCH  15  25
ENDBRANCH  14  18
ENDBRANCH   1  14
TORSDOF 4
ENDMDL
MODEL 8
REMARK VINA RESULT:      -6.4      4.386      6.762
REMARK  Name = 
REMARK  5 active torsions:
REMARK  status: ('A' for Active; 'I' for Inactive)
REMARK    1  A    between atoms: C_1  and  O_2
REMARK    2  A    between atoms: O_2  and  C_3
REMARK    3  A    between atoms: C_6  and  O_7
REMARK    4  A    between atoms: O_7  and  C_8
REMARK    5  A    between atoms: C_21  and  N_22
REMARK                            x       y       z     vdW  Elec       q    Type
REMARK                         _______ _______ _______ _____ _____    ______ ____
ROOT
ATOM      1  C   UNL     1       1.509   8.985  20.335  0.00  0.00    +0.000 C 
ATOM      2  C   UNL     1       1.003   9.610  19.262  0.00  0.00    +0.000 C 
ATOM      3 CL   UNL     1       1.525   9.201  17.656  0.00  0.00    +0.000 Cl
ATOM      4  C   UNL     1      -0.039  10.664  19.350  0.00  0.00    +0.000 C 
ATOM      5  O   UNL     1      -0.451  11.276  18.372  0.00  0.00    +0.000 OA
ATOM      6  C   UNL     1      -0.620  10.924  20.677  0.00  0.00    +0.000 A 
ATOM      7  C   UNL     1      -1.723  11.781  20.794  0.00  0.00    +0.000 A 
ATOM      8  C   UNL     1      -2.295  12.016  22.045  0.00  0.00    +0.000 A 
ATOM      9  C   UNL     1      -1.771  11.393  23.177  0.00  0.00    +0.000 A 
ATOM     10  C   UNL     1      -0.666  10.548  23.062  0.00  0.00    +0.000 A 
ATOM     11  C   UNL     1      -0.084  10.317  21.807  0.00  0.00    +0.000 A 
ATOM     12  C   UNL     1       1.105   9.449  21.699  0.00  0.00    +0.000 C 
ATOM     13  O   UNL     1       1.717   9.151  22.717  0.00  0.00    +0.000 OA
ENDROOT
BRANCH   1  14
ATOM     14  O   UNL     1       2.451   7.977  20.138  0.00  0.00    +0.000 OA
BRANCH  14  18
ATOM     15  C   UNL     1       1.424   4.007  19.361  0.00  0.00    +0.000 A 
ATOM     16  C   UNL     1       1.031   4.661  20.524  0.00  0.00    +0.000 A 
ATOM     17  C   UNL     1       1.380   5.998  20.715  0.00  0.00    +0.000 A 
ATOM     18  C   UNL     1       2.121   6.700  19.752  0.00  0.00    +0.000 A 
ATOM     19  C   UNL     1       2.539   6.056  18.577  0.00  0.00    +0.000 A 
ATOM     20  C   UNL     1       2.180   4.705  18.410  0.00  0.00    +0.000 A 
BRANCH  19  21
ATOM     21  N   UNL     1       3.496   6.576  17.689  0.00  0.00    +0.000 N 
ATOM     22  H   UNL     1       4.339   6.039  17.578  0.00  0.00    +0.000 HD
ATOM     23  H   UNL     1       3.683   7.563  17.850  0.00  0.00    +0.000 HD
ENDBRANCH  19  21
BRANCH  15  25
ATOM     24  C   UNL     1       2.248   1.954  18.497  0.00  0.00    +0.000 C 
ATOM     25  O   UNL     1       1.170   2.701  19.046  0.00  0.00    +0.000 OA
ENDBRANCH  15  25
ENDBRANCH  14  18
ENDBRANCH   1  14
TORSDOF 4
ENDMDL
MODEL 9
REMARK VINA RESULT:      -6.4      1.113      1.208
REMARK  Name = 
REMARK  5 active torsions:
REMARK  status: ('A' for Active; 'I' for Inactive)
REMARK    1  A    between atoms: C_1  and  O_2
REMARK    2  A    between atoms: O_2  and  C_3
REMARK    3  A    between atoms: C_6  and  O_7
REMARK    4  A    between atoms: O_7  and  C_8
REMARK    5  A    between atoms: C_21  and  N_22
REMARK                            x       y       z     vdW  Elec       q    Type
REMARK                         _______ _______ _______ _____ _____    ______ ____
ROOT
ATOM      1  C   UNL     1       4.982   4.831  18.592  0.00  0.00    +0.000 C 
ATOM      2  C   UNL     1       4.175   5.900  18.521  0.00  0.00    +0.000 C 
ATOM      3 CL   UNL     1       4.629   7.307  17.610  0.00  0.00    +0.000 Cl
ATOM      4  C   UNL     1       2.846   5.962  19.181  0.00  0.00    +0.000 C 
ATOM      5  O   UNL     1       2.142   6.964  19.165  0.00  0.00    +0.000 OA
ATOM      6  C   UNL     1       2.359   4.733  19.827  0.00  0.00    +0.000 A 
ATOM      7  C   UNL     1       1.046   4.680  20.314  0.00  0.00    +0.000 A 
ATOM      8  C   UNL     1       0.568   3.512  20.907  0.00  0.00    +0.000 A 
ATOM      9  C   UNL     1       1.397   2.395  21.011  0.00  0.00    +0.000 A 
ATOM     10  C   UNL     1       2.709   2.451  20.536  0.00  0.00    +0.000 A 
ATOM     11  C   UNL     1       3.194   3.627  19.946  0.00  0.00    +0.000 A 
ATOM     12  C   UNL     1       4.592   3.689  19.477  0.00  0.00    +0.000 C 
ATOM     13  O   UNL     1       5.377   2.819  19.833  0.00  0.00    +0.000 OA
ENDROOT
BRANCH   1  14
ATOM     14  O   UNL     1       6.190   4.859  17.898  0.00  0.00    +0.000 OA
BRANCH  14  18
ATOM     15  C   UNL     1       6.421   4.072  13.805  0.00  0.00    +0.000 A 
ATOM     16  C   UNL     1       5.738   3.238  14.684  0.00  0.00    +0.000 A 
ATOM     17  C   UNL     1       5.670   3.568  16.038  0.00  0.00    +0.000 A 
ATOM     18  C   UNL     1       6.278   4.732  16.532  0.00  0.00    +0.000 A 
ATOM     19  C   UNL     1       6.983   5.582  15.666  0.00  0.00    +0.000 A 
ATOM     20  C   UNL     1       7.042   5.224  14.306  0.00  0.00    +0.000 A 
BRANCH  19  21
ATOM     21  N   UNL     1       7.841   6.610  16.093  0.00  0.00    +0.000 N 
ATOM     22  H   UNL     1       8.826   6.413  16.052  0.00  0.00    +0.000 HD
ATOM     23  H   UNL     1       7.561   7.008  16.986  0.00  0.00    +0.000 HD
ENDBRANCH  19  21
BRANCH  15  25
ATOM     24  C   UNL     1       5.788   2.852  11.868  0.00  0.00    +0.000 C 
ATOM     25  O   UNL     1       6.583   3.870  12.463  0.00  0.00    +0.000 OA
ENDBRANCH  15  25
ENDBRANCH  14  18
ENDBRANCH   1  14
TORSDOF 4
ENDMDL
