MODEL 1
REMARK VINA RESULT:      -6.6      0.000      0.000
REMARK  Name = 
REMARK  6 active torsions:
REMARK  status: ('A' for Active; 'I' for Inactive)
REMARK    1  A    between atoms: C_1  and  C_2
REMARK    2  A    between atoms: C_2  and  C_3
REMARK    3  A    between atoms: C_6  and  C_7
REMARK    4  A    between atoms: C_10  and  C_11
REMARK    5  A    between atoms: C_11  and  C_12
REMARK    6  A    between atoms: N_14  and  C_15
REMARK                            x       y       z     vdW  Elec       q    Type
REMARK                         _______ _______ _______ _____ _____    ______ ____
ROOT
ATOM      1  C   UNL     1       3.965   4.370  18.015  0.00  0.00    +0.000 A 
ATOM      2  C   UNL     1       3.308   3.286  18.563  0.00  0.00    +0.000 A 
ATOM      3 CL   UNL     1       3.735   1.642  18.506  0.00  0.00    +0.000 Cl
ATOM      4  C   UNL     1       2.150   3.814  19.187  0.00  0.00    +0.000 A 
ATOM      5  N   UNL     1       2.101   5.148  19.072  0.00  0.00    +0.000 NA
ATOM      6  N   UNL     1       3.203   5.460  18.357  0.00  0.00    +0.000 N 
ATOM      7  C   UNL     1       3.424   6.848  18.014  0.00  0.00    +0.000 C 
ENDROOT
BRANCH   1  11
ATOM      8  C   UNL     1       6.514   4.566  15.589  0.00  0.00    +0.000 A 
ATOM      9  N   UNL     1       7.252   4.576  16.677  0.00  0.00    +0.000 NA
ATOM     10  N   UNL     1       6.376   4.487  17.732  0.00  0.00    +0.000 NA
ATOM     11  C   UNL     1       5.154   4.432  17.231  0.00  0.00    +0.000 A 
ATOM     12  O   UNL     1       5.177   4.472  15.855  0.00  0.00    +0.000 OA
BRANCH   8  14
ATOM     13  C   UNL     1       6.057   3.760  13.294  0.00  0.00    +0.000 C 
ATOM     14  C   UNL     1       6.930   4.641  14.172  0.00  0.00    +0.000 C 
ENDBRANCH   8  14
ENDBRANCH   1  11
BRANCH   4  15
ATOM     15  C   UNL     1       1.038   3.093  19.876  0.00  0.00    +0.000 C 
ATOM     16  C   UNL     1       1.332   2.801  21.339  0.00  0.00    +0.000 C 
ENDBRANCH   4  15
TORSDOF 3
ENDMDL
MODEL 2
REMARK VINA RESULT:      -6.4      1.882      2.503
REMARK  Name = 
REMARK  6 active torsions:
REMARK  status: ('A' for Active; 'I' for Inactive)
REMARK    1  A    between atoms: C_1  and  C_2
REMARK    2  A    between atoms: C_2  and  C_3
REMARK    3  A    between atoms: C_6  and  C_7
REMARK    4  A    between atoms: C_10  and  C_11
REMARK    5  A    between atoms: C_11  and  C_12
REMARK    6  A    between atoms: N_14  and  C_15
REMARK                            x       y       z     vdW  Elec       q    Type
REMARK                         _______ _______ _______ _____ _____    ______ ____
ROOT
ATOM      1  C   UNL     1       5.747   4.576  17.347  0.00  0.00    +0.000 A 
ATOM      2  C   UNL     1       4.495   4.184  17.780  0.00  0.00    +0.000 A 
ATOM      3 CL   UNL     1       3.180   3.622  16.863  0.00  0.00    +0.000 Cl
ATOM      4  C   UNL     1       4.501   4.369  19.185  0.00  0.00    +0.000 A 
ATOM      5  N   UNL     1       5.690   4.812  19.614  0.00  0.00    +0.000 NA
ATOM      6  N   UNL     1       6.424   4.933  18.487  0.00  0.00    +0.000 N 
ATOM      7  C   UNL     1       7.773   5.444  18.603  0.00  0.00    +0.000 C 
ENDROOT
BRANCH   1  11
ATOM      8  C   UNL     1       6.680   4.307  13.958  0.00  0.00    +0.000 A 
ATOM      9  N   UNL     1       7.426   5.333  14.305  0.00  0.00    +0.000 NA
ATOM     10  N   UNL     1       7.176   5.551  15.640  0.00  0.00    +0.000 NA
ATOM     11  C   UNL     1       6.289   4.651  16.031  0.00  0.00    +0.000 A 
ATOM     12  O   UNL     1       5.936   3.817  14.995  0.00  0.00    +0.000 OA
BRANCH   8  14
ATOM     13  C   UNL     1       5.090   3.465  12.258  0.00  0.00    +0.000 C 
ATOM     14  C   UNL     1       6.549   3.643  12.643  0.00  0.00    +0.000 C 
ENDBRANCH   8  14
ENDBRANCH   1  11
BRANCH   4  15
ATOM     15  C   UNL     1       3.390   4.175  20.166  0.00  0.00    +0.000 C 
ATOM     16  C   UNL     1       3.012   2.715  20.357  0.00  0.00    +0.000 C 
ENDBRANCH   4  15
TORSDOF 3
ENDMDL
MODEL 3
REMARK VINA RESULT:      -6.4      1.028      1.095
REMARK  Name = 
REMARK  6 active torsions:
REMARK  status: ('A' for Active; 'I' for Inactive)
REMARK    1  A    between atoms: C_1  and  C_2
REMARK    2  A    between atoms: C_2  and  C_3
REMARK    3  A    between atoms: C_6  and  C_7
REMARK    4  A    between atoms: C_10  and  C_11
REMARK    5  A    between atoms: C_11  and  C_12
REMARK    6  A    between atoms: N_14  and  C_15
REMARK                            x       y       z     vdW  Elec       q    Type
REMARK                         _______ _______ _______ _____ _____    ______ ____
ROOT
ATOM      1  C   UNL     1       4.650   4.954  18.358  0.00  0.00    +0.000 A 
ATOM      2  C   UNL     1       4.190   4.104  19.345  0.00  0.00    +0.000 A 
ATOM      3 CL   UNL     1       4.770   2.567  19.781  0.00  0.00    +0.000 Cl
ATOM      4  C   UNL     1       3.085   4.765  19.936  0.00  0.00    +0.000 A 
ATOM      5  N   UNL     1       2.884   5.969  19.383  0.00  0.00    +0.000 NA
ATOM      6  N   UNL     1       3.837   6.059  18.431  0.00  0.00    +0.000 N 
ATOM      7  C   UNL     1       3.866   7.245  17.603  0.00  0.00    +0.000 C 
ENDROOT
BRANCH   1  11
ATOM      8  C   UNL     1       6.810   4.637  15.590  0.00  0.00    +0.000 A 
ATOM      9  N   UNL     1       7.694   4.567  16.562  0.00  0.00    +0.000 NA
ATOM     10  N   UNL     1       6.981   4.662  17.733  0.00  0.00    +0.000 NA
ATOM     11  C   UNL     1       5.704   4.790  17.413  0.00  0.00    +0.000 A 
ATOM     12  O   UNL     1       5.530   4.774  16.048  0.00  0.00    +0.000 OA
BRANCH   8  14
ATOM     13  C   UNL     1       5.910   3.810  13.439  0.00  0.00    +0.000 C 
ATOM     14  C   UNL     1       7.017   4.590  14.127  0.00  0.00    +0.000 C 
ENDBRANCH   8  14
ENDBRANCH   1  11
BRANCH   4  15
ATOM     15  C   UNL     1       2.160   4.283  21.005  0.00  0.00    +0.000 C 
ATOM     16  C   UNL     1       0.790   3.891  20.476  0.00  0.00    +0.000 C 
ENDBRANCH   4  15
TORSDOF 3
ENDMDL
MODEL 4
REMARK VINA RESULT:      -6.2      1.817      1.945
REMARK  Name = 
REMARK  6 active torsions:
REMARK  status: ('A' for Active; 'I' for Inactive)
REMARK    1  A    between atoms: C_1  and  C_2
REMARK    2  A    between atoms: C_2  and  C_3
REMARK    3  A    between atoms: C_6  and  C_7
REMARK    4  A    between atoms: C_10  and  C_11
REMARK    5  A    between atoms: C_11  and  C_12
REMARK    6  A    between atoms: N_14  and  C_15
REMARK                            x       y       z     vdW  Elec       q    Type
REMARK                         _______ _______ _______ _____ _____    ______ ____
ROOT
ATOM      1  C   UNL     1       4.153   4.838  17.938  0.00  0.00    +0.000 A 
ATOM      2  C   UNL     1       2.849   4.526  18.272  0.00  0.00    +0.000 A 
ATOM      3 CL   UNL     1       1.533   4.216  17.243  0.00  0.00    +0.000 Cl
ATOM      4  C   UNL     1       2.803   4.537  19.688  0.00  0.00    +0.000 A 
ATOM      5  N   UNL     1       4.007   4.801  20.213  0.00  0.00    +0.000 NA
ATOM      6  N   UNL     1       4.804   4.984  19.139  0.00  0.00    +0.000 N 
ATOM      7  C   UNL     1       6.188   5.337  19.368  0.00  0.00    +0.000 C 
ENDROOT
BRANCH   1  11
ATOM      8  C   UNL     1       5.640   4.657  14.748  0.00  0.00    +0.000 A 
ATOM      9  N   UNL     1       5.555   5.964  14.871  0.00  0.00    +0.000 NA
ATOM     10  N   UNL     1       4.995   6.194  16.106  0.00  0.00    +0.000 NA
ATOM     11  C   UNL     1       4.765   5.017  16.663  0.00  0.00    +0.000 A 
ATOM     12  O   UNL     1       5.165   3.989  15.841  0.00  0.00    +0.000 OA
BRANCH   8  14
ATOM     13  C   UNL     1       5.088   3.606  12.576  0.00  0.00    +0.000 C 
ATOM     14  C   UNL     1       6.162   3.853  13.622  0.00  0.00    +0.000 C 
ENDBRANCH   8  14
ENDBRANCH   1  11
BRANCH   4  15
ATOM     15  C   UNL     1       1.632   4.340  20.595  0.00  0.00    +0.000 C 
ATOM     16  C   UNL     1       1.831   3.207  21.588  0.00  0.00    +0.000 C 
ENDBRANCH   4  15
TORSDOF 3
ENDMDL
MODEL 5
REMARK VINA RESULT:      -6.1      2.424      2.706
REMARK  Name = 
REMARK  6 active torsions:
REMARK  status: ('A' for Active; 'I' for Inactive)
REMARK    1  A    between atoms: C_1  and  C_2
REMARK    2  A    between atoms: C_2  and  C_3
REMARK    3  A    between atoms: C_6  and  C_7
REMARK    4  A    between atoms: C_10  and  C_11
REMARK    5  A    between atoms: C_11  and  C_12
REMARK    6  A    between atoms: N_14  and  C_15
REMARK                            x       y       z     vdW  Elec       q    Type
REMARK                         _______ _______ _______ _____ _____    ______ ____
ROOT
ATOM      1  C   UNL     1       4.041   4.957  19.384  0.00  0.00    +0.000 A 
ATOM      2  C   UNL     1       3.586   3.693  19.704  0.00  0.00    +0.000 A 
ATOM      3 CL   UNL     1       4.471   2.251  19.866  0.00  0.00    +0.000 Cl
ATOM      4  C   UNL     1       2.182   3.818  19.857  0.00  0.00    +0.000 A 
ATOM      5  N   UNL     1       1.784   5.085  19.680  0.00  0.00    +0.000 NA
ATOM      6  N   UNL     1       2.922   5.752  19.391  0.00  0.00    +0.000 N 
ATOM      7  C   UNL     1       2.828   7.166  19.096  0.00  0.00    +0.000 C 
ENDROOT
BRANCH   1  11
ATOM      8  C   UNL     1       7.004   6.424  18.161  0.00  0.00    +0.000 A 
ATOM      9  N   UNL     1       7.496   5.773  19.192  0.00  0.00    +0.000 NA
ATOM     10  N   UNL     1       6.434   5.122  19.774  0.00  0.00    +0.000 NA
ATOM     11  C   UNL     1       5.354   5.415  19.071  0.00  0.00    +0.000 A 
ATOM     12  O   UNL     1       5.657   6.244  18.015  0.00  0.00    +0.000 OA
BRANCH   8  14
ATOM     13  C   UNL     1       7.984   8.662  17.767  0.00  0.00    +0.000 C 
ATOM     14  C   UNL     1       7.694   7.290  17.182  0.00  0.00    +0.000 C 
ENDBRANCH   8  14
ENDBRANCH   1  11
BRANCH   4  15
ATOM     15  C   UNL     1       1.166   2.759  20.133  0.00  0.00    +0.000 C 
ATOM     16  C   UNL     1       0.616   2.115  18.870  0.00  0.00    +0.000 C 
ENDBRANCH   4  15
TORSDOF 3
ENDMDL
MODEL 6
REMARK VINA RESULT:      -6.1      3.217      4.293
REMARK  Name = 
REMARK  6 active torsions:
REMARK  status: ('A' for Active; 'I' for Inactive)
REMARK    1  A    between atoms: C_1  and  C_2
REMARK    2  A    between atoms: C_2  and  C_3
REMARK    3  A    between atoms: C_6  and  C_7
REMARK    4  A    between atoms: C_10  and  C_11
REMARK    5  A    between atoms: C_11  and  C_12
REMARK    6  A    between atoms: N_14  and  C_15
REMARK                            x       y       z     vdW  Elec       q    Type
REMARK                         _______ _______ _______ _____ _____    ______ ____
ROOT
ATOM      1  C   UNL     1       5.772   5.407  17.239  0.00  0.00    +0.000 A 
ATOM      2  C   UNL     1       4.600   4.984  17.836  0.00  0.00    +0.000 A 
ATOM      3 CL   UNL     1       3.918   5.481  19.310  0.00  0.00    +0.000 Cl
ATOM      4  C   UNL     1       4.061   4.001  16.969  0.00  0.00    +0.000 A 
ATOM      5  N   UNL     1       4.824   3.841  15.879  0.00  0.00    +0.000 NA
ATOM      6  N   UNL     1       5.852   4.696  16.066  0.00  0.00    +0.000 N 
ATOM      7  C   UNL     1       6.899   4.734  15.068  0.00  0.00    +0.000 C 
ENDROOT
BRANCH   1  11
ATOM      8  C   UNL     1       7.891   8.127  17.972  0.00  0.00    +0.000 A 
ATOM      9  N   UNL     1       8.400   7.232  18.789  0.00  0.00    +0.000 NA
ATOM     10  N   UNL     1       7.669   6.083  18.600  0.00  0.00    +0.000 NA
ATOM     11  C   UNL     1       6.752   6.342  17.683  0.00  0.00    +0.000 A 
ATOM     12  O   UNL     1       6.848   7.639  17.234  0.00  0.00    +0.000 OA
BRANCH   8  14
ATOM     13  C   UNL     1       9.108  10.061  18.922  0.00  0.00    +0.000 C 
ATOM     14  C   UNL     1       8.285   9.536  17.758  0.00  0.00    +0.000 C 
ENDBRANCH   8  14
ENDBRANCH   1  11
BRANCH   4  15
ATOM     15  C   UNL     1       2.843   3.155  17.145  0.00  0.00    +0.000 C 
ATOM     16  C   UNL     1       3.058   1.991  18.099  0.00  0.00    +0.000 C 
ENDBRANCH   4  15
TORSDOF 3
ENDMDL
MODEL 7
REMARK VINA RESULT:      -6.1      2.346      2.682
REMARK  Name = 
REMARK  6 active torsions:
REMARK  status: ('A' for Active; 'I' for Inactive)
REMARK    1  A    between atoms: C_1  and  C_2
REMARK    2  A    between atoms: C_2  and  C_3
REMARK    3  A    between atoms: C_6  and  C_7
REMARK    4  A    between atoms: C_10  and  C_11
REMARK    5  A    between atoms: C_11  and  C_12
REMARK    6  A    between atoms: N_14  and  C_15
REMARK                            x       y       z     vdW  Elec       q    Type
REMARK                         _______ _______ _______ _____ _____    ______ ____
ROOT
ATOM      1  C   UNL     1       3.426   5.381  18.820  0.00  0.00    +0.000 A 
ATOM      2  C   UNL     1       3.134   4.059  19.094  0.00  0.00    +0.000 A 
ATOM      3 CL   UNL     1       3.959   2.661  18.593  0.00  0.00    +0.000 Cl
ATOM      4  C   UNL     1       1.956   4.082  19.882  0.00  0.00    +0.000 A 
ATOM      5  N   UNL     1       1.554   5.338  20.121  0.00  0.00    +0.000 NA
ATOM      6  N   UNL     1       2.453   6.103  19.467  0.00  0.00    +0.000 N 
ATOM      7  C   UNL     1       2.271   7.539  19.488  0.00  0.00    +0.000 C 
ENDROOT
BRANCH   1  11
ATOM      8  C   UNL     1       6.351   6.715  17.375  0.00  0.00    +0.000 A 
ATOM      9  N   UNL     1       5.556   6.757  16.328  0.00  0.00    +0.000 NA
ATOM     10  N   UNL     1       4.342   6.271  16.753  0.00  0.00    +0.000 NA
ATOM     11  C   UNL     1       4.465   5.955  18.031  0.00  0.00    +0.000 A 
ATOM     12  O   UNL     1       5.733   6.225  18.491  0.00  0.00    +0.000 OA
BRANCH   8  14
ATOM     13  C   UNL     1       7.904   8.604  17.757  0.00  0.00    +0.000 C 
ATOM     14  C   UNL     1       7.770   7.114  17.493  0.00  0.00    +0.000 C 
ENDBRANCH   8  14
ENDBRANCH   1  11
BRANCH   4  15
ATOM     15  C   UNL     1       1.150   2.939  20.405  0.00  0.00    +0.000 C 
ATOM     16  C   UNL     1       1.550   2.520  21.811  0.00  0.00    +0.000 C 
ENDBRANCH   4  15
TORSDOF 3
ENDMDL
MODEL 8
REMARK VINA RESULT:      -6.0      1.122      1.122
REMARK  Name = 
REMARK  6 active torsions:
REMARK  status: ('A' for Active; 'I' for Inactive)
REMARK    1  A    between atoms: C_1  and  C_2
REMARK    2  A    between atoms: C_2  and  C_3
REMARK    3  A    between atoms: C_6  and  C_7
REMARK    4  A    between atoms: C_10  and  C_11
REMARK    5  A    between atoms: C_11  and  C_12
REMARK    6  A    between atoms: N_14  and  C_15
REMARK                            x       y       z     vdW  Elec       q    Type
REMARK                         _______ _______ _______ _____ _____    ______ ____
ROOT
ATOM      1  C   UNL     1       3.399   4.865  17.929  0.00  0.00    +0.000 A 
ATOM      2  C   UNL     1       2.967   3.650  18.423  0.00  0.00    +0.000 A 
ATOM      3 CL   UNL     1       3.483   2.086  18.002  0.00  0.00    +0.000 Cl
ATOM      4  C   UNL     1       1.955   3.956  19.367  0.00  0.00    +0.000 A 
ATOM      5  N   UNL     1       1.787   5.280  19.487  0.00  0.00    +0.000 NA
ATOM      6  N   UNL     1       2.664   5.807  18.607  0.00  0.00    +0.000 N 
ATOM      7  C   UNL     1       2.700   7.246  18.457  0.00  0.00    +0.000 C 
ENDROOT
BRANCH   1  11
ATOM      8  C   UNL     1       5.764   4.994  15.319  0.00  0.00    +0.000 A 
ATOM      9  N   UNL     1       5.654   6.280  15.572  0.00  0.00    +0.000 NA
ATOM     10  N   UNL     1       4.754   6.388  16.606  0.00  0.00    +0.000 NA
ATOM     11  C   UNL     1       4.362   5.166  16.922  0.00  0.00    +0.000 A 
ATOM     12  O   UNL     1       4.983   4.224  16.134  0.00  0.00    +0.000 OA
BRANCH   8  14
ATOM     13  C   UNL     1       5.734   3.727  13.194  0.00  0.00    +0.000 C 
ATOM     14  C   UNL     1       6.592   4.305  14.306  0.00  0.00    +0.000 C 
ENDBRANCH   8  14
ENDBRANCH   1  11
BRANCH   4  15
ATOM     15  C   UNL     1       1.090   3.029  20.156  0.00  0.00    +0.000 C 
ATOM     16  C   UNL     1       1.643   2.733  21.541  0.00  0.00    +0.000 C 
ENDBRANCH   4  15
TORSDOF 3
ENDMDL
MODEL 9
REMARK VINA RESULT:      -6.0      2.705      3.248
REMARK  Name = 
REMARK  6 active torsions:
REMARK  status: ('A' for Active; 'I' for Inactive)
REMARK    1  A    between atoms: C_1  and  C_2
REMARK    2  A    between atoms: C_2  and  C_3
REMARK    3  A    between atoms: C_6  and  C_7
REMARK    4  A    between atoms: C_10  and  C_11
REMARK    5  A    between atoms: C_11  and  C_12
REMARK    6  A    between atoms: N_14  and  C_15
REMARK                            x       y       z     vdW  Elec       q    Type
REMARK                         _______ _______ _______ _____ _____    ______ ____
ROOT
ATOM      1  C   UNL     1       3.699   4.853  18.281  0.00  0.00    +0.000 A 
ATOM      2  C   UNL     1       2.695   5.093  19.198  0.00  0.00    +0.000 A 
ATOM      3 CL   UNL     1       2.349   6.524  20.047  0.00  0.00    +0.000 Cl
ATOM      4  C   UNL     1       1.990   3.870  19.325  0.00  0.00    +0.000 A 
ATOM      5  N   UNL     1       2.495   2.931  18.513  0.00  0.00    +0.000 NA
ATOM      6  N   UNL     1       3.527   3.545  17.897  0.00  0.00    +0.000 N 
ATOM      7  C   UNL     1       4.326   2.774  16.970  0.00  0.00    +0.000 C 
ENDROOT
BRANCH   1  11
ATOM      8  C   UNL     1       6.577   6.779  17.622  0.00  0.00    +0.000 A 
ATOM      9  N   UNL     1       5.908   7.005  16.512  0.00  0.00    +0.000 NA
ATOM     10  N   UNL     1       4.726   6.314  16.633  0.00  0.00    +0.000 NA
ATOM     11  C   UNL     1       4.740   5.702  17.805  0.00  0.00    +0.000 A 
ATOM     12  O   UNL     1       5.902   5.969  18.492  0.00  0.00    +0.000 OA
BRANCH   8  14
ATOM     13  C   UNL     1       8.042   8.765  17.800  0.00  0.00    +0.000 C 
ATOM     14  C   UNL     1       7.910   7.270  18.032  0.00  0.00    +0.000 C 
ENDBRANCH   8  14
ENDBRANCH   1  11
BRANCH   4  15
ATOM     15  C   UNL     1       0.853   3.526  20.231  0.00  0.00    +0.000 C 
ATOM     16  C   UNL     1       1.295   2.816  21.500  0.00  0.00    +0.000 C 
ENDBRANCH   4  15
TORSDOF 3
ENDMDL
