MODEL 1
REMARK VINA RESULT:      -7.9      0.000      0.000
REMARK  Name = 
REMARK  6 active torsions:
REMARK  status: ('A' for Active; 'I' for Inactive)
REMARK    1  A    between atoms: C_1  and  O_2
REMARK    2  A    between atoms: O_2  and  C_3
REMARK    3  A    between atoms: C_6  and  C_7
REMARK    4  A    between atoms: C_13  and  C_14
REMARK    5  A    between atoms: C_17  and  C_18
REMARK    6  A    between atoms: C_22  and  N_23
REMARK                            x       y       z     vdW  Elec       q    Type
REMARK                         _______ _______ _______ _____ _____    ______ ____
ROOT
ATOM      1  C   UNL     1      -1.108  11.324  22.276  0.00  0.00    +0.000 A 
ATOM      2  C   UNL     1      -0.835  10.236  23.088  0.00  0.00    +0.000 A 
ATOM      3  S   UNL     1       0.201   9.140  22.284  0.00  0.00    +0.000 S 
ATOM      4  C   UNL     1       0.216  10.179  20.926  0.00  0.00    +0.000 A 
ATOM      5  N   UNL     1       0.938   9.795  19.782  0.00  0.00    +0.000 N 
ATOM      6  N   UNL     1       1.539   8.574  19.744  0.00  0.00    +0.000 NA
ATOM      7  C   UNL     1       2.060   8.467  18.514  0.00  0.00    +0.000 A 
ATOM      8  C   UNL     1       1.861   9.659  17.776  0.00  0.00    +0.000 A 
ATOM      9  C   UNL     1       1.153  10.503  18.597  0.00  0.00    +0.000 A 
ATOM     10  N   UNL     1      -0.477  11.298  21.035  0.00  0.00    +0.000 NA
ENDROOT
BRANCH   7  11
ATOM     11  C   UNL     1       2.742   7.246  18.086  0.00  0.00    +0.000 A 
ATOM     12  C   UNL     1       3.973   7.306  17.418  0.00  0.00    +0.000 A 
ATOM     13  C   UNL     1       4.623   6.134  17.019  0.00  0.00    +0.000 A 
ATOM     14  C   UNL     1       4.056   4.882  17.280  0.00  0.00    +0.000 A 
ATOM     15  C   UNL     1       4.750   3.618  16.868  0.00  0.00    +0.000 C 
ATOM     16  C   UNL     1       2.823   4.819  17.937  0.00  0.00    +0.000 A 
ATOM     17  C   UNL     1       2.169   5.990  18.332  0.00  0.00    +0.000 A 
ENDBRANCH   7  11
BRANCH   1  21
ATOM     18  C   UNL     1      -3.754  14.440  23.535  0.00  0.00    +0.000 A 
ATOM     19  C   UNL     1      -2.775  14.698  22.577  0.00  0.00    +0.000 A 
ATOM     20  C   UNL     1      -1.933  13.677  22.128  0.00  0.00    +0.000 A 
ATOM     21  C   UNL     1      -2.039  12.383  22.654  0.00  0.00    +0.000 A 
ATOM     22  C   UNL     1      -3.033  12.128  23.609  0.00  0.00    +0.000 A 
ATOM     23  C   UNL     1      -3.882  13.152  24.052  0.00  0.00    +0.000 A 
BRANCH  18  25
ATOM     24  C   UNL     1      -3.898  16.350  24.920  0.00  0.00    +0.000 C 
ATOM     25  O   UNL     1      -4.488  15.529  23.919  0.00  0.00    +0.000 OA
ENDBRANCH  18  25
ENDBRANCH   1  21
BRANCH   9  26
ATOM     26  N   UNL     1       0.721  11.767  18.370  0.00  0.00    +0.000 N 
ATOM     27  H   UNL     1       1.113  12.561  18.869  0.00  0.00    +0.000 HD
ATOM     28  H   UNL     1      -0.212  11.928  17.984  0.00  0.00    +0.000 HD
ENDBRANCH   9  26
TORSDOF 4
ENDMDL
MODEL 2
REMARK VINA RESULT:      -7.8      0.525      1.082
REMARK  Name = 
REMARK  6 active torsions:
REMARK  status: ('A' for Active; 'I' for Inactive)
REMARK    1  A    between atoms: C_1  and  O_2
REMARK    2  A    between atoms: O_2  and  C_3
REMARK    3  A    between atoms: C_6  and  C_7
REMARK    4  A    between atoms: C_13  and  C_14
REMARK    5  A    between atoms: C_17  and  C_18
REMARK    6  A    between atoms: C_22  and  N_23
REMARK                            x       y       z     vdW  Elec       q    Type
REMARK                         _______ _______ _______ _____ _____    ______ ____
ROOT
ATOM      1  C   UNL     1      -1.003  11.437  22.330  0.00  0.00    +0.000 A 
ATOM      2  C   UNL     1      -0.761  10.346  23.146  0.00  0.00    +0.000 A 
ATOM      3  S   UNL     1       0.237   9.213  22.344  0.00  0.00    +0.000 S 
ATOM      4  C   UNL     1       0.279  10.243  20.980  0.00  0.00    +0.000 A 
ATOM      5  N   UNL     1       0.984   9.831  19.836  0.00  0.00    +0.000 N 
ATOM      6  N   UNL     1       1.545   8.591  19.802  0.00  0.00    +0.000 NA
ATOM      7  C   UNL     1       2.058   8.461  18.571  0.00  0.00    +0.000 A 
ATOM      8  C   UNL     1       1.893   9.655  17.827  0.00  0.00    +0.000 A 
ATOM      9  C   UNL     1       1.216  10.525  18.646  0.00  0.00    +0.000 A 
ATOM     10  N   UNL     1      -0.378  11.384  21.086  0.00  0.00    +0.000 NA
ENDROOT
BRANCH   7  11
ATOM     11  C   UNL     1       2.699   7.217  18.146  0.00  0.00    +0.000 A 
ATOM     12  C   UNL     1       2.104   5.975  18.407  0.00  0.00    +0.000 A 
ATOM     13  C   UNL     1       2.719   4.790  17.992  0.00  0.00    +0.000 A 
ATOM     14  C   UNL     1       3.938   4.825  17.307  0.00  0.00    +0.000 A 
ATOM     15  C   UNL     1       4.602   3.561  16.845  0.00  0.00    +0.000 C 
ATOM     16  C   UNL     1       4.541   6.061  17.054  0.00  0.00    +0.000 A 
ATOM     17  C   UNL     1       3.929   7.246  17.475  0.00  0.00    +0.000 A 
ENDBRANCH   7  11
BRANCH   1  21
ATOM     18  C   UNL     1      -3.691  14.529  23.558  0.00  0.00    +0.000 A 
ATOM     19  C   UNL     1      -2.329  14.634  23.837  0.00  0.00    +0.000 A 
ATOM     20  C   UNL     1      -1.437  13.651  23.403  0.00  0.00    +0.000 A 
ATOM     21  C   UNL     1      -1.899  12.527  22.705  0.00  0.00    +0.000 A 
ATOM     22  C   UNL     1      -3.268  12.433  22.419  0.00  0.00    +0.000 A 
ATOM     23  C   UNL     1      -4.160  13.425  22.847  0.00  0.00    +0.000 A 
BRANCH  18  25
ATOM     24  C   UNL     1      -3.797  16.459  24.917  0.00  0.00    +0.000 C 
ATOM     25  O   UNL     1      -4.465  15.535  24.068  0.00  0.00    +0.000 OA
ENDBRANCH  18  25
ENDBRANCH   1  21
BRANCH   9  26
ATOM     26  N   UNL     1       0.823  11.801  18.413  0.00  0.00    +0.000 N 
ATOM     27  H   UNL     1       1.226  12.583  18.921  0.00  0.00    +0.000 HD
ATOM     28  H   UNL     1      -0.098  11.988  18.010  0.00  0.00    +0.000 HD
ENDBRANCH   9  26
TORSDOF 4
ENDMDL
MODEL 3
REMARK VINA RESULT:      -7.7      1.877      3.220
REMARK  Name = 
REMARK  6 active torsions:
REMARK  status: ('A' for Active; 'I' for Inactive)
REMARK    1  A    between atoms: C_1  and  O_2
REMARK    2  A    between atoms: O_2  and  C_3
REMARK    3  A    between atoms: C_6  and  C_7
REMARK    4  A    between atoms: C_13  and  C_14
REMARK    5  A    between atoms: C_17  and  C_18
REMARK    6  A    between atoms: C_22  and  N_23
REMARK                            x       y       z     vdW  Elec       q    Type
REMARK                         _______ _______ _______ _____ _____    ______ ____
ROOT
ATOM      1  C   UNL     1       0.470  11.143  20.291  0.00  0.00    +0.000 A 
ATOM      2  C   UNL     1       0.720  11.634  19.022  0.00  0.00    +0.000 A 
ATOM      3  S   UNL     1       1.504  10.450  18.070  0.00  0.00    +0.000 S 
ATOM      4  C   UNL     1       1.455   9.376  19.400  0.00  0.00    +0.000 A 
ATOM      5  N   UNL     1       2.031   8.100  19.267  0.00  0.00    +0.000 N 
ATOM      6  N   UNL     1       2.688   7.775  18.119  0.00  0.00    +0.000 NA
ATOM      7  C   UNL     1       3.193   6.551  18.328  0.00  0.00    +0.000 A 
ATOM      8  C   UNL     1       2.796   6.050  19.592  0.00  0.00    +0.000 A 
ATOM      9  C   UNL     1       2.047   7.042  20.178  0.00  0.00    +0.000 A 
ATOM     10  N   UNL     1       0.876   9.827  20.497  0.00  0.00    +0.000 NA
ENDROOT
BRANCH   7  11
ATOM     11  C   UNL     1       4.020   5.893  17.318  0.00  0.00    +0.000 A 
ATOM     12  C   UNL     1       4.082   4.495  17.238  0.00  0.00    +0.000 A 
ATOM     13  C   UNL     1       4.869   3.872  16.264  0.00  0.00    +0.000 A 
ATOM     14  C   UNL     1       5.608   4.634  15.353  0.00  0.00    +0.000 A 
ATOM     15  C   UNL     1       6.446   3.978  14.296  0.00  0.00    +0.000 C 
ATOM     16  C   UNL     1       5.557   6.030  15.436  0.00  0.00    +0.000 A 
ATOM     17  C   UNL     1       4.774   6.653  16.413  0.00  0.00    +0.000 A 
ENDBRANCH   7  11
BRANCH   1  21
ATOM     18  C   UNL     1      -1.317  13.604  23.299  0.00  0.00    +0.000 A 
ATOM     19  C   UNL     1      -1.645  12.252  23.215  0.00  0.00    +0.000 A 
ATOM     20  C   UNL     1      -1.036  11.430  22.264  0.00  0.00    +0.000 A 
ATOM     21  C   UNL     1      -0.105  11.957  21.358  0.00  0.00    +0.000 A 
ATOM     22  C   UNL     1       0.229  13.315  21.455  0.00  0.00    +0.000 A 
ATOM     23  C   UNL     1      -0.377  14.136  22.416  0.00  0.00    +0.000 A 
BRANCH  18  25
ATOM     24  C   UNL     1      -1.243  15.230  25.012  0.00  0.00    +0.000 C 
ATOM     25  O   UNL     1      -2.008  14.310  24.245  0.00  0.00    +0.000 OA
ENDBRANCH  18  25
ENDBRANCH   1  21
BRANCH   9  26
ATOM     26  N   UNL     1       1.428   7.057  21.383  0.00  0.00    +0.000 N 
ATOM     27  H   UNL     1       1.734   6.461  22.147  0.00  0.00    +0.000 HD
ATOM     28  H   UNL     1       0.458   7.375  21.457  0.00  0.00    +0.000 HD
ENDBRANCH   9  26
TORSDOF 4
ENDMDL
MODEL 4
REMARK VINA RESULT:      -7.6      1.808      3.131
REMARK  Name = 
REMARK  6 active torsions:
REMARK  status: ('A' for Active; 'I' for Inactive)
REMARK    1  A    between atoms: C_1  and  O_2
REMARK    2  A    between atoms: O_2  and  C_3
REMARK    3  A    between atoms: C_6  and  C_7
REMARK    4  A    between atoms: C_13  and  C_14
REMARK    5  A    between atoms: C_17  and  C_18
REMARK    6  A    between atoms: C_22  and  N_23
REMARK                            x       y       z     vdW  Elec       q    Type
REMARK                         _______ _______ _______ _____ _____    ______ ____
ROOT
ATOM      1  C   UNL     1       0.461  11.036  20.268  0.00  0.00    +0.000 A 
ATOM      2  C   UNL     1       0.672  11.525  18.991  0.00  0.00    +0.000 A 
ATOM      3  S   UNL     1       1.457  10.351  18.027  0.00  0.00    +0.000 S 
ATOM      4  C   UNL     1       1.459   9.283  19.363  0.00  0.00    +0.000 A 
ATOM      5  N   UNL     1       2.057   8.019  19.223  0.00  0.00    +0.000 N 
ATOM      6  N   UNL     1       2.694   7.700  18.063  0.00  0.00    +0.000 NA
ATOM      7  C   UNL     1       3.227   6.488  18.266  0.00  0.00    +0.000 A 
ATOM      8  C   UNL     1       2.869   5.985  19.541  0.00  0.00    +0.000 A 
ATOM      9  C   UNL     1       2.115   6.966  20.139  0.00  0.00    +0.000 A 
ATOM     10  N   UNL     1       0.897   9.729  20.471  0.00  0.00    +0.000 NA
ENDROOT
BRANCH   7  11
ATOM     11  C   UNL     1       4.045   5.840  17.240  0.00  0.00    +0.000 A 
ATOM     12  C   UNL     1       4.780   6.600  16.321  0.00  0.00    +0.000 A 
ATOM     13  C   UNL     1       5.566   5.974  15.348  0.00  0.00    +0.000 A 
ATOM     14  C   UNL     1       5.632   4.578  15.277  0.00  0.00    +0.000 A 
ATOM     15  C   UNL     1       6.480   3.895  14.246  0.00  0.00    +0.000 C 
ATOM     16  C   UNL     1       4.891   3.817  16.186  0.00  0.00    +0.000 A 
ATOM     17  C   UNL     1       4.100   4.442  17.156  0.00  0.00    +0.000 A 
ENDBRANCH   7  11
BRANCH   1  21
ATOM     18  C   UNL     1      -1.302  13.481  23.303  0.00  0.00    +0.000 A 
ATOM     19  C   UNL     1      -1.627  12.128  23.218  0.00  0.00    +0.000 A 
ATOM     20  C   UNL     1      -1.025  11.311  22.258  0.00  0.00    +0.000 A 
ATOM     21  C   UNL     1      -0.106  11.844  21.344  0.00  0.00    +0.000 A 
ATOM     22  C   UNL     1       0.224  13.203  21.442  0.00  0.00    +0.000 A 
ATOM     23  C   UNL     1      -0.374  14.019  22.412  0.00  0.00    +0.000 A 
BRANCH  18  25
ATOM     24  C   UNL     1      -3.392  14.279  24.065  0.00  0.00    +0.000 C 
ATOM     25  O   UNL     1      -1.987  14.180  24.259  0.00  0.00    +0.000 OA
ENDBRANCH  18  25
ENDBRANCH   1  21
BRANCH   9  26
ATOM     26  N   UNL     1       1.523   6.976  21.358  0.00  0.00    +0.000 N 
ATOM     27  H   UNL     1       1.987   7.370  22.172  0.00  0.00    +0.000 HD
ATOM     28  H   UNL     1       0.789   6.298  21.576  0.00  0.00    +0.000 HD
ENDBRANCH   9  26
TORSDOF 4
ENDMDL
MODEL 5
REMARK VINA RESULT:      -7.5      1.829      2.993
REMARK  Name = 
REMARK  6 active torsions:
REMARK  status: ('A' for Active; 'I' for Inactive)
REMARK    1  A    between atoms: C_1  and  O_2
REMARK    2  A    between atoms: O_2  and  C_3
REMARK    3  A    between atoms: C_6  and  C_7
REMARK    4  A    between atoms: C_13  and  C_14
REMARK    5  A    between atoms: C_17  and  C_18
REMARK    6  A    between atoms: C_22  and  N_23
REMARK                            x       y       z     vdW  Elec       q    Type
REMARK                         _______ _______ _______ _____ _____    ______ ____
ROOT
ATOM      1  C   UNL     1       0.396  11.404  20.197  0.00  0.00    +0.000 A 
ATOM      2  C   UNL     1       0.640  11.835  18.904  0.00  0.00    +0.000 A 
ATOM      3  S   UNL     1       1.407  10.602  18.002  0.00  0.00    +0.000 S 
ATOM      4  C   UNL     1       1.361   9.590  19.380  0.00  0.00    +0.000 A 
ATOM      5  N   UNL     1       1.926   8.306  19.301  0.00  0.00    +0.000 N 
ATOM      6  N   UNL     1       2.572   7.923  18.165  0.00  0.00    +0.000 NA
ATOM      7  C   UNL     1       3.069   6.707  18.426  0.00  0.00    +0.000 A 
ATOM      8  C   UNL     1       2.679   6.267  19.715  0.00  0.00    +0.000 A 
ATOM      9  C   UNL     1       1.943   7.290  20.260  0.00  0.00    +0.000 A 
ATOM     10  N   UNL     1       0.794  10.096  20.460  0.00  0.00    +0.000 NA
ENDROOT
BRANCH   7  11
ATOM     11  C   UNL     1       3.884   5.996  17.441  0.00  0.00    +0.000 A 
ATOM     12  C   UNL     1       3.861   4.597  17.362  0.00  0.00    +0.000 A 
ATOM     13  C   UNL     1       4.637   3.925  16.413  0.00  0.00    +0.000 A 
ATOM     14  C   UNL     1       5.448   4.639  15.524  0.00  0.00    +0.000 A 
ATOM     15  C   UNL     1       6.275   3.930  14.492  0.00  0.00    +0.000 C 
ATOM     16  C   UNL     1       5.482   6.034  15.606  0.00  0.00    +0.000 A 
ATOM     17  C   UNL     1       4.711   6.707  16.559  0.00  0.00    +0.000 A 
ENDBRANCH   7  11
BRANCH   1  21
ATOM     18  C   UNL     1      -1.156  13.853  23.342  0.00  0.00    +0.000 A 
ATOM     19  C   UNL     1      -0.187  14.357  22.476  0.00  0.00    +0.000 A 
ATOM     20  C   UNL     1       0.295  13.580  21.420  0.00  0.00    +0.000 A 
ATOM     21  C   UNL     1      -0.165  12.270  21.230  0.00  0.00    +0.000 A 
ATOM     22  C   UNL     1      -1.147  11.774  22.098  0.00  0.00    +0.000 A 
ATOM     23  C   UNL     1      -1.636  12.557  23.152  0.00  0.00    +0.000 A 
BRANCH  18  25
ATOM     24  C   UNL     1      -2.871  14.599  24.787  0.00  0.00    +0.000 C 
ATOM     25  O   UNL     1      -1.519  14.695  24.357  0.00  0.00    +0.000 OA
ENDBRANCH  18  25
ENDBRANCH   1  21
BRANCH   9  26
ATOM     26  N   UNL     1       1.333   7.365  21.468  0.00  0.00    +0.000 N 
ATOM     27  H   UNL     1       1.573   6.733  22.226  0.00  0.00    +0.000 HD
ATOM     28  H   UNL     1       0.405   7.789  21.548  0.00  0.00    +0.000 HD
ENDBRANCH   9  26
TORSDOF 4
ENDMDL
MODEL 6
REMARK VINA RESULT:      -7.5      0.996      1.400
REMARK  Name = 
REMARK  6 active torsions:
REMARK  status: ('A' for Active; 'I' for Inactive)
REMARK    1  A    between atoms: C_1  and  O_2
REMARK    2  A    between atoms: O_2  and  C_3
REMARK    3  A    between atoms: C_6  and  C_7
REMARK    4  A    between atoms: C_13  and  C_14
REMARK    5  A    between atoms: C_17  and  C_18
REMARK    6  A    between atoms: C_22  and  N_23
REMARK                            x       y       z     vdW  Elec       q    Type
REMARK                         _______ _______ _______ _____ _____    ______ ____
ROOT
ATOM      1  C   UNL     1      -1.616  11.563  22.332  0.00  0.00    +0.000 A 
ATOM      2  C   UNL     1      -1.199  10.619  23.254  0.00  0.00    +0.000 A 
ATOM      3  S   UNL     1      -0.057   9.561  22.546  0.00  0.00    +0.000 S 
ATOM      4  C   UNL     1      -0.195  10.425  21.077  0.00  0.00    +0.000 A 
ATOM      5  N   UNL     1       0.543   9.994  19.961  0.00  0.00    +0.000 N 
ATOM      6  N   UNL     1       1.283   8.854  20.043  0.00  0.00    +0.000 NA
ATOM      7  C   UNL     1       1.787   8.662  18.816  0.00  0.00    +0.000 A 
ATOM      8  C   UNL     1       1.431   9.727  17.952  0.00  0.00    +0.000 A 
ATOM      9  C   UNL     1       0.646  10.575  18.695  0.00  0.00    +0.000 A 
ATOM     10  N   UNL     1      -1.014  11.462  21.080  0.00  0.00    +0.000 NA
ENDROOT
BRANCH   7  11
ATOM     11  C   UNL     1       2.599   7.485  18.508  0.00  0.00    +0.000 A 
ATOM     12  C   UNL     1       3.574   7.528  17.502  0.00  0.00    +0.000 A 
ATOM     13  C   UNL     1       4.353   6.402  17.219  0.00  0.00    +0.000 A 
ATOM     14  C   UNL     1       4.173   5.214  17.936  0.00  0.00    +0.000 A 
ATOM     15  C   UNL     1       5.010   4.003  17.649  0.00  0.00    +0.000 C 
ATOM     16  C   UNL     1       3.194   5.165  18.933  0.00  0.00    +0.000 A 
ATOM     17  C   UNL     1       2.410   6.289  19.213  0.00  0.00    +0.000 A 
ENDBRANCH   7  11
BRANCH   1  21
ATOM     18  C   UNL     1      -4.770  14.363  23.048  0.00  0.00    +0.000 A 
ATOM     19  C   UNL     1      -4.506  13.354  23.973  0.00  0.00    +0.000 A 
ATOM     20  C   UNL     1      -3.451  12.461  23.770  0.00  0.00    +0.000 A 
ATOM     21  C   UNL     1      -2.658  12.545  22.617  0.00  0.00    +0.000 A 
ATOM     22  C   UNL     1      -2.922  13.568  21.696  0.00  0.00    +0.000 A 
ATOM     23  C   UNL     1      -3.976  14.468  21.906  0.00  0.00    +0.000 A 
BRANCH  18  25
ATOM     24  C   UNL     1      -6.996  14.464  23.835  0.00  0.00    +0.000 C 
ATOM     25  O   UNL     1      -5.851  15.148  23.341  0.00  0.00    +0.000 OA
ENDBRANCH  18  25
ENDBRANCH   1  21
BRANCH   9  26
ATOM     26  N   UNL     1       0.063  11.745  18.338  0.00  0.00    +0.000 N 
ATOM     27  H   UNL     1      -0.256  12.415  19.032  0.00  0.00    +0.000 HD
ATOM     28  H   UNL     1      -0.391  11.834  17.425  0.00  0.00    +0.000 HD
ENDBRANCH   9  26
TORSDOF 4
ENDMDL
MODEL 7
REMARK VINA RESULT:      -7.5      3.823     10.111
REMARK  Name = 
REMARK  6 active torsions:
REMARK  status: ('A' for Active; 'I' for Inactive)
REMARK    1  A    between atoms: C_1  and  O_2
REMARK    2  A    between atoms: O_2  and  C_3
REMARK    3  A    between atoms: C_6  and  C_7
REMARK    4  A    between atoms: C_13  and  C_14
REMARK    5  A    between atoms: C_17  and  C_18
REMARK    6  A    between atoms: C_22  and  N_23
REMARK                            x       y       z     vdW  Elec       q    Type
REMARK                         _______ _______ _______ _____ _____    ______ ____
ROOT
ATOM      1  C   UNL     1       2.774   6.568  18.872  0.00  0.00    +0.000 A 
ATOM      2  C   UNL     1       2.203   6.070  20.031  0.00  0.00    +0.000 A 
ATOM      3  S   UNL     1       1.294   7.285  20.816  0.00  0.00    +0.000 S 
ATOM      4  C   UNL     1       1.717   8.380  19.572  0.00  0.00    +0.000 A 
ATOM      5  N   UNL     1       1.265   9.708  19.650  0.00  0.00    +0.000 N 
ATOM      6  N   UNL     1       0.574  10.120  20.749  0.00  0.00    +0.000 NA
ATOM      7  C   UNL     1       0.364  11.432  20.572  0.00  0.00    +0.000 A 
ATOM      8  C   UNL     1       0.856  11.856  19.313  0.00  0.00    +0.000 A 
ATOM      9  C   UNL     1       1.420  10.748  18.730  0.00  0.00    +0.000 A 
ATOM     10  N   UNL     1       2.469   7.899  18.599  0.00  0.00    +0.000 NA
ENDROOT
BRANCH   7  11
ATOM     11  C   UNL     1      -0.310  12.234  21.593  0.00  0.00    +0.000 A 
ATOM     12  C   UNL     1      -1.344  11.692  22.368  0.00  0.00    +0.000 A 
ATOM     13  C   UNL     1      -1.977  12.463  23.347  0.00  0.00    +0.000 A 
ATOM     14  C   UNL     1      -1.588  13.788  23.571  0.00  0.00    +0.000 A 
ATOM     15  C   UNL     1      -2.252  14.621  24.628  0.00  0.00    +0.000 C 
ATOM     16  C   UNL     1      -0.563  14.336  22.793  0.00  0.00    +0.000 A 
ATOM     17  C   UNL     1       0.067  13.568  21.809  0.00  0.00    +0.000 A 
ENDBRANCH   7  11
BRANCH   1  21
ATOM     18  C   UNL     1       5.311   4.267  16.310  0.00  0.00    +0.000 A 
ATOM     19  C   UNL     1       5.473   5.649  16.397  0.00  0.00    +0.000 A 
ATOM     20  C   UNL     1       4.678   6.405  17.263  0.00  0.00    +0.000 A 
ATOM     21  C   UNL     1       3.684   5.790  18.037  0.00  0.00    +0.000 A 
ATOM     22  C   UNL     1       3.535   4.399  17.952  0.00  0.00    +0.000 A 
ATOM     23  C   UNL     1       4.339   3.642  17.090  0.00  0.00    +0.000 A 
BRANCH  18  25
ATOM     24  C   UNL     1       6.006   4.100  14.058  0.00  0.00    +0.000 C 
ATOM     25  O   UNL     1       6.122   3.647  15.401  0.00  0.00    +0.000 OA
ENDBRANCH  18  25
ENDBRANCH   1  21
BRANCH   9  26
ATOM     26  N   UNL     1       2.017  10.619  17.521  0.00  0.00    +0.000 N 
ATOM     27  H   UNL     1       2.248  11.428  16.952  0.00  0.00    +0.000 HD
ATOM     28  H   UNL     1       1.931   9.744  16.997  0.00  0.00    +0.000 HD
ENDBRANCH   9  26
TORSDOF 4
ENDMDL
MODEL 8
REMARK VINA RESULT:      -7.5      1.883      2.904
REMARK  Name = 
REMARK  6 active torsions:
REMARK  status: ('A' for Active; 'I' for Inactive)
REMARK    1  A    between atoms: C_1  and  O_2
REMARK    2  A    between atoms: O_2  and  C_3
REMARK    3  A    between atoms: C_6  and  C_7
REMARK    4  A    between atoms: C_13  and  C_14
REMARK    5  A    between atoms: C_17  and  C_18
REMARK    6  A    between atoms: C_22  and  N_23
REMARK                            x       y       z     vdW  Elec       q    Type
REMARK                         _______ _______ _______ _____ _____    ______ ____
ROOT
ATOM      1  C   UNL     1       0.371  11.322  20.207  0.00  0.00    +0.000 A 
ATOM      2  C   UNL     1       0.596  11.762  18.914  0.00  0.00    +0.000 A 
ATOM      3  S   UNL     1       1.370  10.544  17.998  0.00  0.00    +0.000 S 
ATOM      4  C   UNL     1       1.350   9.525  19.371  0.00  0.00    +0.000 A 
ATOM      5  N   UNL     1       1.931   8.248  19.281  0.00  0.00    +0.000 N 
ATOM      6  N   UNL     1       2.570   7.879  18.136  0.00  0.00    +0.000 NA
ATOM      7  C   UNL     1       3.085   6.667  18.386  0.00  0.00    +0.000 A 
ATOM      8  C   UNL     1       2.714   6.216  19.676  0.00  0.00    +0.000 A 
ATOM      9  C   UNL     1       1.970   7.228  20.234  0.00  0.00    +0.000 A 
ATOM     10  N   UNL     1       0.788  10.018  20.460  0.00  0.00    +0.000 NA
ENDROOT
BRANCH   7  11
ATOM     11  C   UNL     1       3.899   5.972  17.388  0.00  0.00    +0.000 A 
ATOM     12  C   UNL     1       4.707   6.687  16.495  0.00  0.00    +0.000 A 
ATOM     13  C   UNL     1       5.489   6.015  15.549  0.00  0.00    +0.000 A 
ATOM     14  C   UNL     1       5.478   4.618  15.481  0.00  0.00    +0.000 A 
ATOM     15  C   UNL     1       6.321   3.886  14.480  0.00  0.00    +0.000 C 
ATOM     16  C   UNL     1       4.664   3.902  16.365  0.00  0.00    +0.000 A 
ATOM     17  C   UNL     1       3.878   4.573  17.307  0.00  0.00    +0.000 A 
ENDBRANCH   7  11
BRANCH   1  21
ATOM     18  C   UNL     1      -1.180  13.736  23.380  0.00  0.00    +0.000 A 
ATOM     19  C   UNL     1      -0.223  14.255  22.509  0.00  0.00    +0.000 A 
ATOM     20  C   UNL     1       0.259  13.490  21.444  0.00  0.00    +0.000 A 
ATOM     21  C   UNL     1      -0.190  12.176  21.250  0.00  0.00    +0.000 A 
ATOM     22  C   UNL     1      -1.160  11.665  22.122  0.00  0.00    +0.000 A 
ATOM     23  C   UNL     1      -1.648  12.437  23.185  0.00  0.00    +0.000 A 
BRANCH  18  25
ATOM     24  C   UNL     1      -1.127  15.922  24.276  0.00  0.00    +0.000 C 
ATOM     25  O   UNL     1      -1.542  14.568  24.403  0.00  0.00    +0.000 OA
ENDBRANCH  18  25
ENDBRANCH   1  21
BRANCH   9  26
ATOM     26  N   UNL     1       1.372   7.290  21.448  0.00  0.00    +0.000 N 
ATOM     27  H   UNL     1       0.820   8.095  21.729  0.00  0.00    +0.000 HD
ATOM     28  H   UNL     1       1.731   6.731  22.226  0.00  0.00    +0.000 HD
ENDBRANCH   9  26
TORSDOF 4
ENDMDL
MODEL 9
REMARK VINA RESULT:      -7.4      3.754      9.986
REMARK  Name = 
REMARK  6 active torsions:
REMARK  status: ('A' for Active; 'I' for Inactive)
REMARK    1  A    between atoms: C_1  and  O_2
REMARK    2  A    between atoms: O_2  and  C_3
REMARK    3  A    between atoms: C_6  and  C_7
REMARK    4  A    between atoms: C_13  and  C_14
REMARK    5  A    between atoms: C_17  and  C_18
REMARK    6  A    between atoms: C_22  and  N_23
REMARK                            x       y       z     vdW  Elec       q    Type
REMARK                         _______ _______ _______ _____ _____    ______ ____
ROOT
ATOM      1  C   UNL     1       2.534   6.735  19.203  0.00  0.00    +0.000 A 
ATOM      2  C   UNL     1       1.988   6.280  20.390  0.00  0.00    +0.000 A 
ATOM      3  S   UNL     1       1.103   7.527  21.154  0.00  0.00    +0.000 S 
ATOM      4  C   UNL     1       1.503   8.575  19.863  0.00  0.00    +0.000 A 
ATOM      5  N   UNL     1       1.059   9.908  19.906  0.00  0.00    +0.000 N 
ATOM      6  N   UNL     1       0.396  10.362  21.005  0.00  0.00    +0.000 NA
ATOM      7  C   UNL     1       0.188  11.668  20.787  0.00  0.00    +0.000 A 
ATOM      8  C   UNL     1       0.653  12.046  19.504  0.00  0.00    +0.000 A 
ATOM      9  C   UNL     1       1.198  10.915  18.946  0.00  0.00    +0.000 A 
ATOM     10  N   UNL     1       2.230   8.057  18.890  0.00  0.00    +0.000 NA
ENDROOT
BRANCH   7  11
ATOM     11  C   UNL     1      -0.458  12.509  21.794  0.00  0.00    +0.000 A 
ATOM     12  C   UNL     1      -0.001  13.810  22.045  0.00  0.00    +0.000 A 
ATOM     13  C   UNL     1      -0.628  14.612  23.004  0.00  0.00    +0.000 A 
ATOM     14  C   UNL     1      -1.723  14.128  23.729  0.00  0.00    +0.000 A 
ATOM     15  C   UNL     1      -2.412  14.983  24.751  0.00  0.00    +0.000 C 
ATOM     16  C   UNL     1      -2.175  12.827  23.488  0.00  0.00    +0.000 A 
ATOM     17  C   UNL     1      -1.545  12.022  22.534  0.00  0.00    +0.000 A 
ENDBRANCH   7  11
BRANCH   1  21
ATOM     18  C   UNL     1       4.997   4.319  16.673  0.00  0.00    +0.000 A 
ATOM     19  C   UNL     1       5.096   5.709  16.626  0.00  0.00    +0.000 A 
ATOM     20  C   UNL     1       4.327   6.506  17.478  0.00  0.00    +0.000 A 
ATOM     21  C   UNL     1       3.421   5.923  18.374  0.00  0.00    +0.000 A 
ATOM     22  C   UNL     1       3.335   4.525  18.425  0.00  0.00    +0.000 A 
ATOM     23  C   UNL     1       4.114   3.727  17.575  0.00  0.00    +0.000 A 
BRANCH  18  25
ATOM     24  C   UNL     1       6.673   4.457  15.013  0.00  0.00    +0.000 C 
ATOM     25  O   UNL     1       5.773   3.653  15.765  0.00  0.00    +0.000 OA
ENDBRANCH  18  25
ENDBRANCH   1  21
BRANCH   9  26
ATOM     26  N   UNL     1       1.768  10.740  17.729  0.00  0.00    +0.000 N 
ATOM     27  H   UNL     1       1.703  11.450  17.005  0.00  0.00    +0.000 HD
ATOM     28  H   UNL     1       1.956   9.797  17.382  0.00  0.00    +0.000 HD
ENDBRANCH   9  26
TORSDOF 4
ENDMDL
