MODEL 1
REMARK VINA RESULT:      -5.7      0.000      0.000
REMARK  Name = 
REMARK  4 active torsions:
REMARK  status: ('A' for Active; 'I' for Inactive)
REMARK    1  A    between atoms: C_1  and  N_2
REMARK    2  A    between atoms: N_5  and  C_6
REMARK    3  A    between atoms: C_11  and  N_12
REMARK    4  A    between atoms: N_15  and  C_16
REMARK                            x       y       z     vdW  Elec       q    Type
REMARK                         _______ _______ _______ _____ _____    ______ ____
ROOT
ATOM      1  C   UNL     1       0.031  11.083  19.237  0.00  0.00    +0.000 C 
ATOM      2  C   UNL     1       0.235  10.089  18.364  0.00  0.00    +0.000 C 
ATOM      3 CL   UNL     1      -0.940   9.366  17.349  0.00  0.00    +0.000 Cl
ATOM      4  C   UNL     1       1.536   9.445  18.495  0.00  0.00    +0.000 C 
ATOM      5  O   UNL     1       2.493   9.685  17.780  0.00  0.00    +0.000 OA
ATOM      6  C   UNL     1       1.605   8.611  19.734  0.00  0.00    +0.000 C 
ATOM      7  C   UNL     1       1.381   9.470  20.746  0.00  0.00    +0.000 C 
ATOM      8 CL   UNL     1       1.466   9.065  22.419  0.00  0.00    +0.000 Cl
ATOM      9  C   UNL     1       0.933  10.917  20.466  0.00  0.00    +0.000 C 
ATOM     10  O   UNL     1       1.216  11.848  21.210  0.00  0.00    +0.000 OA
ENDROOT
BRANCH   1  15
ATOM     11  C   UNL     1      -1.903  15.718  21.264  0.00  0.00    +0.000 C 
ATOM     12  N   UNL     1      -1.872  14.616  20.312  0.00  0.00    +0.000 NA
ATOM     13  C   UNL     1      -2.227  13.322  20.943  0.00  0.00    +0.000 C 
ATOM     14  C   UNL     1      -2.203  12.129  19.944  0.00  0.00    +0.000 C 
ATOM     15  N   UNL     1      -0.961  12.079  19.137  0.00  0.00    +0.000 N 
ATOM     16  C   UNL     1      -0.627  13.418  18.570  0.00  0.00    +0.000 C 
ATOM     17  C   UNL     1      -0.546  14.477  19.686  0.00  0.00    +0.000 C 
ENDBRANCH   1  15
BRANCH   6  18
ATOM     18  N   UNL     1       1.909   7.253  19.547  0.00  0.00    +0.000 N 
ATOM     19  C   UNL     1       1.822   6.258  20.667  0.00  0.00    +0.000 C 
ATOM     20  C   UNL     1       1.300   4.879  20.187  0.00  0.00    +0.000 C 
ATOM     21  N   UNL     1       1.920   4.340  18.961  0.00  0.00    +0.000 NA
ATOM     22  C   UNL     1       3.259   3.813  19.209  0.00  0.00    +0.000 C 
ATOM     23  C   UNL     1       1.936   5.405  17.940  0.00  0.00    +0.000 C 
ATOM     24  C   UNL     1       2.621   6.712  18.382  0.00  0.00    +0.000 C 
ENDBRANCH   6  18
TORSDOF 2
ENDMDL
MODEL 2
REMARK VINA RESULT:      -5.6      0.692      1.214
REMARK  Name = 
REMARK  4 active torsions:
REMARK  status: ('A' for Active; 'I' for Inactive)
REMARK    1  A    between atoms: C_1  and  N_2
REMARK    2  A    between atoms: N_5  and  C_6
REMARK    3  A    between atoms: C_11  and  N_12
REMARK    4  A    between atoms: N_15  and  C_16
REMARK                            x       y       z     vdW  Elec       q    Type
REMARK                         _______ _______ _______ _____ _____    ______ ____
ROOT
ATOM      1  C   UNL     1      -0.119  11.273  19.451  0.00  0.00    +0.000 C 
ATOM      2  C   UNL     1       0.118  10.362  18.498  0.00  0.00    +0.000 C 
ATOM      3 CL   UNL     1      -1.032   9.690  17.422  0.00  0.00    +0.000 Cl
ATOM      4  C   UNL     1       1.439   9.751  18.580  0.00  0.00    +0.000 C 
ATOM      5  O   UNL     1       2.389  10.081  17.891  0.00  0.00    +0.000 OA
ATOM      6  C   UNL     1       1.533   8.819  19.746  0.00  0.00    +0.000 C 
ATOM      7  C   UNL     1       1.281   9.583  20.825  0.00  0.00    +0.000 C 
ATOM      8 CL   UNL     1       1.377   9.043  22.459  0.00  0.00    +0.000 Cl
ATOM      9  C   UNL     1       0.787  11.033  20.665  0.00  0.00    +0.000 C 
ATOM     10  O   UNL     1       1.040  11.907  21.485  0.00  0.00    +0.000 OA
ENDROOT
BRANCH   1  15
ATOM     11  C   UNL     1      -2.177  15.684  21.824  0.00  0.00    +0.000 C 
ATOM     12  N   UNL     1      -2.120  14.655  20.794  0.00  0.00    +0.000 NA
ATOM     13  C   UNL     1      -2.429  13.308  21.331  0.00  0.00    +0.000 C 
ATOM     14  C   UNL     1      -2.378  12.193  20.247  0.00  0.00    +0.000 C 
ATOM     15  N   UNL     1      -1.142  12.241  19.431  0.00  0.00    +0.000 N 
ATOM     16  C   UNL     1      -0.854  13.628  18.960  0.00  0.00    +0.000 C 
ATOM     17  C   UNL     1      -0.796  14.605  20.151  0.00  0.00    +0.000 C 
ENDBRANCH   1  15
BRANCH   6  18
ATOM     18  N   UNL     1       1.881   7.492  19.447  0.00  0.00    +0.000 N 
ATOM     19  C   UNL     1       2.301   7.072  18.069  0.00  0.00    +0.000 C 
ATOM     20  C   UNL     1       3.421   5.999  18.099  0.00  0.00    +0.000 C 
ATOM     21  N   UNL     1       3.215   4.870  19.026  0.00  0.00    +0.000 NA
ATOM     22  C   UNL     1       2.232   3.916  18.519  0.00  0.00    +0.000 C 
ATOM     23  C   UNL     1       2.817   5.412  20.340  0.00  0.00    +0.000 C 
ATOM     24  C   UNL     1       1.587   6.339  20.309  0.00  0.00    +0.000 C 
ENDBRANCH   6  18
TORSDOF 2
ENDMDL
MODEL 3
REMARK VINA RESULT:      -5.6      1.408      7.490
REMARK  Name = 
REMARK  4 active torsions:
REMARK  status: ('A' for Active; 'I' for Inactive)
REMARK    1  A    between atoms: C_1  and  N_2
REMARK    2  A    between atoms: N_5  and  C_6
REMARK    3  A    between atoms: C_11  and  N_12
REMARK    4  A    between atoms: N_15  and  C_16
REMARK                            x       y       z     vdW  Elec       q    Type
REMARK                         _______ _______ _______ _____ _____    ______ ____
ROOT
ATOM      1  C   UNL     1       1.362   8.882  20.140  0.00  0.00    +0.000 C 
ATOM      2  C   UNL     1       1.096   9.644  21.208  0.00  0.00    +0.000 C 
ATOM      3 CL   UNL     1       0.886   9.103  22.820  0.00  0.00    +0.000 Cl
ATOM      4  C   UNL     1       0.733  11.016  20.879  0.00  0.00    +0.000 C 
ATOM      5  O   UNL     1       1.501  11.961  20.942  0.00  0.00    +0.000 OA
ATOM      6  C   UNL     1      -0.630  11.084  20.268  0.00  0.00    +0.000 C 
ATOM      7  C   UNL     1      -0.555  10.321  19.162  0.00  0.00    +0.000 C 
ATOM      8 CL   UNL     1      -1.817  10.139  18.002  0.00  0.00    +0.000 Cl
ATOM      9  C   UNL     1       0.688   9.454  18.887  0.00  0.00    +0.000 C 
ATOM     10  O   UNL     1       1.062   9.184  17.753  0.00  0.00    +0.000 OA
ENDROOT
BRANCH   1  15
ATOM     11  C   UNL     1       1.590   3.849  18.153  0.00  0.00    +0.000 C 
ATOM     12  N   UNL     1       2.072   4.964  18.958  0.00  0.00    +0.000 NA
ATOM     13  C   UNL     1       1.156   5.281  20.080  0.00  0.00    +0.000 C 
ATOM     14  C   UNL     1       1.652   6.467  20.957  0.00  0.00    +0.000 C 
ATOM     15  N   UNL     1       2.044   7.649  20.155  0.00  0.00    +0.000 N 
ATOM     16  C   UNL     1       2.924   7.264  19.012  0.00  0.00    +0.000 C 
ATOM     17  C   UNL     1       2.249   6.181  18.148  0.00  0.00    +0.000 C 
ENDBRANCH   1  15
BRANCH   6  18
ATOM     18  N   UNL     1      -1.561  11.903  20.927  0.00  0.00    +0.000 N 
ATOM     19  C   UNL     1      -2.520  12.779  20.176  0.00  0.00    +0.000 C 
ATOM     20  C   UNL     1      -3.909  12.851  20.861  0.00  0.00    +0.000 C 
ATOM     21  N   UNL     1      -3.905  13.089  22.318  0.00  0.00    +0.000 NA
ATOM     22  C   UNL     1      -3.606  14.480  22.645  0.00  0.00    +0.000 C 
ATOM     23  C   UNL     1      -2.935  12.165  22.938  0.00  0.00    +0.000 C 
ATOM     24  C   UNL     1      -1.511  12.239  22.356  0.00  0.00    +0.000 C 
ENDBRANCH   6  18
TORSDOF 2
ENDMDL
MODEL 4
REMARK VINA RESULT:      -5.6      7.663      8.605
REMARK  Name = 
REMARK  4 active torsions:
REMARK  status: ('A' for Active; 'I' for Inactive)
REMARK    1  A    between atoms: C_1  and  N_2
REMARK    2  A    between atoms: N_5  and  C_6
REMARK    3  A    between atoms: C_11  and  N_12
REMARK    4  A    between atoms: N_15  and  C_16
REMARK                            x       y       z     vdW  Elec       q    Type
REMARK                         _______ _______ _______ _____ _____    ______ ____
ROOT
ATOM      1  C   UNL     1       5.410  15.309  20.451  0.00  0.00    +0.000 C 
ATOM      2  C   UNL     1       6.016  15.288  19.256  0.00  0.00    +0.000 C 
ATOM      3 CL   UNL     1       5.397  14.605  17.813  0.00  0.00    +0.000 Cl
ATOM      4  C   UNL     1       7.416  15.687  19.297  0.00  0.00    +0.000 C 
ATOM      5  O   UNL     1       7.820  16.797  18.995  0.00  0.00    +0.000 OA
ATOM      6  C   UNL     1       8.261  14.636  19.943  0.00  0.00    +0.000 C 
ATOM      7  C   UNL     1       7.757  14.496  21.183  0.00  0.00    +0.000 C 
ATOM      8 CL   UNL     1       8.429  13.494  22.413  0.00  0.00    +0.000 Cl
ATOM      9  C   UNL     1       6.441  15.191  21.580  0.00  0.00    +0.000 C 
ATOM     10  O   UNL     1       6.210  15.553  22.727  0.00  0.00    +0.000 OA
ENDROOT
BRANCH   1  15
ATOM     11  C   UNL     1       0.578  13.713  18.599  0.00  0.00    +0.000 C 
ATOM     12  N   UNL     1       1.471  14.331  19.570  0.00  0.00    +0.000 NA
ATOM     13  C   UNL     1       2.097  15.568  19.047  0.00  0.00    +0.000 C 
ATOM     14  C   UNL     1       3.053  16.248  20.069  0.00  0.00    +0.000 C 
ATOM     15  N   UNL     1       4.019  15.299  20.672  0.00  0.00    +0.000 N 
ATOM     16  C   UNL     1       3.341  14.053  21.135  0.00  0.00    +0.000 C 
ATOM     17  C   UNL     1       2.542  13.409  19.985  0.00  0.00    +0.000 C 
ENDBRANCH   1  15
BRANCH   6  18
ATOM     18  N   UNL     1       9.316  14.130  19.166  0.00  0.00    +0.000 N 
ATOM     19  C   UNL     1      10.742  14.533  19.404  0.00  0.00    +0.000 C 
ATOM     20  C   UNL     1      11.728  13.356  19.188  0.00  0.00    +0.000 C 
ATOM     21  N   UNL     1      11.533  12.562  17.960  0.00  0.00    +0.000 NA
ATOM     22  C   UNL     1      12.016  13.262  16.772  0.00  0.00    +0.000 C 
ATOM     23  C   UNL     1      10.102  12.222  17.846  0.00  0.00    +0.000 C 
ATOM     24  C   UNL     1       9.147  13.430  17.885  0.00  0.00    +0.000 C 
ENDBRANCH   6  18
TORSDOF 2
ENDMDL
MODEL 5
REMARK VINA RESULT:      -5.6      1.774      2.611
REMARK  Name = 
REMARK  4 active torsions:
REMARK  status: ('A' for Active; 'I' for Inactive)
REMARK    1  A    between atoms: C_1  and  N_2
REMARK    2  A    between atoms: N_5  and  C_6
REMARK    3  A    between atoms: C_11  and  N_12
REMARK    4  A    between atoms: N_15  and  C_16
REMARK                            x       y       z     vdW  Elec       q    Type
REMARK                         _______ _______ _______ _____ _____    ______ ____
ROOT
ATOM      1  C   UNL     1      -1.189  12.282  20.584  0.00  0.00    +0.000 C 
ATOM      2  C   UNL     1      -0.675  11.782  19.453  0.00  0.00    +0.000 C 
ATOM      3 CL   UNL     1      -1.526  11.460  18.003  0.00  0.00    +0.000 Cl
ATOM      4  C   UNL     1       0.681  11.267  19.597  0.00  0.00    +0.000 C 
ATOM      5  O   UNL     1       1.683  11.878  19.268  0.00  0.00    +0.000 OA
ATOM      6  C   UNL     1       0.696   9.993  20.379  0.00  0.00    +0.000 C 
ATOM      7  C   UNL     1       0.165  10.309  21.574  0.00  0.00    +0.000 C 
ATOM      8 CL   UNL     1       0.051   9.236  22.917  0.00  0.00    +0.000 Cl
ATOM      9  C   UNL     1      -0.480  11.688  21.808  0.00  0.00    +0.000 C 
ATOM     10  O   UNL     1      -0.488  12.232  22.905  0.00  0.00    +0.000 OA
ENDROOT
BRANCH   1  15
ATOM     11  C   UNL     1      -4.285  15.294  23.851  0.00  0.00    +0.000 C 
ATOM     12  N   UNL     1      -3.875  14.758  22.560  0.00  0.00    +0.000 NA
ATOM     13  C   UNL     1      -4.096  13.295  22.465  0.00  0.00    +0.000 C 
ATOM     14  C   UNL     1      -3.669  12.701  21.092  0.00  0.00    +0.000 C 
ATOM     15  N   UNL     1      -2.311  13.128  20.678  0.00  0.00    +0.000 N 
ATOM     16  C   UNL     1      -2.131  14.600  20.841  0.00  0.00    +0.000 C 
ATOM     17  C   UNL     1      -2.454  15.031  22.285  0.00  0.00    +0.000 C 
ENDBRANCH   1  15
BRANCH   6  18
ATOM     18  N   UNL     1       1.261   8.880  19.733  0.00  0.00    +0.000 N 
ATOM     19  C   UNL     1       1.495   8.856  18.251  0.00  0.00    +0.000 C 
ATOM     20  C   UNL     1       2.805   8.117  17.877  0.00  0.00    +0.000 C 
ATOM     21  N   UNL     1       3.028   6.814  18.533  0.00  0.00    +0.000 NA
ATOM     22  C   UNL     1       2.198   5.760  17.956  0.00  0.00    +0.000 C 
ATOM     23  C   UNL     1       2.777   6.972  19.979  0.00  0.00    +0.000 C 
ATOM     24  C   UNL     1       1.392   7.546  20.334  0.00  0.00    +0.000 C 
ENDBRANCH   6  18
TORSDOF 2
ENDMDL
MODEL 6
REMARK VINA RESULT:      -5.5      5.491      7.351
REMARK  Name = 
REMARK  4 active torsions:
REMARK  status: ('A' for Active; 'I' for Inactive)
REMARK    1  A    between atoms: C_1  and  N_2
REMARK    2  A    between atoms: N_5  and  C_6
REMARK    3  A    between atoms: C_11  and  N_12
REMARK    4  A    between atoms: N_15  and  C_16
REMARK                            x       y       z     vdW  Elec       q    Type
REMARK                         _______ _______ _______ _____ _____    ______ ____
ROOT
ATOM      1  C   UNL     1       1.869  14.082  20.263  0.00  0.00    +0.000 C 
ATOM      2  C   UNL     1       2.557  14.318  19.139  0.00  0.00    +0.000 C 
ATOM      3 CL   UNL     1       2.636  13.304  17.761  0.00  0.00    +0.000 Cl
ATOM      4  C   UNL     1       3.489  15.434  19.240  0.00  0.00    +0.000 C 
ATOM      5  O   UNL     1       3.262  16.554  18.818  0.00  0.00    +0.000 OA
ATOM      6  C   UNL     1       4.662  15.084  20.098  0.00  0.00    +0.000 C 
ATOM      7  C   UNL     1       4.138  14.776  21.299  0.00  0.00    +0.000 C 
ATOM      8 CL   UNL     1       5.055  14.412  22.711  0.00  0.00    +0.000 Cl
ATOM      9  C   UNL     1       2.614  14.642  21.481  0.00  0.00    +0.000 C 
ATOM     10  O   UNL     1       2.055  14.894  22.541  0.00  0.00    +0.000 OA
ENDROOT
BRANCH   1  15
ATOM     11  C   UNL     1      -1.224  10.278  17.962  0.00  0.00    +0.000 C 
ATOM     12  N   UNL     1      -0.862  11.208  19.023  0.00  0.00    +0.000 NA
ATOM     13  C   UNL     1      -0.976  12.622  18.592  0.00  0.00    +0.000 C 
ATOM     14  C   UNL     1      -0.597  13.634  19.711  0.00  0.00    +0.000 C 
ATOM     15  N   UNL     1       0.693  13.312  20.365  0.00  0.00    +0.000 N 
ATOM     16  C   UNL     1       0.771  11.868  20.732  0.00  0.00    +0.000 C 
ATOM     17  C   UNL     1       0.512  10.979  19.500  0.00  0.00    +0.000 C 
ENDBRANCH   1  15
BRANCH   6  18
ATOM     18  N   UNL     1       5.925  15.200  19.494  0.00  0.00    +0.000 N 
ATOM     19  C   UNL     1       7.065  15.905  20.167  0.00  0.00    +0.000 C 
ATOM     20  C   UNL     1       8.426  15.214  19.891  0.00  0.00    +0.000 C 
ATOM     21  N   UNL     1       8.699  14.852  18.486  0.00  0.00    +0.000 NA
ATOM     22  C   UNL     1       9.058  16.015  17.680  0.00  0.00    +0.000 C 
ATOM     23  C   UNL     1       7.512  14.161  17.945  0.00  0.00    +0.000 C 
ATOM     24  C   UNL     1       6.194  14.948  18.072  0.00  0.00    +0.000 C 
ENDBRANCH   6  18
TORSDOF 2
ENDMDL
MODEL 7
REMARK VINA RESULT:      -5.5      1.338      7.481
REMARK  Name = 
REMARK  4 active torsions:
REMARK  status: ('A' for Active; 'I' for Inactive)
REMARK    1  A    between atoms: C_1  and  N_2
REMARK    2  A    between atoms: N_5  and  C_6
REMARK    3  A    between atoms: C_11  and  N_12
REMARK    4  A    between atoms: N_15  and  C_16
REMARK                            x       y       z     vdW  Elec       q    Type
REMARK                         _______ _______ _______ _____ _____    ______ ____
ROOT
ATOM      1  C   UNL     1       1.381   8.859  20.106  0.00  0.00    +0.000 C 
ATOM      2  C   UNL     1       1.101   9.605  21.183  0.00  0.00    +0.000 C 
ATOM      3 CL   UNL     1       0.877   9.038  22.783  0.00  0.00    +0.000 Cl
ATOM      4  C   UNL     1       0.735  10.980  20.870  0.00  0.00    +0.000 C 
ATOM      5  O   UNL     1       1.499  11.927  20.955  0.00  0.00    +0.000 OA
ATOM      6  C   UNL     1      -0.621  11.051  20.246  0.00  0.00    +0.000 C 
ATOM      7  C   UNL     1      -0.532  10.305  19.130  0.00  0.00    +0.000 C 
ATOM      8 CL   UNL     1      -1.781  10.136  17.955  0.00  0.00    +0.000 Cl
ATOM      9  C   UNL     1       0.717   9.448  18.855  0.00  0.00    +0.000 C 
ATOM     10  O   UNL     1       1.105   9.196  17.720  0.00  0.00    +0.000 OA
ENDROOT
BRANCH   1  15
ATOM     11  C   UNL     1       1.613   3.837  18.094  0.00  0.00    +0.000 C 
ATOM     12  N   UNL     1       2.097   4.950  18.900  0.00  0.00    +0.000 NA
ATOM     13  C   UNL     1       1.189   5.258  20.031  0.00  0.00    +0.000 C 
ATOM     14  C   UNL     1       1.688   6.442  20.909  0.00  0.00    +0.000 C 
ATOM     15  N   UNL     1       2.069   7.630  20.109  0.00  0.00    +0.000 N 
ATOM     16  C   UNL     1       2.940   7.253  18.957  0.00  0.00    +0.000 C 
ATOM     17  C   UNL     1       2.263   6.171  18.094  0.00  0.00    +0.000 C 
ENDBRANCH   1  15
BRANCH   6  18
ATOM     18  N   UNL     1      -1.563  11.857  20.908  0.00  0.00    +0.000 N 
ATOM     19  C   UNL     1      -1.733  11.818  22.398  0.00  0.00    +0.000 C 
ATOM     20  C   UNL     1      -2.035  13.218  22.990  0.00  0.00    +0.000 C 
ATOM     21  N   UNL     1      -3.069  14.009  22.296  0.00  0.00    +0.000 NA
ATOM     22  C   UNL     1      -4.417  13.529  22.590  0.00  0.00    +0.000 C 
ATOM     23  C   UNL     1      -2.786  13.978  20.848  0.00  0.00    +0.000 C 
ATOM     24  C   UNL     1      -2.665  12.566  20.245  0.00  0.00    +0.000 C 
ENDBRANCH   6  18
TORSDOF 2
ENDMDL
MODEL 8
REMARK VINA RESULT:      -5.5      4.372      7.046
REMARK  Name = 
REMARK  4 active torsions:
REMARK  status: ('A' for Active; 'I' for Inactive)
REMARK    1  A    between atoms: C_1  and  N_2
REMARK    2  A    between atoms: N_5  and  C_6
REMARK    3  A    between atoms: C_11  and  N_12
REMARK    4  A    between atoms: N_15  and  C_16
REMARK                            x       y       z     vdW  Elec       q    Type
REMARK                         _______ _______ _______ _____ _____    ______ ____
ROOT
ATOM      1  C   UNL     1       0.699  12.607  19.878  0.00  0.00    +0.000 C 
ATOM      2  C   UNL     1      -0.374  13.297  19.469  0.00  0.00    +0.000 C 
ATOM      3 CL   UNL     1      -0.458  14.986  19.203  0.00  0.00    +0.000 Cl
ATOM      4  C   UNL     1      -1.613  12.530  19.491  0.00  0.00    +0.000 C 
ATOM      5  O   UNL     1      -2.113  12.011  18.507  0.00  0.00    +0.000 OA
ATOM      6  C   UNL     1      -2.078  12.292  20.891  0.00  0.00    +0.000 C 
ATOM      7  C   UNL     1      -1.076  11.616  21.482  0.00  0.00    +0.000 C 
ATOM      8 CL   UNL     1      -1.128  10.974  23.081  0.00  0.00    +0.000 Cl
ATOM      9  C   UNL     1       0.277  11.432  20.769  0.00  0.00    +0.000 C 
ATOM     10  O   UNL     1       0.992  10.456  20.959  0.00  0.00    +0.000 OA
ENDROOT
BRANCH   1  15
ATOM     11  C   UNL     1       4.167  16.633  18.836  0.00  0.00    +0.000 C 
ATOM     12  N   UNL     1       3.814  15.252  19.135  0.00  0.00    +0.000 NA
ATOM     13  C   UNL     1       3.056  14.617  18.030  0.00  0.00    +0.000 C 
ATOM     14  C   UNL     1       2.670  13.139  18.325  0.00  0.00    +0.000 C 
ATOM     15  N   UNL     1       2.044  12.963  19.656  0.00  0.00    +0.000 N 
ATOM     16  C   UNL     1       2.821  13.664  20.720  0.00  0.00    +0.000 C 
ATOM     17  C   UNL     1       3.010  15.152  20.364  0.00  0.00    +0.000 C 
ENDBRANCH   1  15
BRANCH   6  18
ATOM     18  N   UNL     1      -3.366  12.758  21.201  0.00  0.00    +0.000 N 
ATOM     19  C   UNL     1      -4.502  12.659  20.226  0.00  0.00    +0.000 C 
ATOM     20  C   UNL     1      -5.849  12.343  20.925  0.00  0.00    +0.000 C 
ATOM     21  N   UNL     1      -6.164  13.145  22.123  0.00  0.00    +0.000 NA
ATOM     22  C   UNL     1      -6.593  14.498  21.780  0.00  0.00    +0.000 C 
ATOM     23  C   UNL     1      -4.978  13.157  23.001  0.00  0.00    +0.000 C 
ATOM     24  C   UNL     1      -3.683  13.646  22.327  0.00  0.00    +0.000 C 
ENDBRANCH   6  18
TORSDOF 2
ENDMDL
MODEL 9
REMARK VINA RESULT:      -5.4      2.657      7.701
REMARK  Name = 
REMARK  4 active torsions:
REMARK  status: ('A' for Active; 'I' for Inactive)
REMARK    1  A    between atoms: C_1  and  N_2
REMARK    2  A    between atoms: N_5  and  C_6
REMARK    3  A    between atoms: C_11  and  N_12
REMARK    4  A    between atoms: N_15  and  C_16
REMARK                            x       y       z     vdW  Elec       q    Type
REMARK                         _______ _______ _______ _____ _____    ______ ____
ROOT
ATOM      1  C   UNL     1       2.634   6.652  18.893  0.00  0.00    +0.000 C 
ATOM      2  C   UNL     1       2.641   7.714  18.076  0.00  0.00    +0.000 C 
ATOM      3 CL   UNL     1       3.964   8.276  17.146  0.00  0.00    +0.000 Cl
ATOM      4  C   UNL     1       1.465   8.565  18.206  0.00  0.00    +0.000 C 
ATOM      5  O   UNL     1       0.512   8.536  17.447  0.00  0.00    +0.000 OA
ATOM      6  C   UNL     1       1.489   9.329  19.492  0.00  0.00    +0.000 C 
ATOM      7  C   UNL     1       1.519   8.390  20.455  0.00  0.00    +0.000 C 
ATOM      8 CL   UNL     1       1.435   8.709  22.146  0.00  0.00    +0.000 Cl
ATOM      9  C   UNL     1       1.723   6.905  20.100  0.00  0.00    +0.000 C 
ATOM     10  O   UNL     1       1.253   5.998  20.776  0.00  0.00    +0.000 OA
ENDROOT
BRANCH   1  15
ATOM     11  C   UNL     1       7.131   4.549  16.727  0.00  0.00    +0.000 C 
ATOM     12  N   UNL     1       5.936   4.513  17.560  0.00  0.00    +0.000 NA
ATOM     13  C   UNL     1       4.692   4.597  16.758  0.00  0.00    +0.000 C 
ATOM     14  C   UNL     1       3.402   4.557  17.626  0.00  0.00    +0.000 C 
ATOM     15  N   UNL     1       3.444   5.506  18.763  0.00  0.00    +0.000 N 
ATOM     16  C   UNL     1       4.737   5.413  19.502  0.00  0.00    +0.000 C 
ATOM     17  C   UNL     1       5.927   5.609  18.543  0.00  0.00    +0.000 C 
ENDBRANCH   1  15
BRANCH   6  18
ATOM     18  N   UNL     1       1.431  10.728  19.379  0.00  0.00    +0.000 N 
ATOM     19  C   UNL     1       0.618  11.567  20.320  0.00  0.00    +0.000 C 
ATOM     20  C   UNL     1       1.312  12.912  20.655  0.00  0.00    +0.000 C 
ATOM     21  N   UNL     1       1.857  13.665  19.509  0.00  0.00    +0.000 NA
ATOM     22  C   UNL     1       0.809  14.330  18.741  0.00  0.00    +0.000 C 
ATOM     23  C   UNL     1       2.640  12.737  18.671  0.00  0.00    +0.000 C 
ATOM     24  C   UNL     1       1.870  11.488  18.201  0.00  0.00    +0.000 C 
ENDBRANCH   6  18
TORSDOF 2
ENDMDL
