MODEL 1
REMARK VINA RESULT:      -8.7      0.000      0.000
REMARK  Name = 
REMARK  10 active torsions:
REMARK  status: ('A' for Active; 'I' for Inactive)
REMARK    1  A    between atoms: C_1  and  C_2
REMARK    2  A    between atoms: C_2  and  O_3
REMARK    3  A    between atoms: O_3  and  C_4
REMARK    4  A    between atoms: C_4  and  C_6
REMARK    5  A    between atoms: N_11  and  C_12
REMARK    6  A    between atoms: C_12  and  C_13
REMARK    7  A    between atoms: C_21  and  C_22
REMARK    8  A    between atoms: C_22  and  C_23
REMARK    9  A    between atoms: N_25  and  C_26
REMARK   10  A    between atoms: C_26  and  C_27
REMARK                            x       y       z     vdW  Elec       q    Type
REMARK                         _______ _______ _______ _____ _____    ______ ____
ROOT
ATOM      1  C   UNL     1       5.213   6.297  16.719  0.00  0.00    +0.000 C 
ATOM      2  C   UNL     1       5.734   5.810  15.330  0.00  0.00    +0.000 C 
ATOM      3  C   UNL     1       5.148   4.426  15.067  0.00  0.00    +0.000 C 
ATOM      4  C   UNL     1       4.269   4.171  16.241  0.00  0.00    +0.000 C 
ATOM      5  C   UNL     1       4.279   5.176  17.132  0.00  0.00    +0.000 C 
ATOM      6  N   UNL     1       3.280   5.401  18.092  0.00  0.00    +0.000 N 
ATOM      7  C   UNL     1       3.125   6.655  18.685  0.00  0.00    +0.000 C 
ATOM      8  O   UNL     1       2.585   6.821  19.780  0.00  0.00    +0.000 OA
ATOM      9  C   UNL     1       3.429   7.860  17.785  0.00  0.00    +0.000 C 
ATOM     10  C   UNL     1       4.253   7.455  16.559  0.00  0.00    +0.000 C 
ENDROOT
BRANCH   1  11
ATOM     11  C   UNL     1       6.403   6.889  17.456  0.00  0.00    +0.000 C 
ATOM     12  O   UNL     1       7.040   7.845  17.007  0.00  0.00    +0.000 OA
BRANCH  11  13
ATOM     13  O   UNL     1       6.576   6.377  18.697  0.00  0.00    +0.000 OA
BRANCH  13  15
ATOM     14  C   UNL     1       7.888   4.486  17.933  0.00  0.00    +0.000 C 
ATOM     15  C   UNL     1       7.828   5.684  18.875  0.00  0.00    +0.000 C 
ENDBRANCH  13  15
ENDBRANCH  11  13
ENDBRANCH   1  11
BRANCH   6  16
ATOM     16  C   UNL     1       2.144   4.489  18.291  0.00  0.00    +0.000 C 
BRANCH  16  17
ATOM     17  C   UNL     1       2.186   3.674  19.555  0.00  0.00    +0.000 A 
ATOM     18  C   UNL     1       1.048   3.572  20.364  0.00  0.00    +0.000 A 
ATOM     19  C   UNL     1       1.084   2.828  21.541  0.00  0.00    +0.000 A 
ATOM     20  C   UNL     1       2.250   2.160  21.907  0.00  0.00    +0.000 A 
ATOM     21  C   UNL     1       3.371   2.209  21.083  0.00  0.00    +0.000 A 
ATOM     22  C   UNL     1       3.338   2.956  19.905  0.00  0.00    +0.000 A 
ENDBRANCH  16  17
ENDBRANCH   6  16
BRANCH   9  23
ATOM     23  C   UNL     1       2.050   8.506  17.446  0.00  0.00    +0.000 C 
BRANCH  23  24
ATOM     24  C   UNL     1       1.817   9.982  17.810  0.00  0.00    +0.000 C 
ATOM     25  O   UNL     1       2.754  10.779  17.858  0.00  0.00    +0.000 OA
ATOM     26  N   UNL     1       0.549  10.422  18.147  0.00  0.00    +0.000 N 
ATOM     27  H   UNL     1       0.496  11.431  18.228  0.00  0.00    +0.000 HD
BRANCH  26  28
ATOM     28  C   UNL     1      -0.613   9.740  17.685  0.00  0.00    +0.000 C 
BRANCH  28  29
ATOM     29  C   UNL     1      -2.014  10.200  17.882  0.00  0.00    +0.000 A 
ATOM     30  C   UNL     1      -2.851  10.057  16.758  0.00  0.00    +0.000 A 
ATOM     31  C   UNL     1      -4.034  10.762  16.667  0.00  0.00    +0.000 A 
ATOM     32  C   UNL     1      -4.401  11.614  17.706  0.00  0.00    +0.000 A 
ATOM     33  C   UNL     1      -3.575  11.807  18.829  0.00  0.00    +0.000 A 
ATOM     34  C   UNL     1      -3.918  12.753  19.800  0.00  0.00    +0.000 A 
ATOM     35  C   UNL     1      -3.060  13.047  20.869  0.00  0.00    +0.000 A 
ATOM     36  C   UNL     1      -1.857  12.366  20.991  0.00  0.00    +0.000 A 
ATOM     37  C   UNL     1      -1.514  11.397  20.044  0.00  0.00    +0.000 A 
ATOM     38  C   UNL     1      -2.358  11.096  18.938  0.00  0.00    +0.000 A 
ENDBRANCH  28  29
ENDBRANCH  26  28
ENDBRANCH  23  24
ENDBRANCH   9  23
TORSDOF 9
ENDMDL
MODEL 2
REMARK VINA RESULT:      -8.7      3.023      9.976
REMARK  Name = 
REMARK  10 active torsions:
REMARK  status: ('A' for Active; 'I' for Inactive)
REMARK    1  A    between atoms: C_1  and  C_2
REMARK    2  A    between atoms: C_2  and  O_3
REMARK    3  A    between atoms: O_3  and  C_4
REMARK    4  A    between atoms: C_4  and  C_6
REMARK    5  A    between atoms: N_11  and  C_12
REMARK    6  A    between atoms: C_12  and  C_13
REMARK    7  A    between atoms: C_21  and  C_22
REMARK    8  A    between atoms: C_22  and  C_23
REMARK    9  A    between atoms: N_25  and  C_26
REMARK   10  A    between atoms: C_26  and  C_27
REMARK                            x       y       z     vdW  Elec       q    Type
REMARK                         _______ _______ _______ _____ _____    ______ ____
ROOT
ATOM      1  C   UNL     1      -1.928  13.215  22.483  0.00  0.00    +0.000 C 
ATOM      2  C   UNL     1      -3.403  13.062  22.974  0.00  0.00    +0.000 C 
ATOM      3  C   UNL     1      -4.323  13.313  21.783  0.00  0.00    +0.000 C 
ATOM      4  C   UNL     1      -3.394  13.530  20.641  0.00  0.00    +0.000 C 
ATOM      5  C   UNL     1      -2.100  13.465  20.997  0.00  0.00    +0.000 C 
ATOM      6  N   UNL     1      -1.039  13.226  20.109  0.00  0.00    +0.000 N 
ATOM      7  C   UNL     1       0.190  12.756  20.571  0.00  0.00    +0.000 C 
ATOM      8  O   UNL     1       1.247  12.916  19.956  0.00  0.00    +0.000 OA
ATOM      9  C   UNL     1       0.131  11.798  21.767  0.00  0.00    +0.000 C 
ATOM     10  C   UNL     1      -1.216  11.880  22.490  0.00  0.00    +0.000 C 
ENDROOT
BRANCH   1  11
ATOM     11  C   UNL     1      -1.196  14.043  23.526  0.00  0.00    +0.000 C 
ATOM     12  O   UNL     1      -0.204  14.720  23.245  0.00  0.00    +0.000 OA
BRANCH  11  13
ATOM     13  O   UNL     1      -1.832  14.088  24.720  0.00  0.00    +0.000 OA
BRANCH  13  15
ATOM     14  C   UNL     1      -3.073  16.116  25.197  0.00  0.00    +0.000 C 
ATOM     15  C   UNL     1      -1.755  15.370  25.376  0.00  0.00    +0.000 C 
ENDBRANCH  13  15
ENDBRANCH  11  13
ENDBRANCH   1  11
BRANCH   6  16
ATOM     16  C   UNL     1      -1.226  13.117  18.654  0.00  0.00    +0.000 C 
BRANCH  16  17
ATOM     17  C   UNL     1      -1.882  11.849  18.182  0.00  0.00    +0.000 A 
ATOM     18  C   UNL     1      -3.263  11.815  17.953  0.00  0.00    +0.000 A 
ATOM     19  C   UNL     1      -3.878  10.640  17.526  0.00  0.00    +0.000 A 
ATOM     20  C   UNL     1      -3.115   9.496  17.302  0.00  0.00    +0.000 A 
ATOM     21  C   UNL     1      -1.733   9.533  17.475  0.00  0.00    +0.000 A 
ATOM     22  C   UNL     1      -1.116  10.708  17.905  0.00  0.00    +0.000 A 
ENDBRANCH  16  17
ENDBRANCH   6  16
BRANCH   9  23
ATOM     23  C   UNL     1       0.471  10.383  21.205  0.00  0.00    +0.000 C 
BRANCH  23  24
ATOM     24  C   UNL     1       1.124   9.353  22.143  0.00  0.00    +0.000 C 
ATOM     25  O   UNL     1       1.058   9.479  23.366  0.00  0.00    +0.000 OA
ATOM     26  N   UNL     1       1.846   8.296  21.618  0.00  0.00    +0.000 N 
ATOM     27  H   UNL     1       2.105   7.614  22.323  0.00  0.00    +0.000 HD
BRANCH  26  28
ATOM     28  C   UNL     1       1.595   7.815  20.302  0.00  0.00    +0.000 C 
BRANCH  28  29
ATOM     29  C   UNL     1       2.432   6.823  19.576  0.00  0.00    +0.000 A 
ATOM     30  C   UNL     1       3.155   7.341  18.482  0.00  0.00    +0.000 A 
ATOM     31  C   UNL     1       3.663   6.500  17.513  0.00  0.00    +0.000 A 
ATOM     32  C   UNL     1       3.464   5.126  17.630  0.00  0.00    +0.000 A 
ATOM     33  C   UNL     1       2.720   4.576  18.690  0.00  0.00    +0.000 A 
ATOM     34  C   UNL     1       2.443   3.205  18.719  0.00  0.00    +0.000 A 
ATOM     35  C   UNL     1       1.612   2.649  19.700  0.00  0.00    +0.000 A 
ATOM     36  C   UNL     1       1.074   3.462  20.687  0.00  0.00    +0.000 A 
ATOM     37  C   UNL     1       1.365   4.828  20.689  0.00  0.00    +0.000 A 
ATOM     38  C   UNL     1       2.189   5.422  19.691  0.00  0.00    +0.000 A 
ENDBRANCH  28  29
ENDBRANCH  26  28
ENDBRANCH  23  24
ENDBRANCH   9  23
TORSDOF 9
ENDMDL
MODEL 3
REMARK VINA RESULT:      -8.6      3.244     10.006
REMARK  Name = 
REMARK  10 active torsions:
REMARK  status: ('A' for Active; 'I' for Inactive)
REMARK    1  A    between atoms: C_1  and  C_2
REMARK    2  A    between atoms: C_2  and  O_3
REMARK    3  A    between atoms: O_3  and  C_4
REMARK    4  A    between atoms: C_4  and  C_6
REMARK    5  A    between atoms: N_11  and  C_12
REMARK    6  A    between atoms: C_12  and  C_13
REMARK    7  A    between atoms: C_21  and  C_22
REMARK    8  A    between atoms: C_22  and  C_23
REMARK    9  A    between atoms: N_25  and  C_26
REMARK   10  A    between atoms: C_26  and  C_27
REMARK                            x       y       z     vdW  Elec       q    Type
REMARK                         _______ _______ _______ _____ _____    ______ ____
ROOT
ATOM      1  C   UNL     1      -2.648  13.228  22.644  0.00  0.00    +0.000 C 
ATOM      2  C   UNL     1      -4.207  13.223  22.548  0.00  0.00    +0.000 C 
ATOM      3  C   UNL     1      -4.593  13.686  21.147  0.00  0.00    +0.000 C 
ATOM      4  C   UNL     1      -3.290  13.877  20.452  0.00  0.00    +0.000 C 
ATOM      5  C   UNL     1      -2.233  13.619  21.240  0.00  0.00    +0.000 C 
ATOM      6  N   UNL     1      -0.943  13.322  20.771  0.00  0.00    +0.000 N 
ATOM      7  C   UNL     1      -0.020  12.663  21.583  0.00  0.00    +0.000 C 
ATOM      8  O   UNL     1       1.199  12.737  21.415  0.00  0.00    +0.000 OA
ATOM      9  C   UNL     1      -0.603  11.624  22.550  0.00  0.00    +0.000 C 
ATOM     10  C   UNL     1      -2.110  11.817  22.743  0.00  0.00    +0.000 C 
ENDROOT
BRANCH   1  11
ATOM     11  C   UNL     1      -2.287  13.867  23.975  0.00  0.00    +0.000 C 
ATOM     12  O   UNL     1      -3.009  13.756  24.969  0.00  0.00    +0.000 OA
BRANCH  11  13
ATOM     13  O   UNL     1      -1.047  14.409  23.994  0.00  0.00    +0.000 OA
BRANCH  13  15
ATOM     14  C   UNL     1      -2.042  16.548  23.433  0.00  0.00    +0.000 C 
ATOM     15  C   UNL     1      -1.029  15.816  24.307  0.00  0.00    +0.000 C 
ENDBRANCH  13  15
ENDBRANCH  11  13
ENDBRANCH   1  11
BRANCH   6  16
ATOM     16  C   UNL     1      -0.584  13.357  19.345  0.00  0.00    +0.000 C 
BRANCH  16  17
ATOM     17  C   UNL     1      -0.869  12.096  18.577  0.00  0.00    +0.000 A 
ATOM     18  C   UNL     1       0.031  11.024  18.627  0.00  0.00    +0.000 A 
ATOM     19  C   UNL     1      -0.222   9.857  17.910  0.00  0.00    +0.000 A 
ATOM     20  C   UNL     1      -1.388   9.742  17.155  0.00  0.00    +0.000 A 
ATOM     21  C   UNL     1      -2.316  10.781  17.142  0.00  0.00    +0.000 A 
ATOM     22  C   UNL     1      -2.063  11.951  17.857  0.00  0.00    +0.000 A 
ENDBRANCH  16  17
ENDBRANCH   6  16
BRANCH   9  23
ATOM     23  C   UNL     1      -0.204  10.228  21.978  0.00  0.00    +0.000 C 
BRANCH  23  24
ATOM     24  C   UNL     1       0.802   9.369  22.763  0.00  0.00    +0.000 C 
ATOM     25  O   UNL     1       0.956   9.523  23.974  0.00  0.00    +0.000 OA
ATOM     26  N   UNL     1       1.591   8.446  22.100  0.00  0.00    +0.000 N 
ATOM     27  H   UNL     1       2.107   7.848  22.736  0.00  0.00    +0.000 HD
BRANCH  26  28
ATOM     28  C   UNL     1       1.180   7.883  20.859  0.00  0.00    +0.000 C 
BRANCH  28  29
ATOM     29  C   UNL     1       2.054   7.112  19.934  0.00  0.00    +0.000 A 
ATOM     30  C   UNL     1       2.606   7.860  18.875  0.00  0.00    +0.000 A 
ATOM     31  C   UNL     1       3.115   7.228  17.758  0.00  0.00    +0.000 A 
ATOM     32  C   UNL     1       3.087   5.838  17.689  0.00  0.00    +0.000 A 
ATOM     33  C   UNL     1       2.514   5.059  18.713  0.00  0.00    +0.000 A 
ATOM     34  C   UNL     1       2.401   3.673  18.563  0.00  0.00    +0.000 A 
ATOM     35  C   UNL     1       1.734   2.889  19.515  0.00  0.00    +0.000 A 
ATOM     36  C   UNL     1       1.202   3.487  20.648  0.00  0.00    +0.000 A 
ATOM     37  C   UNL     1       1.333   4.866  20.825  0.00  0.00    +0.000 A 
ATOM     38  C   UNL     1       1.985   5.688  19.864  0.00  0.00    +0.000 A 
ENDBRANCH  28  29
ENDBRANCH  26  28
ENDBRANCH  23  24
ENDBRANCH   9  23
TORSDOF 9
ENDMDL
MODEL 4
REMARK VINA RESULT:      -8.5      3.093      9.256
REMARK  Name = 
REMARK  10 active torsions:
REMARK  status: ('A' for Active; 'I' for Inactive)
REMARK    1  A    between atoms: C_1  and  C_2
REMARK    2  A    between atoms: C_2  and  O_3
REMARK    3  A    between atoms: O_3  and  C_4
REMARK    4  A    between atoms: C_4  and  C_6
REMARK    5  A    between atoms: N_11  and  C_12
REMARK    6  A    between atoms: C_12  and  C_13
REMARK    7  A    between atoms: C_21  and  C_22
REMARK    8  A    between atoms: C_22  and  C_23
REMARK    9  A    between atoms: N_25  and  C_26
REMARK   10  A    between atoms: C_26  and  C_27
REMARK                            x       y       z     vdW  Elec       q    Type
REMARK                         _______ _______ _______ _____ _____    ______ ____
ROOT
ATOM      1  C   UNL     1       1.003  13.584  20.260  0.00  0.00    +0.000 C 
ATOM      2  C   UNL     1       1.415  14.743  21.221  0.00  0.00    +0.000 C 
ATOM      3  C   UNL     1       0.168  15.566  21.529  0.00  0.00    +0.000 C 
ATOM      4  C   UNL     1      -0.928  14.849  20.820  0.00  0.00    +0.000 C 
ATOM      5  C   UNL     1      -0.498  13.770  20.145  0.00  0.00    +0.000 C 
ATOM      6  N   UNL     1      -1.317  12.705  19.739  0.00  0.00    +0.000 N 
ATOM      7  C   UNL     1      -0.772  11.457  19.435  0.00  0.00    +0.000 C 
ATOM      8  O   UNL     1      -1.332  10.637  18.704  0.00  0.00    +0.000 OA
ATOM      9  C   UNL     1       0.450  11.043  20.264  0.00  0.00    +0.000 C 
ATOM     10  C   UNL     1       1.094  12.245  20.960  0.00  0.00    +0.000 C 
ENDROOT
BRANCH   1  11
ATOM     11  C   UNL     1       2.057  13.515  19.169  0.00  0.00    +0.000 C 
ATOM     12  O   UNL     1       1.888  12.860  18.137  0.00  0.00    +0.000 OA
BRANCH  11  13
ATOM     13  O   UNL     1       3.096  14.360  19.370  0.00  0.00    +0.000 OA
BRANCH  13  15
ATOM     14  C   UNL     1       5.094  14.650  18.027  0.00  0.00    +0.000 C 
ATOM     15  C   UNL     1       3.606  14.957  18.161  0.00  0.00    +0.000 C 
ENDBRANCH  13  15
ENDBRANCH  11  13
ENDBRANCH   1  11
BRANCH   6  16
ATOM     16  C   UNL     1      -2.776  12.703  19.928  0.00  0.00    +0.000 C 
BRANCH  16  17
ATOM     17  C   UNL     1      -3.240  12.743  21.358  0.00  0.00    +0.000 A 
ATOM     18  C   UNL     1      -4.428  13.402  21.694  0.00  0.00    +0.000 A 
ATOM     19  C   UNL     1      -4.857  13.452  23.018  0.00  0.00    +0.000 A 
ATOM     20  C   UNL     1      -4.115  12.823  24.015  0.00  0.00    +0.000 A 
ATOM     21  C   UNL     1      -2.960  12.118  23.685  0.00  0.00    +0.000 A 
ATOM     22  C   UNL     1      -2.527  12.069  22.360  0.00  0.00    +0.000 A 
ENDBRANCH  16  17
ENDBRANCH   6  16
BRANCH   9  23
ATOM     23  C   UNL     1      -0.045   9.929  21.238  0.00  0.00    +0.000 C 
BRANCH  23  24
ATOM     24  C   UNL     1       0.974   9.265  22.180  0.00  0.00    +0.000 C 
ATOM     25  O   UNL     1       1.144   9.683  23.324  0.00  0.00    +0.000 OA
ATOM     26  N   UNL     1       1.757   8.218  21.727  0.00  0.00    +0.000 N 
ATOM     27  H   UNL     1       2.284   7.776  22.473  0.00  0.00    +0.000 HD
BRANCH  26  28
ATOM     28  C   UNL     1       1.331   7.393  20.647  0.00  0.00    +0.000 C 
BRANCH  28  29
ATOM     29  C   UNL     1       2.224   6.560  19.799  0.00  0.00    +0.000 A 
ATOM     30  C   UNL     1       2.901   7.259  18.780  0.00  0.00    +0.000 A 
ATOM     31  C   UNL     1       3.454   6.584  17.710  0.00  0.00    +0.000 A 
ATOM     32  C   UNL     1       3.346   5.197  17.651  0.00  0.00    +0.000 A 
ATOM     33  C   UNL     1       2.649   4.468  18.633  0.00  0.00    +0.000 A 
ATOM     34  C   UNL     1       2.463   3.089  18.485  0.00  0.00    +0.000 A 
ATOM     35  C   UNL     1       1.679   2.359  19.389  0.00  0.00    +0.000 A 
ATOM     36  C   UNL     1       1.099   3.002  20.472  0.00  0.00    +0.000 A 
ATOM     37  C   UNL     1       1.300   4.373  20.649  0.00  0.00    +0.000 A 
ATOM     38  C   UNL     1       2.074   5.142  19.734  0.00  0.00    +0.000 A 
ENDBRANCH  28  29
ENDBRANCH  26  28
ENDBRANCH  23  24
ENDBRANCH   9  23
TORSDOF 9
ENDMDL
MODEL 5
REMARK VINA RESULT:      -8.4      3.189     10.043
REMARK  Name = 
REMARK  10 active torsions:
REMARK  status: ('A' for Active; 'I' for Inactive)
REMARK    1  A    between atoms: C_1  and  C_2
REMARK    2  A    between atoms: C_2  and  O_3
REMARK    3  A    between atoms: O_3  and  C_4
REMARK    4  A    between atoms: C_4  and  C_6
REMARK    5  A    between atoms: N_11  and  C_12
REMARK    6  A    between atoms: C_12  and  C_13
REMARK    7  A    between atoms: C_21  and  C_22
REMARK    8  A    between atoms: C_22  and  C_23
REMARK    9  A    between atoms: N_25  and  C_26
REMARK   10  A    between atoms: C_26  and  C_27
REMARK                            x       y       z     vdW  Elec       q    Type
REMARK                         _______ _______ _______ _____ _____    ______ ____
ROOT
ATOM      1  C   UNL     1      -1.763  13.906  22.505  0.00  0.00    +0.000 C 
ATOM      2  C   UNL     1      -3.250  14.159  22.912  0.00  0.00    +0.000 C 
ATOM      3  C   UNL     1      -4.032  14.501  21.648  0.00  0.00    +0.000 C 
ATOM      4  C   UNL     1      -3.031  14.375  20.552  0.00  0.00    +0.000 C 
ATOM      5  C   UNL     1      -1.808  14.039  20.995  0.00  0.00    +0.000 C 
ATOM      6  N   UNL     1      -0.802  13.466  20.201  0.00  0.00    +0.000 N 
ATOM      7  C   UNL     1       0.256  12.765  20.781  0.00  0.00    +0.000 C 
ATOM      8  O   UNL     1       1.344  12.605  20.224  0.00  0.00    +0.000 OA
ATOM      9  C   UNL     1      -0.084  11.974  22.050  0.00  0.00    +0.000 C 
ATOM     10  C   UNL     1      -1.399  12.447  22.675  0.00  0.00    +0.000 C 
ENDROOT
BRANCH   1  11
ATOM     11  C   UNL     1      -0.896  14.636  23.517  0.00  0.00    +0.000 C 
ATOM     12  O   UNL     1       0.112  15.264  23.181  0.00  0.00    +0.000 OA
BRANCH  11  13
ATOM     13  O   UNL     1      -1.426  14.661  24.762  0.00  0.00    +0.000 OA
BRANCH  13  15
ATOM     14  C   UNL     1      -2.279  16.809  25.496  0.00  0.00    +0.000 C 
ATOM     15  C   UNL     1      -1.097  15.847  25.514  0.00  0.00    +0.000 C 
ENDBRANCH  13  15
ENDBRANCH  11  13
ENDBRANCH   1  11
BRANCH   6  16
ATOM     16  C   UNL     1      -0.950  13.259  18.753  0.00  0.00    +0.000 C 
BRANCH  16  17
ATOM     17  C   UNL     1      -1.612  11.970  18.350  0.00  0.00    +0.000 A 
ATOM     18  C   UNL     1      -3.008  11.886  18.288  0.00  0.00    +0.000 A 
ATOM     19  C   UNL     1      -3.627  10.692  17.927  0.00  0.00    +0.000 A 
ATOM     20  C   UNL     1      -2.856   9.578  17.602  0.00  0.00    +0.000 A 
ATOM     21  C   UNL     1      -1.466   9.665  17.607  0.00  0.00    +0.000 A 
ATOM     22  C   UNL     1      -0.844  10.860  17.972  0.00  0.00    +0.000 A 
ENDBRANCH  16  17
ENDBRANCH   6  16
BRANCH   9  23
ATOM     23  C   UNL     1      -0.076  10.469  21.637  0.00  0.00    +0.000 C 
BRANCH  23  24
ATOM     24  C   UNL     1       0.684   9.465  22.520  0.00  0.00    +0.000 C 
ATOM     25  O   UNL     1       0.536   9.458  23.742  0.00  0.00    +0.000 OA
ATOM     26  N   UNL     1       1.593   8.590  21.952  0.00  0.00    +0.000 N 
ATOM     27  H   UNL     1       1.921   7.890  22.609  0.00  0.00    +0.000 HD
BRANCH  26  28
ATOM     28  C   UNL     1       1.491   8.209  20.584  0.00  0.00    +0.000 C 
BRANCH  28  29
ATOM     29  C   UNL     1       1.737   6.841  20.053  0.00  0.00    +0.000 A 
ATOM     30  C   UNL     1       1.418   5.793  20.938  0.00  0.00    +0.000 A 
ATOM     31  C   UNL     1       1.927   4.525  20.740  0.00  0.00    +0.000 A 
ATOM     32  C   UNL     1       2.756   4.287  19.647  0.00  0.00    +0.000 A 
ATOM     33  C   UNL     1       3.124   5.317  18.761  0.00  0.00    +0.000 A 
ATOM     34  C   UNL     1       4.047   5.070  17.739  0.00  0.00    +0.000 A 
ATOM     35  C   UNL     1       4.515   6.102  16.914  0.00  0.00    +0.000 A 
ATOM     36  C   UNL     1       4.034   7.392  17.087  0.00  0.00    +0.000 A 
ATOM     37  C   UNL     1       3.089   7.648  18.084  0.00  0.00    +0.000 A 
ATOM     38  C   UNL     1       2.615   6.622  18.949  0.00  0.00    +0.000 A 
ENDBRANCH  28  29
ENDBRANCH  26  28
ENDBRANCH  23  24
ENDBRANCH   9  23
TORSDOF 9
ENDMDL
MODEL 6
REMARK VINA RESULT:      -8.3      0.712      1.381
REMARK  Name = 
REMARK  10 active torsions:
REMARK  status: ('A' for Active; 'I' for Inactive)
REMARK    1  A    between atoms: C_1  and  C_2
REMARK    2  A    between atoms: C_2  and  O_3
REMARK    3  A    between atoms: O_3  and  C_4
REMARK    4  A    between atoms: C_4  and  C_6
REMARK    5  A    between atoms: N_11  and  C_12
REMARK    6  A    between atoms: C_12  and  C_13
REMARK    7  A    between atoms: C_21  and  C_22
REMARK    8  A    between atoms: C_22  and  C_23
REMARK    9  A    between atoms: N_25  and  C_26
REMARK   10  A    between atoms: C_26  and  C_27
REMARK                            x       y       z     vdW  Elec       q    Type
REMARK                         _______ _______ _______ _____ _____    ______ ____
ROOT
ATOM      1  C   UNL     1       5.470   6.172  16.801  0.00  0.00    +0.000 C 
ATOM      2  C   UNL     1       6.058   5.678  15.440  0.00  0.00    +0.000 C 
ATOM      3  C   UNL     1       5.471   4.301  15.146  0.00  0.00    +0.000 C 
ATOM      4  C   UNL     1       4.527   4.057  16.271  0.00  0.00    +0.000 C 
ATOM      5  C   UNL     1       4.502   5.062  17.163  0.00  0.00    +0.000 C 
ATOM      6  N   UNL     1       3.456   5.299  18.068  0.00  0.00    +0.000 N 
ATOM      7  C   UNL     1       3.285   6.555  18.652  0.00  0.00    +0.000 C 
ATOM      8  O   UNL     1       2.690   6.727  19.718  0.00  0.00    +0.000 OA
ATOM      9  C   UNL     1       3.651   7.756  17.771  0.00  0.00    +0.000 C 
ATOM     10  C   UNL     1       4.534   7.341  16.591  0.00  0.00    +0.000 C 
ENDROOT
BRANCH   1  11
ATOM     11  C   UNL     1       6.627   6.748  17.600  0.00  0.00    +0.000 C 
ATOM     12  O   UNL     1       6.981   6.264  18.678  0.00  0.00    +0.000 OA
BRANCH  11  13
ATOM     13  O   UNL     1       7.308   7.714  16.941  0.00  0.00    +0.000 OA
BRANCH  13  15
ATOM     14  C   UNL     1       8.689   9.084  18.390  0.00  0.00    +0.000 C 
ATOM     15  C   UNL     1       7.364   8.973  17.642  0.00  0.00    +0.000 C 
ENDBRANCH  13  15
ENDBRANCH  11  13
ENDBRANCH   1  11
BRANCH   6  16
ATOM     16  C   UNL     1       2.300   4.400  18.206  0.00  0.00    +0.000 C 
BRANCH  16  17
ATOM     17  C   UNL     1       2.233   3.631  19.496  0.00  0.00    +0.000 A 
ATOM     18  C   UNL     1       3.392   3.065  20.039  0.00  0.00    +0.000 A 
ATOM     19  C   UNL     1       3.334   2.342  21.228  0.00  0.00    +0.000 A 
ATOM     20  C   UNL     1       2.121   2.198  21.897  0.00  0.00    +0.000 A 
ATOM     21  C   UNL     1       0.970   2.802  21.395  0.00  0.00    +0.000 A 
ATOM     22  C   UNL     1       1.027   3.524  20.203  0.00  0.00    +0.000 A 
ENDBRANCH  16  17
ENDBRANCH   6  16
BRANCH   9  23
ATOM     23  C   UNL     1       2.300   8.419  17.359  0.00  0.00    +0.000 C 
BRANCH  23  24
ATOM     24  C   UNL     1       2.037   9.877  17.772  0.00  0.00    +0.000 C 
ATOM     25  O   UNL     1       2.959  10.689  17.850  0.00  0.00    +0.000 OA
ATOM     26  N   UNL     1       0.759  10.280  18.119  0.00  0.00    +0.000 N 
ATOM     27  H   UNL     1       0.687  11.285  18.234  0.00  0.00    +0.000 HD
BRANCH  26  28
ATOM     28  C   UNL     1      -0.387   9.592  17.630  0.00  0.00    +0.000 C 
BRANCH  28  29
ATOM     29  C   UNL     1      -1.791  10.069  17.751  0.00  0.00    +0.000 A 
ATOM     30  C   UNL     1      -2.558   9.967  16.573  0.00  0.00    +0.000 A 
ATOM     31  C   UNL     1      -3.724  10.693  16.427  0.00  0.00    +0.000 A 
ATOM     32  C   UNL     1      -4.143  11.523  17.463  0.00  0.00    +0.000 A 
ATOM     33  C   UNL     1      -3.386  11.676  18.640  0.00  0.00    +0.000 A 
ATOM     34  C   UNL     1      -3.776  12.602  19.613  0.00  0.00    +0.000 A 
ATOM     35  C   UNL     1      -2.983  12.855  20.740  0.00  0.00    +0.000 A 
ATOM     36  C   UNL     1      -1.799  12.152  20.919  0.00  0.00    +0.000 A 
ATOM     37  C   UNL     1      -1.411  11.203  19.971  0.00  0.00    +0.000 A 
ATOM     38  C   UNL     1      -2.188  10.943  18.807  0.00  0.00    +0.000 A 
ENDBRANCH  28  29
ENDBRANCH  26  28
ENDBRANCH  23  24
ENDBRANCH   9  23
TORSDOF 9
ENDMDL
MODEL 7
REMARK VINA RESULT:      -8.3      5.698      9.101
REMARK  Name = 
REMARK  10 active torsions:
REMARK  status: ('A' for Active; 'I' for Inactive)
REMARK    1  A    between atoms: C_1  and  C_2
REMARK    2  A    between atoms: C_2  and  O_3
REMARK    3  A    between atoms: O_3  and  C_4
REMARK    4  A    between atoms: C_4  and  C_6
REMARK    5  A    between atoms: N_11  and  C_12
REMARK    6  A    between atoms: C_12  and  C_13
REMARK    7  A    between atoms: C_21  and  C_22
REMARK    8  A    between atoms: C_22  and  C_23
REMARK    9  A    between atoms: N_25  and  C_26
REMARK   10  A    between atoms: C_26  and  C_27
REMARK                            x       y       z     vdW  Elec       q    Type
REMARK                         _______ _______ _______ _____ _____    ______ ____
ROOT
ATOM      1  C   UNL     1      -1.136  12.851  22.303  0.00  0.00    +0.000 C 
ATOM      2  C   UNL     1      -1.769  13.984  23.171  0.00  0.00    +0.000 C 
ATOM      3  C   UNL     1      -0.803  15.165  23.180  0.00  0.00    +0.000 C 
ATOM      4  C   UNL     1       0.308  14.736  22.287  0.00  0.00    +0.000 C 
ATOM      5  C   UNL     1       0.136  13.499  21.793  0.00  0.00    +0.000 C 
ATOM      6  N   UNL     1       0.777  13.001  20.647  0.00  0.00    +0.000 N 
ATOM      7  C   UNL     1       0.259  11.906  19.956  0.00  0.00    +0.000 C 
ATOM      8  O   UNL     1       0.945  11.180  19.233  0.00  0.00    +0.000 OA
ATOM      9  C   UNL     1      -1.270  11.794  19.932  0.00  0.00    +0.000 C 
ATOM     10  C   UNL     1      -1.916  12.653  21.022  0.00  0.00    +0.000 C 
ENDROOT
BRANCH   1  11
ATOM     11  C   UNL     1      -1.323  11.550  23.067  0.00  0.00    +0.000 C 
ATOM     12  O   UNL     1      -2.439  11.144  23.402  0.00  0.00    +0.000 OA
BRANCH  11  13
ATOM     13  O   UNL     1      -0.184  10.828  23.188  0.00  0.00    +0.000 OA
BRANCH  13  15
ATOM     14  C   UNL     1       0.985   9.004  22.100  0.00  0.00    +0.000 C 
ATOM     15  C   UNL     1      -0.313   9.458  22.759  0.00  0.00    +0.000 C 
ENDBRANCH  13  15
ENDBRANCH  11  13
ENDBRANCH   1  11
BRANCH   6  16
ATOM     16  C   UNL     1       1.795  13.763  19.908  0.00  0.00    +0.000 C 
BRANCH  16  17
ATOM     17  C   UNL     1       1.344  15.096  19.378  0.00  0.00    +0.000 A 
ATOM     18  C   UNL     1       0.062  15.238  18.832  0.00  0.00    +0.000 A 
ATOM     19  C   UNL     1      -0.357  16.468  18.330  0.00  0.00    +0.000 A 
ATOM     20  C   UNL     1       0.491  17.572  18.390  0.00  0.00    +0.000 A 
ATOM     21  C   UNL     1       1.747  17.455  18.981  0.00  0.00    +0.000 A 
ATOM     22  C   UNL     1       2.170  16.224  19.482  0.00  0.00    +0.000 A 
ENDBRANCH  16  17
ENDBRANCH   6  16
BRANCH   9  23
ATOM     23  C   UNL     1      -1.708  12.165  18.480  0.00  0.00    +0.000 C 
BRANCH  23  24
ATOM     24  C   UNL     1      -2.334  11.073  17.596  0.00  0.00    +0.000 C 
ATOM     25  O   UNL     1      -1.670  10.111  17.212  0.00  0.00    +0.000 OA
ATOM     26  N   UNL     1      -3.647  11.190  17.174  0.00  0.00    +0.000 N 
ATOM     27  H   UNL     1      -3.986  10.349  16.720  0.00  0.00    +0.000 HD
BRANCH  26  28
ATOM     28  C   UNL     1      -4.590  11.964  17.908  0.00  0.00    +0.000 C 
BRANCH  28  29
ATOM     29  C   UNL     1      -5.412  11.465  19.043  0.00  0.00    +0.000 A 
ATOM     30  C   UNL     1      -6.194  10.329  18.757  0.00  0.00    +0.000 A 
ATOM     31  C   UNL     1      -7.260   9.986  19.565  0.00  0.00    +0.000 A 
ATOM     32  C   UNL     1      -7.550  10.771  20.678  0.00  0.00    +0.000 A 
ATOM     33  C   UNL     1      -6.811  11.932  20.977  0.00  0.00    +0.000 A 
ATOM     34  C   UNL     1      -7.198  12.759  22.036  0.00  0.00    +0.000 A 
ATOM     35  C   UNL     1      -6.550  13.977  22.285  0.00  0.00    +0.000 A 
ATOM     36  C   UNL     1      -5.480  14.361  21.489  0.00  0.00    +0.000 A 
ATOM     37  C   UNL     1      -5.063  13.531  20.446  0.00  0.00    +0.000 A 
ATOM     38  C   UNL     1      -5.719  12.301  20.158  0.00  0.00    +0.000 A 
ENDBRANCH  28  29
ENDBRANCH  26  28
ENDBRANCH  23  24
ENDBRANCH   9  23
TORSDOF 9
ENDMDL
MODEL 8
REMARK VINA RESULT:      -8.2      3.058      9.836
REMARK  Name = 
REMARK  10 active torsions:
REMARK  status: ('A' for Active; 'I' for Inactive)
REMARK    1  A    between atoms: C_1  and  C_2
REMARK    2  A    between atoms: C_2  and  O_3
REMARK    3  A    between atoms: O_3  and  C_4
REMARK    4  A    between atoms: C_4  and  C_6
REMARK    5  A    between atoms: N_11  and  C_12
REMARK    6  A    between atoms: C_12  and  C_13
REMARK    7  A    between atoms: C_21  and  C_22
REMARK    8  A    between atoms: C_22  and  C_23
REMARK    9  A    between atoms: N_25  and  C_26
REMARK   10  A    between atoms: C_26  and  C_27
REMARK                            x       y       z     vdW  Elec       q    Type
REMARK                         _______ _______ _______ _____ _____    ______ ____
ROOT
ATOM      1  C   UNL     1      -1.849  13.683  22.343  0.00  0.00    +0.000 C 
ATOM      2  C   UNL     1      -3.333  13.782  22.819  0.00  0.00    +0.000 C 
ATOM      3  C   UNL     1      -4.203  14.058  21.596  0.00  0.00    +0.000 C 
ATOM      4  C   UNL     1      -3.246  14.043  20.456  0.00  0.00    +0.000 C 
ATOM      5  C   UNL     1      -1.976  13.826  20.839  0.00  0.00    +0.000 C 
ATOM      6  N   UNL     1      -0.955  13.365  19.992  0.00  0.00    +0.000 N 
ATOM      7  C   UNL     1       0.192  12.767  20.514  0.00  0.00    +0.000 C 
ATOM      8  O   UNL     1       1.264  12.723  19.907  0.00  0.00    +0.000 OA
ATOM      9  C   UNL     1      -0.009  11.933  21.785  0.00  0.00    +0.000 C 
ATOM     10  C   UNL     1      -1.335  12.266  22.475  0.00  0.00    +0.000 C 
ENDROOT
BRANCH   1  11
ATOM     11  C   UNL     1      -1.013  14.485  23.326  0.00  0.00    +0.000 C 
ATOM     12  O   UNL     1      -0.929  14.174  24.517  0.00  0.00    +0.000 OA
BRANCH  11  13
ATOM     13  O   UNL     1      -0.262  15.444  22.737  0.00  0.00    +0.000 OA
BRANCH  13  15
ATOM     14  C   UNL     1       1.507  16.953  23.425  0.00  0.00    +0.000 C 
ATOM     15  C   UNL     1       0.044  16.559  23.599  0.00  0.00    +0.000 C 
ENDBRANCH  13  15
ENDBRANCH  11  13
ENDBRANCH   1  11
BRANCH   6  16
ATOM     16  C   UNL     1      -1.148  13.159  18.549  0.00  0.00    +0.000 C 
BRANCH  16  17
ATOM     17  C   UNL     1      -1.824  11.872  18.166  0.00  0.00    +0.000 A 
ATOM     18  C   UNL     1      -3.220  11.812  18.071  0.00  0.00    +0.000 A 
ATOM     19  C   UNL     1      -3.853  10.620  17.728  0.00  0.00    +0.000 A 
ATOM     20  C   UNL     1      -3.096   9.483  17.454  0.00  0.00    +0.000 A 
ATOM     21  C   UNL     1      -1.704   9.545  17.493  0.00  0.00    +0.000 A 
ATOM     22  C   UNL     1      -1.069  10.737  17.839  0.00  0.00    +0.000 A 
ENDBRANCH  16  17
ENDBRANCH   6  16
BRANCH   9  23
ATOM     23  C   UNL     1       0.129  10.441  21.350  0.00  0.00    +0.000 C 
BRANCH  23  24
ATOM     24  C   UNL     1       0.855   9.462  22.289  0.00  0.00    +0.000 C 
ATOM     25  O   UNL     1       0.826   9.617  23.509  0.00  0.00    +0.000 OA
ATOM     26  N   UNL     1       1.600   8.421  21.764  0.00  0.00    +0.000 N 
ATOM     27  H   UNL     1       1.910   7.768  22.476  0.00  0.00    +0.000 HD
BRANCH  26  28
ATOM     28  C   UNL     1       1.323   7.897  20.470  0.00  0.00    +0.000 C 
BRANCH  28  29
ATOM     29  C   UNL     1       2.227   7.007  19.692  0.00  0.00    +0.000 A 
ATOM     30  C   UNL     1       2.893   7.628  18.617  0.00  0.00    +0.000 A 
ATOM     31  C   UNL     1       3.454   6.873  17.606  0.00  0.00    +0.000 A 
ATOM     32  C   UNL     1       3.365   5.485  17.663  0.00  0.00    +0.000 A 
ATOM     33  C   UNL     1       2.679   4.831  18.704  0.00  0.00    +0.000 A 
ATOM     34  C   UNL     1       2.511   3.443  18.673  0.00  0.00    +0.000 A 
ATOM     35  C   UNL     1       1.737   2.780  19.636  0.00  0.00    +0.000 A 
ATOM     36  C   UNL     1       1.149   3.504  20.663  0.00  0.00    +0.000 A 
ATOM     37  C   UNL     1       1.333   4.887  20.724  0.00  0.00    +0.000 A 
ATOM     38  C   UNL     1       2.095   5.587  19.747  0.00  0.00    +0.000 A 
ENDBRANCH  28  29
ENDBRANCH  26  28
ENDBRANCH  23  24
ENDBRANCH   9  23
TORSDOF 9
ENDMDL
MODEL 9
REMARK VINA RESULT:      -8.2      3.703     10.605
REMARK  Name = 
REMARK  10 active torsions:
REMARK  status: ('A' for Active; 'I' for Inactive)
REMARK    1  A    between atoms: C_1  and  C_2
REMARK    2  A    between atoms: C_2  and  O_3
REMARK    3  A    between atoms: O_3  and  C_4
REMARK    4  A    between atoms: C_4  and  C_6
REMARK    5  A    between atoms: N_11  and  C_12
REMARK    6  A    between atoms: C_12  and  C_13
REMARK    7  A    between atoms: C_21  and  C_22
REMARK    8  A    between atoms: C_22  and  C_23
REMARK    9  A    between atoms: N_25  and  C_26
REMARK   10  A    between atoms: C_26  and  C_27
REMARK                            x       y       z     vdW  Elec       q    Type
REMARK                         _______ _______ _______ _____ _____    ______ ____
ROOT
ATOM      1  C   UNL     1      -2.393  13.160  22.326  0.00  0.00    +0.000 C 
ATOM      2  C   UNL     1      -3.946  13.204  22.165  0.00  0.00    +0.000 C 
ATOM      3  C   UNL     1      -4.259  13.668  20.746  0.00  0.00    +0.000 C 
ATOM      4  C   UNL     1      -2.923  13.813  20.105  0.00  0.00    +0.000 C 
ATOM      5  C   UNL     1      -1.908  13.527  20.937  0.00  0.00    +0.000 C 
ATOM      6  N   UNL     1      -0.610  13.185  20.524  0.00  0.00    +0.000 N 
ATOM      7  C   UNL     1       0.257  12.503  21.378  0.00  0.00    +0.000 C 
ATOM      8  O   UNL     1       1.484  12.537  21.260  0.00  0.00    +0.000 OA
ATOM      9  C   UNL     1      -0.399  11.491  22.326  0.00  0.00    +0.000 C 
ATOM     10  C   UNL     1      -1.905  11.733  22.455  0.00  0.00    +0.000 C 
ENDROOT
BRANCH   1  11
ATOM     11  C   UNL     1      -2.067  13.797  23.666  0.00  0.00    +0.000 C 
ATOM     12  O   UNL     1      -0.950  14.257  23.916  0.00  0.00    +0.000 OA
BRANCH  11  13
ATOM     13  O   UNL     1      -3.148  13.951  24.466  0.00  0.00    +0.000 OA
BRANCH  13  15
ATOM     14  C   UNL     1      -4.250  16.108  24.588  0.00  0.00    +0.000 C 
ATOM     15  C   UNL     1      -3.173  15.204  25.179  0.00  0.00    +0.000 C 
ENDBRANCH  13  15
ENDBRANCH  11  13
ENDBRANCH   1  11
BRANCH   6  16
ATOM     16  C   UNL     1      -0.192  13.199  19.114  0.00  0.00    +0.000 C 
BRANCH  16  17
ATOM     17  C   UNL     1       0.805  14.263  18.748  0.00  0.00    +0.000 A 
ATOM     18  C   UNL     1       0.503  15.614  18.961  0.00  0.00    +0.000 A 
ATOM     19  C   UNL     1       1.418  16.604  18.614  0.00  0.00    +0.000 A 
ATOM     20  C   UNL     1       2.653  16.254  18.073  0.00  0.00    +0.000 A 
ATOM     21  C   UNL     1       2.986  14.911  17.906  0.00  0.00    +0.000 A 
ATOM     22  C   UNL     1       2.069  13.918  18.251  0.00  0.00    +0.000 A 
ENDBRANCH  16  17
ENDBRANCH   6  16
BRANCH   9  23
ATOM     23  C   UNL     1      -0.021  10.079  21.779  0.00  0.00    +0.000 C 
BRANCH  23  24
ATOM     24  C   UNL     1       1.008   9.239  22.554  0.00  0.00    +0.000 C 
ATOM     25  O   UNL     1       1.171   9.395  23.764  0.00  0.00    +0.000 OA
ATOM     26  N   UNL     1       1.808   8.330  21.884  0.00  0.00    +0.000 N 
ATOM     27  H   UNL     1       2.341   7.742  22.515  0.00  0.00    +0.000 HD
BRANCH  26  28
ATOM     28  C   UNL     1       1.395   7.759  20.646  0.00  0.00    +0.000 C 
BRANCH  28  29
ATOM     29  C   UNL     1       2.236   6.892  19.778  0.00  0.00    +0.000 A 
ATOM     30  C   UNL     1       2.889   7.560  18.723  0.00  0.00    +0.000 A 
ATOM     31  C   UNL     1       3.385   6.856  17.644  0.00  0.00    +0.000 A 
ATOM     32  C   UNL     1       3.243   5.471  17.611  0.00  0.00    +0.000 A 
ATOM     33  C   UNL     1       2.568   4.773  18.630  0.00  0.00    +0.000 A 
ATOM     34  C   UNL     1       2.344   3.398  18.512  0.00  0.00    +0.000 A 
ATOM     35  C   UNL     1       1.578   2.700  19.456  0.00  0.00    +0.000 A 
ATOM     36  C   UNL     1       1.055   3.373  20.551  0.00  0.00    +0.000 A 
ATOM     37  C   UNL     1       1.295   4.741  20.698  0.00  0.00    +0.000 A 
ATOM     38  C   UNL     1       2.050   5.478  19.742  0.00  0.00    +0.000 A 
ENDBRANCH  28  29
ENDBRANCH  26  28
ENDBRANCH  23  24
ENDBRANCH   9  23
TORSDOF 9
ENDMDL
