MODEL 1
REMARK VINA RESULT:      -8.0      0.000      0.000
REMARK  Name = 
REMARK  5 active torsions:
REMARK  status: ('A' for Active; 'I' for Inactive)
REMARK    1  A    between atoms: C_10  and  O_11
REMARK    2  A    between atoms: O_11  and  C_12
REMARK    3  A    between atoms: C_12  and  C_13
REMARK    4  A    between atoms: N_16  and  C_17
REMARK    5  A    between atoms: C_17  and  C_18
REMARK                            x       y       z     vdW  Elec       q    Type
REMARK                         _______ _______ _______ _____ _____    ______ ____
ROOT
ATOM      1  N   UNL     1       0.673   3.023  20.315  0.00  0.00    +0.000 NA
ATOM      2  C   UNL     1       1.682   2.751  19.562  0.00  0.00    +0.000 C 
ATOM      3  N   UNL     1       1.699   1.519  18.848  0.00  0.00    +0.000 N 
ATOM      4  N   UNL     1       2.775   3.682  19.459  0.00  0.00    +0.000 N 
ATOM      5  C   UNL     1       3.929   3.395  18.587  0.00  0.00    +0.000 C 
ATOM      6  C   UNL     1       4.950   4.561  18.580  0.00  0.00    +0.000 C 
ATOM      7  C   UNL     1       4.184   5.837  18.351  0.00  0.00    +0.000 A 
ATOM      8  C   UNL     1       4.521   6.773  17.365  0.00  0.00    +0.000 A 
ATOM      9  C   UNL     1       3.720   7.908  17.183  0.00  0.00    +0.000 A 
ATOM     10  C   UNL     1       2.572   8.107  17.969  0.00  0.00    +0.000 A 
ATOM     11  C   UNL     1       2.244   7.153  18.960  0.00  0.00    +0.000 A 
ATOM     12  C   UNL     1       3.051   6.037  19.151  0.00  0.00    +0.000 A 
ATOM     13  C   UNL     1       2.734   4.969  20.158  0.00  0.00    +0.000 C 
ATOM     14  H   UNL     1      -0.123   2.375  20.413  0.00  0.00    +0.000 HD
ATOM     15  H   UNL     1       0.912   0.860  18.929  0.00  0.00    +0.000 HD
ATOM     16  H   UNL     1       2.485   1.253  18.241  0.00  0.00    +0.000 HD
ENDROOT
BRANCH  10  17
ATOM     17  O   UNL     1       1.804   9.204  17.749  0.00  0.00    +0.000 OA
BRANCH  17  18
ATOM     18  C   UNL     1       1.368  10.044  18.756  0.00  0.00    +0.000 C 
BRANCH  18  19
ATOM     19  C   UNL     1      -0.081   9.726  19.166  0.00  0.00    +0.000 C 
ATOM     20  C   UNL     1      -1.038  10.906  18.940  0.00  0.00    +0.000 C 
ATOM     21  C   UNL     1      -0.701  12.076  19.873  0.00  0.00    +0.000 C 
ATOM     22  N   UNL     1      -0.759  11.658  21.296  0.00  0.00    +0.000 NA
ATOM     23  C   UNL     1       0.154  10.522  21.569  0.00  0.00    +0.000 C 
ATOM     24  C   UNL     1      -0.159   9.325  20.650  0.00  0.00    +0.000 C 
BRANCH  22  25
ATOM     25  C   UNL     1      -0.411  12.788  22.188  0.00  0.00    +0.000 C 
BRANCH  25  26
ATOM     26  C   UNL     1      -1.562  13.155  23.091  0.00  0.00    +0.000 A 
ATOM     27  C   UNL     1      -2.698  12.337  23.154  0.00  0.00    +0.000 A 
ATOM     28  C   UNL     1      -3.763  12.701  23.984  0.00  0.00    +0.000 A 
ATOM     29  N   UNL     1      -3.692  13.841  24.721  0.00  0.00    +0.000 NA
ATOM     30  C   UNL     1      -2.604  14.653  24.678  0.00  0.00    +0.000 A 
ATOM     31  C   UNL     1      -1.518  14.326  23.864  0.00  0.00    +0.000 A 
ENDBRANCH  25  26
ENDBRANCH  22  25
ENDBRANCH  18  19
ENDBRANCH  17  18
ENDBRANCH  10  17
TORSDOF 5
ENDMDL
MODEL 2
REMARK VINA RESULT:      -8.0      6.222      9.983
REMARK  Name = 
REMARK  5 active torsions:
REMARK  status: ('A' for Active; 'I' for Inactive)
REMARK    1  A    between atoms: C_10  and  O_11
REMARK    2  A    between atoms: O_11  and  C_12
REMARK    3  A    between atoms: C_12  and  C_13
REMARK    4  A    between atoms: N_16  and  C_17
REMARK    5  A    between atoms: C_17  and  C_18
REMARK                            x       y       z     vdW  Elec       q    Type
REMARK                         _______ _______ _______ _____ _____    ______ ____
ROOT
ATOM      1  N   UNL     1       7.391  15.200  17.224  0.00  0.00    +0.000 NA
ATOM      2  C   UNL     1       7.869  15.052  18.410  0.00  0.00    +0.000 C 
ATOM      3  N   UNL     1       7.410  15.908  19.452  0.00  0.00    +0.000 N 
ATOM      4  N   UNL     1       8.858  14.039  18.667  0.00  0.00    +0.000 N 
ATOM      5  C   UNL     1       9.402  13.843  20.024  0.00  0.00    +0.000 C 
ATOM      6  C   UNL     1      10.399  12.658  20.080  0.00  0.00    +0.000 C 
ATOM      7  C   UNL     1       9.752  11.483  19.395  0.00  0.00    +0.000 A 
ATOM      8  C   UNL     1       9.654  10.211  19.973  0.00  0.00    +0.000 A 
ATOM      9  C   UNL     1       8.986   9.187  19.288  0.00  0.00    +0.000 A 
ATOM     10  C   UNL     1       8.397   9.431  18.035  0.00  0.00    +0.000 A 
ATOM     11  C   UNL     1       8.503  10.721  17.465  0.00  0.00    +0.000 A 
ATOM     12  C   UNL     1       9.183  11.729  18.138  0.00  0.00    +0.000 A 
ATOM     13  C   UNL     1       9.294  13.129  17.605  0.00  0.00    +0.000 C 
ATOM     14  H   UNL     1       6.686  15.920  17.007  0.00  0.00    +0.000 HD
ATOM     15  H   UNL     1       6.702  16.630  19.257  0.00  0.00    +0.000 HD
ATOM     16  H   UNL     1       7.766  15.834  20.414  0.00  0.00    +0.000 HD
ENDROOT
BRANCH  10  17
ATOM     17  O   UNL     1       7.735   8.424  17.410  0.00  0.00    +0.000 OA
BRANCH  17  18
ATOM     18  C   UNL     1       7.480   7.200  17.997  0.00  0.00    +0.000 C 
BRANCH  18  19
ATOM     19  C   UNL     1       6.781   6.240  17.017  0.00  0.00    +0.000 C 
ATOM     20  C   UNL     1       5.519   6.848  16.386  0.00  0.00    +0.000 C 
ATOM     21  C   UNL     1       4.426   7.066  17.439  0.00  0.00    +0.000 C 
ATOM     22  N   UNL     1       4.076   5.792  18.118  0.00  0.00    +0.000 NA
ATOM     23  C   UNL     1       5.262   5.167  18.750  0.00  0.00    +0.000 C 
ATOM     24  C   UNL     1       6.382   4.930  17.718  0.00  0.00    +0.000 C 
BRANCH  22  25
ATOM     25  C   UNL     1       3.036   6.018  19.148  0.00  0.00    +0.000 C 
BRANCH  25  26
ATOM     26  C   UNL     1       2.294   4.745  19.473  0.00  0.00    +0.000 A 
ATOM     27  C   UNL     1       1.706   3.989  18.450  0.00  0.00    +0.000 A 
ATOM     28  C   UNL     1       1.009   2.821  18.770  0.00  0.00    +0.000 A 
ATOM     29  N   UNL     1       0.904   2.425  20.066  0.00  0.00    +0.000 NA
ATOM     30  C   UNL     1       1.463   3.138  21.078  0.00  0.00    +0.000 A 
ATOM     31  C   UNL     1       2.170   4.310  20.802  0.00  0.00    +0.000 A 
ENDBRANCH  25  26
ENDBRANCH  22  25
ENDBRANCH  18  19
ENDBRANCH  17  18
ENDBRANCH  10  17
TORSDOF 5
ENDMDL
MODEL 3
REMARK VINA RESULT:      -7.9      6.914     11.038
REMARK  Name = 
REMARK  5 active torsions:
REMARK  status: ('A' for Active; 'I' for Inactive)
REMARK    1  A    between atoms: C_10  and  O_11
REMARK    2  A    between atoms: O_11  and  C_12
REMARK    3  A    between atoms: C_12  and  C_13
REMARK    4  A    between atoms: N_16  and  C_17
REMARK    5  A    between atoms: C_17  and  C_18
REMARK                            x       y       z     vdW  Elec       q    Type
REMARK                         _______ _______ _______ _____ _____    ______ ____
ROOT
ATOM      1  N   UNL     1       9.463  16.040  16.844  0.00  0.00    +0.000 NA
ATOM      2  C   UNL     1       9.470  15.980  18.130  0.00  0.00    +0.000 C 
ATOM      3  N   UNL     1       8.843  17.021  18.874  0.00  0.00    +0.000 N 
ATOM      4  N   UNL     1      10.113  14.878  18.796  0.00  0.00    +0.000 N 
ATOM      5  C   UNL     1      10.113  14.784  20.268  0.00  0.00    +0.000 C 
ATOM      6  C   UNL     1      10.801  13.487  20.762  0.00  0.00    +0.000 C 
ATOM      7  C   UNL     1      10.228  12.337  19.975  0.00  0.00    +0.000 A 
ATOM      8  C   UNL     1       9.712  11.178  20.567  0.00  0.00    +0.000 A 
ATOM      9  C   UNL     1       9.147  10.180  19.761  0.00  0.00    +0.000 A 
ATOM     10  C   UNL     1       9.078  10.341  18.367  0.00  0.00    +0.000 A 
ATOM     11  C   UNL     1       9.602  11.517  17.784  0.00  0.00    +0.000 A 
ATOM     12  C   UNL     1      10.179  12.497  18.583  0.00  0.00    +0.000 A 
ATOM     13  C   UNL     1      10.716  13.785  18.029  0.00  0.00    +0.000 C 
ATOM     14  H   UNL     1       9.016  16.819  16.338  0.00  0.00    +0.000 HD
ATOM     15  H   UNL     1       8.386  17.805  18.386  0.00  0.00    +0.000 HD
ATOM     16  H   UNL     1       8.828  17.022  19.902  0.00  0.00    +0.000 HD
ENDROOT
BRANCH  10  17
ATOM     17  O   UNL     1       8.500   9.366  17.618  0.00  0.00    +0.000 OA
BRANCH  17  18
ATOM     18  C   UNL     1       7.576   8.469  18.117  0.00  0.00    +0.000 C 
BRANCH  18  19
ATOM     19  C   UNL     1       7.590   7.149  17.325  0.00  0.00    +0.000 C 
ATOM     20  C   UNL     1       6.279   6.896  16.565  0.00  0.00    +0.000 C 
ATOM     21  C   UNL     1       5.115   6.663  17.536  0.00  0.00    +0.000 C 
ATOM     22  N   UNL     1       5.393   5.517  18.439  0.00  0.00    +0.000 NA
ATOM     23  C   UNL     1       6.649   5.716  19.202  0.00  0.00    +0.000 C 
ATOM     24  C   UNL     1       7.842   5.950  18.255  0.00  0.00    +0.000 C 
BRANCH  22  25
ATOM     25  C   UNL     1       4.273   5.315  19.387  0.00  0.00    +0.000 C 
BRANCH  25  26
ATOM     26  C   UNL     1       3.349   4.216  18.924  0.00  0.00    +0.000 A 
ATOM     27  C   UNL     1       1.990   4.479  18.709  0.00  0.00    +0.000 A 
ATOM     28  C   UNL     1       1.145   3.445  18.296  0.00  0.00    +0.000 A 
ATOM     29  N   UNL     1       1.642   2.194  18.106  0.00  0.00    +0.000 NA
ATOM     30  C   UNL     1       2.955   1.910  18.308  0.00  0.00    +0.000 A 
ATOM     31  C   UNL     1       3.835   2.914  18.719  0.00  0.00    +0.000 A 
ENDBRANCH  25  26
ENDBRANCH  22  25
ENDBRANCH  18  19
ENDBRANCH  17  18
ENDBRANCH  10  17
TORSDOF 5
ENDMDL
MODEL 4
REMARK VINA RESULT:      -7.9      6.315     10.425
REMARK  Name = 
REMARK  5 active torsions:
REMARK  status: ('A' for Active; 'I' for Inactive)
REMARK    1  A    between atoms: C_10  and  O_11
REMARK    2  A    between atoms: O_11  and  C_12
REMARK    3  A    between atoms: C_12  and  C_13
REMARK    4  A    between atoms: N_16  and  C_17
REMARK    5  A    between atoms: C_17  and  C_18
REMARK                            x       y       z     vdW  Elec       q    Type
REMARK                         _______ _______ _______ _____ _____    ______ ____
ROOT
ATOM      1  N   UNL     1       5.241  14.499  17.609  0.00  0.00    +0.000 NA
ATOM      2  C   UNL     1       6.231  14.885  18.337  0.00  0.00    +0.000 C 
ATOM      3  N   UNL     1       6.011  15.883  19.330  0.00  0.00    +0.000 N 
ATOM      4  N   UNL     1       7.537  14.316  18.136  0.00  0.00    +0.000 N 
ATOM      5  C   UNL     1       8.678  14.733  18.974  0.00  0.00    +0.000 C 
ATOM      6  C   UNL     1       9.966  13.944  18.627  0.00  0.00    +0.000 C 
ATOM      7  C   UNL     1       9.609  12.482  18.586  0.00  0.00    +0.000 A 
ATOM      8  C   UNL     1      10.314  11.495  19.287  0.00  0.00    +0.000 A 
ATOM      9  C   UNL     1       9.880  10.164  19.236  0.00  0.00    +0.000 A 
ATOM     10  C   UNL     1       8.734   9.813  18.503  0.00  0.00    +0.000 A 
ATOM     11  C   UNL     1       8.032  10.820  17.801  0.00  0.00    +0.000 A 
ATOM     12  C   UNL     1       8.476  12.137  17.837  0.00  0.00    +0.000 A 
ATOM     13  C   UNL     1       7.752  13.257  17.147  0.00  0.00    +0.000 C 
ATOM     14  H   UNL     1       4.295  14.891  17.726  0.00  0.00    +0.000 HD
ATOM     15  H   UNL     1       5.072  16.283  19.465  0.00  0.00    +0.000 HD
ATOM     16  H   UNL     1       6.770  16.229  19.931  0.00  0.00    +0.000 HD
ENDROOT
BRANCH  10  17
ATOM     17  O   UNL     1       8.325   8.518  18.496  0.00  0.00    +0.000 OA
BRANCH  17  18
ATOM     18  C   UNL     1       7.571   7.962  17.481  0.00  0.00    +0.000 C 
BRANCH  18  19
ATOM     19  C   UNL     1       7.731   6.432  17.434  0.00  0.00    +0.000 C 
ATOM     20  C   UNL     1       6.972   5.789  16.264  0.00  0.00    +0.000 C 
ATOM     21  C   UNL     1       5.456   5.937  16.442  0.00  0.00    +0.000 C 
ATOM     22  N   UNL     1       5.005   5.327  17.719  0.00  0.00    +0.000 NA
ATOM     23  C   UNL     1       5.706   5.920  18.884  0.00  0.00    +0.000 C 
ATOM     24  C   UNL     1       7.235   5.786  18.740  0.00  0.00    +0.000 C 
BRANCH  22  25
ATOM     25  C   UNL     1       3.544   5.495  17.892  0.00  0.00    +0.000 C 
BRANCH  25  26
ATOM     26  C   UNL     1       2.882   4.199  18.289  0.00  0.00    +0.000 A 
ATOM     27  C   UNL     1       3.621   3.009  18.320  0.00  0.00    +0.000 A 
ATOM     28  C   UNL     1       2.988   1.814  18.673  0.00  0.00    +0.000 A 
ATOM     29  N   UNL     1       1.664   1.812  18.984  0.00  0.00    +0.000 NA
ATOM     30  C   UNL     1       0.923   2.950  18.960  0.00  0.00    +0.000 A 
ATOM     31  C   UNL     1       1.517   4.166  18.615  0.00  0.00    +0.000 A 
ENDBRANCH  25  26
ENDBRANCH  22  25
ENDBRANCH  18  19
ENDBRANCH  17  18
ENDBRANCH  10  17
TORSDOF 5
ENDMDL
MODEL 5
REMARK VINA RESULT:      -7.8      2.667      9.438
REMARK  Name = 
REMARK  5 active torsions:
REMARK  status: ('A' for Active; 'I' for Inactive)
REMARK    1  A    between atoms: C_10  and  O_11
REMARK    2  A    between atoms: O_11  and  C_12
REMARK    3  A    between atoms: C_12  and  C_13
REMARK    4  A    between atoms: N_16  and  C_17
REMARK    5  A    between atoms: C_17  and  C_18
REMARK                            x       y       z     vdW  Elec       q    Type
REMARK                         _______ _______ _______ _____ _____    ______ ____
ROOT
ATOM      1  N   UNL     1      -1.861  11.720  16.734  0.00  0.00    +0.000 NA
ATOM      2  C   UNL     1      -2.190  11.835  17.973  0.00  0.00    +0.000 C 
ATOM      3  N   UNL     1      -3.555  12.067  18.308  0.00  0.00    +0.000 N 
ATOM      4  N   UNL     1      -1.182  11.738  18.997  0.00  0.00    +0.000 N 
ATOM      5  C   UNL     1      -1.544  11.848  20.422  0.00  0.00    +0.000 C 
ATOM      6  C   UNL     1      -0.316  11.647  21.345  0.00  0.00    +0.000 C 
ATOM      7  C   UNL     1       0.402  10.406  20.887  0.00  0.00    +0.000 A 
ATOM      8  C   UNL     1       0.760   9.359  21.746  0.00  0.00    +0.000 A 
ATOM      9  C   UNL     1       1.378   8.214  21.225  0.00  0.00    +0.000 A 
ATOM     10  C   UNL     1       1.625   8.100  19.847  0.00  0.00    +0.000 A 
ATOM     11  C   UNL     1       1.258   9.164  18.992  0.00  0.00    +0.000 A 
ATOM     12  C   UNL     1       0.663  10.307  19.513  0.00  0.00    +0.000 A 
ATOM     13  C   UNL     1       0.213  11.453  18.653  0.00  0.00    +0.000 C 
ATOM     14  H   UNL     1      -2.558  11.790  15.977  0.00  0.00    +0.000 HD
ATOM     15  H   UNL     1      -4.267  12.135  17.567  0.00  0.00    +0.000 HD
ATOM     16  H   UNL     1      -3.865  12.173  19.283  0.00  0.00    +0.000 HD
ENDROOT
BRANCH  10  17
ATOM     17  O   UNL     1       2.202   6.966  19.371  0.00  0.00    +0.000 OA
BRANCH  17  18
ATOM     18  C   UNL     1       2.649   5.941  20.182  0.00  0.00    +0.000 C 
BRANCH  18  19
ATOM     19  C   UNL     1       2.083   4.581  19.735  0.00  0.00    +0.000 C 
ATOM     20  C   UNL     1       3.050   3.417  19.998  0.00  0.00    +0.000 C 
ATOM     21  C   UNL     1       4.304   3.533  19.123  0.00  0.00    +0.000 C 
ATOM     22  N   UNL     1       3.948   3.565  17.681  0.00  0.00    +0.000 NA
ATOM     23  C   UNL     1       3.018   4.679  17.374  0.00  0.00    +0.000 C 
ATOM     24  C   UNL     1       1.743   4.591  18.234  0.00  0.00    +0.000 C 
BRANCH  22  25
ATOM     25  C   UNL     1       5.163   3.700  16.846  0.00  0.00    +0.000 C 
BRANCH  25  26
ATOM     26  C   UNL     1       6.006   4.874  17.281  0.00  0.00    +0.000 A 
ATOM     27  C   UNL     1       5.738   6.157  16.787  0.00  0.00    +0.000 A 
ATOM     28  C   UNL     1       6.538   7.230  17.188  0.00  0.00    +0.000 A 
ATOM     29  N   UNL     1       7.569   7.026  18.051  0.00  0.00    +0.000 NA
ATOM     30  C   UNL     1       7.852   5.792  18.544  0.00  0.00    +0.000 A 
ATOM     31  C   UNL     1       7.076   4.693  18.172  0.00  0.00    +0.000 A 
ENDBRANCH  25  26
ENDBRANCH  22  25
ENDBRANCH  18  19
ENDBRANCH  17  18
ENDBRANCH  10  17
TORSDOF 5
ENDMDL
MODEL 6
REMARK VINA RESULT:      -7.8      2.574      9.603
REMARK  Name = 
REMARK  5 active torsions:
REMARK  status: ('A' for Active; 'I' for Inactive)
REMARK    1  A    between atoms: C_10  and  O_11
REMARK    2  A    between atoms: O_11  and  C_12
REMARK    3  A    between atoms: C_12  and  C_13
REMARK    4  A    between atoms: N_16  and  C_17
REMARK    5  A    between atoms: C_17  and  C_18
REMARK                            x       y       z     vdW  Elec       q    Type
REMARK                         _______ _______ _______ _____ _____    ______ ____
ROOT
ATOM      1  N   UNL     1      -1.734  11.864  17.022  0.00  0.00    +0.000 NA
ATOM      2  C   UNL     1      -2.075  11.943  18.261  0.00  0.00    +0.000 C 
ATOM      3  N   UNL     1      -3.440  12.186  18.588  0.00  0.00    +0.000 N 
ATOM      4  N   UNL     1      -1.082  11.795  19.292  0.00  0.00    +0.000 N 
ATOM      5  C   UNL     1      -1.458  11.864  20.716  0.00  0.00    +0.000 C 
ATOM      6  C   UNL     1      -0.245  11.613  21.646  0.00  0.00    +0.000 C 
ATOM      7  C   UNL     1       0.459  10.375  21.155  0.00  0.00    +0.000 A 
ATOM      8  C   UNL     1       0.789   9.295  21.982  0.00  0.00    +0.000 A 
ATOM      9  C   UNL     1       1.395   8.158  21.431  0.00  0.00    +0.000 A 
ATOM     10  C   UNL     1       1.657   8.085  20.052  0.00  0.00    +0.000 A 
ATOM     11  C   UNL     1       1.317   9.183  19.229  0.00  0.00    +0.000 A 
ATOM     12  C   UNL     1       0.734  10.318  19.782  0.00  0.00    +0.000 A 
ATOM     13  C   UNL     1       0.313  11.499  18.955  0.00  0.00    +0.000 C 
ATOM     14  H   UNL     1      -2.420  11.970  16.261  0.00  0.00    +0.000 HD
ATOM     15  H   UNL     1      -4.142  12.290  17.842  0.00  0.00    +0.000 HD
ATOM     16  H   UNL     1      -3.760  12.265  19.562  0.00  0.00    +0.000 HD
ENDROOT
BRANCH  10  17
ATOM     17  O   UNL     1       2.221   6.958  19.546  0.00  0.00    +0.000 OA
BRANCH  17  18
ATOM     18  C   UNL     1       2.457   5.822  20.295  0.00  0.00    +0.000 C 
BRANCH  18  19
ATOM     19  C   UNL     1       1.576   4.648  19.829  0.00  0.00    +0.000 C 
ATOM     20  C   UNL     1       2.120   3.282  20.272  0.00  0.00    +0.000 C 
ATOM     21  C   UNL     1       3.450   2.966  19.576  0.00  0.00    +0.000 C 
ATOM     22  N   UNL     1       3.297   2.984  18.099  0.00  0.00    +0.000 NA
ATOM     23  C   UNL     1       2.779   4.287  17.619  0.00  0.00    +0.000 C 
ATOM     24  C   UNL     1       1.439   4.635  18.297  0.00  0.00    +0.000 C 
BRANCH  22  25
ATOM     25  C   UNL     1       4.591   2.700  17.437  0.00  0.00    +0.000 C 
BRANCH  25  26
ATOM     26  C   UNL     1       5.268   3.968  16.979  0.00  0.00    +0.000 A 
ATOM     27  C   UNL     1       6.014   4.736  17.882  0.00  0.00    +0.000 A 
ATOM     28  C   UNL     1       6.620   5.917  17.445  0.00  0.00    +0.000 A 
ATOM     29  N   UNL     1       6.484   6.314  16.152  0.00  0.00    +0.000 NA
ATOM     30  C   UNL     1       5.765   5.590  15.255  0.00  0.00    +0.000 A 
ATOM     31  C   UNL     1       5.145   4.403  15.650  0.00  0.00    +0.000 A 
ENDBRANCH  25  26
ENDBRANCH  22  25
ENDBRANCH  18  19
ENDBRANCH  17  18
ENDBRANCH  10  17
TORSDOF 5
ENDMDL
MODEL 7
REMARK VINA RESULT:      -7.7      1.914      2.898
REMARK  Name = 
REMARK  5 active torsions:
REMARK  status: ('A' for Active; 'I' for Inactive)
REMARK    1  A    between atoms: C_10  and  O_11
REMARK    2  A    between atoms: O_11  and  C_12
REMARK    3  A    between atoms: C_12  and  C_13
REMARK    4  A    between atoms: N_16  and  C_17
REMARK    5  A    between atoms: C_17  and  C_18
REMARK                            x       y       z     vdW  Elec       q    Type
REMARK                         _______ _______ _______ _____ _____    ______ ____
ROOT
ATOM      1  N   UNL     1       7.311   5.884  16.463  0.00  0.00    +0.000 NA
ATOM      2  C   UNL     1       6.981   5.423  17.619  0.00  0.00    +0.000 C 
ATOM      3  N   UNL     1       8.007   5.071  18.542  0.00  0.00    +0.000 N 
ATOM      4  N   UNL     1       5.592   5.260  17.959  0.00  0.00    +0.000 N 
ATOM      5  C   UNL     1       5.196   4.750  19.285  0.00  0.00    +0.000 C 
ATOM      6  C   UNL     1       3.656   4.720  19.454  0.00  0.00    +0.000 C 
ATOM      7  C   UNL     1       3.122   6.059  19.017  0.00  0.00    +0.000 A 
ATOM      8  C   UNL     1       2.256   6.837  19.796  0.00  0.00    +0.000 A 
ATOM      9  C   UNL     1       1.852   8.097  19.336  0.00  0.00    +0.000 A 
ATOM     10  C   UNL     1       2.321   8.594  18.109  0.00  0.00    +0.000 A 
ATOM     11  C   UNL     1       3.195   7.799  17.334  0.00  0.00    +0.000 A 
ATOM     12  C   UNL     1       3.580   6.541  17.783  0.00  0.00    +0.000 A 
ATOM     13  C   UNL     1       4.538   5.666  17.026  0.00  0.00    +0.000 C 
ATOM     14  H   UNL     1       8.297   6.008  16.188  0.00  0.00    +0.000 HD
ATOM     15  H   UNL     1       8.998   5.191  18.288  0.00  0.00    +0.000 HD
ATOM     16  H   UNL     1       7.795   4.691  19.473  0.00  0.00    +0.000 HD
ENDROOT
BRANCH  10  17
ATOM     17  O   UNL     1       1.930   9.831  17.705  0.00  0.00    +0.000 OA
BRANCH  17  18
ATOM     18  C   UNL     1       1.571  10.840  18.577  0.00  0.00    +0.000 C 
BRANCH  18  19
ATOM     19  C   UNL     1       0.098  11.246  18.393  0.00  0.00    +0.000 C 
ATOM     20  C   UNL     1      -0.183  12.689  18.838  0.00  0.00    +0.000 C 
ATOM     21  C   UNL     1      -0.007  12.842  20.354  0.00  0.00    +0.000 C 
ATOM     22  N   UNL     1      -0.900  11.912  21.093  0.00  0.00    +0.000 NA
ATOM     23  C   UNL     1      -0.663  10.502  20.702  0.00  0.00    +0.000 C 
ATOM     24  C   UNL     1      -0.835  10.311  19.182  0.00  0.00    +0.000 C 
BRANCH  22  25
ATOM     25  C   UNL     1      -0.706  12.053  22.554  0.00  0.00    +0.000 C 
BRANCH  25  26
ATOM     26  C   UNL     1      -1.834  12.828  23.189  0.00  0.00    +0.000 A 
ATOM     27  C   UNL     1      -3.132  12.301  23.206  0.00  0.00    +0.000 A 
ATOM     28  C   UNL     1      -4.168  13.039  23.784  0.00  0.00    +0.000 A 
ATOM     29  N   UNL     1      -3.914  14.261  24.324  0.00  0.00    +0.000 NA
ATOM     30  C   UNL     1      -2.665  14.797  24.321  0.00  0.00    +0.000 A 
ATOM     31  C   UNL     1      -1.601  14.091  23.756  0.00  0.00    +0.000 A 
ENDBRANCH  25  26
ENDBRANCH  22  25
ENDBRANCH  18  19
ENDBRANCH  17  18
ENDBRANCH  10  17
TORSDOF 5
ENDMDL
MODEL 8
REMARK VINA RESULT:      -7.7      1.455      1.805
REMARK  Name = 
REMARK  5 active torsions:
REMARK  status: ('A' for Active; 'I' for Inactive)
REMARK    1  A    between atoms: C_10  and  O_11
REMARK    2  A    between atoms: O_11  and  C_12
REMARK    3  A    between atoms: C_12  and  C_13
REMARK    4  A    between atoms: N_16  and  C_17
REMARK    5  A    between atoms: C_17  and  C_18
REMARK                            x       y       z     vdW  Elec       q    Type
REMARK                         _______ _______ _______ _____ _____    ______ ____
ROOT
ATOM      1  N   UNL     1       0.841   3.093  20.810  0.00  0.00    +0.000 NA
ATOM      2  C   UNL     1       1.346   3.100  19.626  0.00  0.00    +0.000 C 
ATOM      3  N   UNL     1       0.943   2.098  18.697  0.00  0.00    +0.000 N 
ATOM      4  N   UNL     1       2.309   4.105  19.259  0.00  0.00    +0.000 N 
ATOM      5  C   UNL     1       2.883   4.138  17.900  0.00  0.00    +0.000 C 
ATOM      6  C   UNL     1       3.843   5.339  17.710  0.00  0.00    +0.000 C 
ATOM      7  C   UNL     1       3.140   6.571  18.217  0.00  0.00    +0.000 A 
ATOM      8  C   UNL     1       3.018   7.752  17.474  0.00  0.00    +0.000 A 
ATOM      9  C   UNL     1       2.299   8.833  18.001  0.00  0.00    +0.000 A 
ATOM     10  C   UNL     1       1.685   8.736  19.261  0.00  0.00    +0.000 A 
ATOM     11  C   UNL     1       1.816   7.538  20.000  0.00  0.00    +0.000 A 
ATOM     12  C   UNL     1       2.545   6.474  19.483  0.00  0.00    +0.000 A 
ATOM     13  C   UNL     1       2.687   5.162  20.200  0.00  0.00    +0.000 C 
ATOM     14  H   UNL     1       0.153   2.384  21.105  0.00  0.00    +0.000 HD
ATOM     15  H   UNL     1       0.253   1.383  18.970  0.00  0.00    +0.000 HD
ATOM     16  H   UNL     1       1.322   2.056  17.742  0.00  0.00    +0.000 HD
ENDROOT
BRANCH  10  17
ATOM     17  O   UNL     1       0.973   9.793  19.731  0.00  0.00    +0.000 OA
BRANCH  17  18
ATOM     18  C   UNL     1       1.056  11.065  19.199  0.00  0.00    +0.000 C 
BRANCH  18  19
ATOM     19  C   UNL     1      -0.264  11.480  18.524  0.00  0.00    +0.000 C 
ATOM     20  C   UNL     1      -0.411  13.003  18.389  0.00  0.00    +0.000 C 
ATOM     21  C   UNL     1      -0.542  13.669  19.764  0.00  0.00    +0.000 C 
ATOM     22  N   UNL     1      -1.703  13.124  20.514  0.00  0.00    +0.000 NA
ATOM     23  C   UNL     1      -1.605  11.654  20.677  0.00  0.00    +0.000 C 
ATOM     24  C   UNL     1      -1.476  10.951  19.312  0.00  0.00    +0.000 C 
BRANCH  22  25
ATOM     25  C   UNL     1      -1.808  13.757  21.848  0.00  0.00    +0.000 C 
BRANCH  25  26
ATOM     26  C   UNL     1      -3.103  13.394  22.532  0.00  0.00    +0.000 A 
ATOM     27  C   UNL     1      -3.088  12.713  23.756  0.00  0.00    +0.000 A 
ATOM     28  C   UNL     1      -4.297  12.370  24.368  0.00  0.00    +0.000 A 
ATOM     29  N   UNL     1      -5.476  12.696  23.775  0.00  0.00    +0.000 NA
ATOM     30  C   UNL     1      -5.520  13.356  22.588  0.00  0.00    +0.000 A 
ATOM     31  C   UNL     1      -4.336  13.719  21.945  0.00  0.00    +0.000 A 
ENDBRANCH  25  26
ENDBRANCH  22  25
ENDBRANCH  18  19
ENDBRANCH  17  18
ENDBRANCH  10  17
TORSDOF 5
ENDMDL
MODEL 9
REMARK VINA RESULT:      -7.7      3.349      4.270
REMARK  Name = 
REMARK  5 active torsions:
REMARK  status: ('A' for Active; 'I' for Inactive)
REMARK    1  A    between atoms: C_10  and  O_11
REMARK    2  A    between atoms: O_11  and  C_12
REMARK    3  A    between atoms: C_12  and  C_13
REMARK    4  A    between atoms: N_16  and  C_17
REMARK    5  A    between atoms: C_17  and  C_18
REMARK                            x       y       z     vdW  Elec       q    Type
REMARK                         _______ _______ _______ _____ _____    ______ ____
ROOT
ATOM      1  N   UNL     1       0.950   2.992  20.869  0.00  0.00    +0.000 NA
ATOM      2  C   UNL     1       1.283   3.118  19.632  0.00  0.00    +0.000 C 
ATOM      3  N   UNL     1       0.774   2.188  18.681  0.00  0.00    +0.000 N 
ATOM      4  N   UNL     1       2.164   4.182  19.228  0.00  0.00    +0.000 N 
ATOM      5  C   UNL     1       2.540   4.352  17.813  0.00  0.00    +0.000 C 
ATOM      6  C   UNL     1       3.440   5.596  17.601  0.00  0.00    +0.000 C 
ATOM      7  C   UNL     1       2.790   6.755  18.310  0.00  0.00    +0.000 A 
ATOM      8  C   UNL     1       2.540   7.991  17.700  0.00  0.00    +0.000 A 
ATOM      9  C   UNL     1       1.881   8.998  18.417  0.00  0.00    +0.000 A 
ATOM     10  C   UNL     1       1.451   8.773  19.736  0.00  0.00    +0.000 A 
ATOM     11  C   UNL     1       1.709   7.520  20.338  0.00  0.00    +0.000 A 
ATOM     12  C   UNL     1       2.381   6.529  19.631  0.00  0.00    +0.000 A 
ATOM     13  C   UNL     1       2.649   5.165  20.200  0.00  0.00    +0.000 C 
ATOM     14  H   UNL     1       0.325   2.238  21.191  0.00  0.00    +0.000 HD
ATOM     15  H   UNL     1       0.144   1.430  18.981  0.00  0.00    +0.000 HD
ATOM     16  H   UNL     1       1.016   2.242  17.683  0.00  0.00    +0.000 HD
ENDROOT
BRANCH  10  17
ATOM     17  O   UNL     1       0.791   9.761  20.393  0.00  0.00    +0.000 OA
BRANCH  17  18
ATOM     18  C   UNL     1       0.873  11.095  20.045  0.00  0.00    +0.000 C 
BRANCH  18  19
ATOM     19  C   UNL     1      -0.520  11.695  19.783  0.00  0.00    +0.000 C 
ATOM     20  C   UNL     1      -0.568  12.559  18.514  0.00  0.00    +0.000 C 
ATOM     21  C   UNL     1       0.288  13.822  18.674  0.00  0.00    +0.000 C 
ATOM     22  N   UNL     1      -0.159  14.627  19.839  0.00  0.00    +0.000 NA
ATOM     23  C   UNL     1      -0.126  13.837  21.093  0.00  0.00    +0.000 C 
ATOM     24  C   UNL     1      -0.980  12.560  20.969  0.00  0.00    +0.000 C 
BRANCH  22  25
ATOM     25  C   UNL     1       0.687  15.831  19.998  0.00  0.00    +0.000 C 
BRANCH  25  26
ATOM     26  C   UNL     1       0.498  16.795  18.853  0.00  0.00    +0.000 A 
ATOM     27  C   UNL     1      -0.773  17.309  18.565  0.00  0.00    +0.000 A 
ATOM     28  C   UNL     1      -0.934  18.188  17.490  0.00  0.00    +0.000 A 
ATOM     29  N   UNL     1       0.138  18.538  16.731  0.00  0.00    +0.000 NA
ATOM     30  C   UNL     1       1.382  18.053  16.986  0.00  0.00    +0.000 A 
ATOM     31  C   UNL     1       1.586  17.175  18.052  0.00  0.00    +0.000 A 
ENDBRANCH  25  26
ENDBRANCH  22  25
ENDBRANCH  18  19
ENDBRANCH  17  18
ENDBRANCH  10  17
TORSDOF 5
ENDMDL
