MODEL 1
REMARK VINA RESULT:      -9.6      0.000      0.000
REMARK  Name = 
REMARK  9 active torsions:
REMARK  status: ('A' for Active; 'I' for Inactive)
REMARK    1  A    between atoms: C_1  and  C_2
REMARK    2  A    between atoms: C_2  and  C_3
REMARK    3  A    between atoms: C_2  and  C_4
REMARK    4  A    between atoms: C_2  and  C_5
REMARK    5  A    between atoms: C_9  and  C_11
REMARK    6  A    between atoms: C_16  and  S_17
REMARK    7  A    between atoms: S_17  and  C_18
REMARK    8  A    between atoms: C_22  and  C_23
REMARK    9  A    between atoms: C_24  and  C_25
REMARK                            x       y       z     vdW  Elec       q    Type
REMARK                         _______ _______ _______ _____ _____    ______ ____
ROOT
ATOM      1  C   UNL     1       6.614   5.256  16.413  0.00  0.00    +0.000 A 
ATOM      2  C   UNL     1       7.137   5.284  15.099  0.00  0.00    +0.000 A 
ATOM      3  C   UNL     1       6.554   4.547  14.080  0.00  0.00    +0.000 A 
ATOM      4  C   UNL     1       5.437   3.789  14.353  0.00  0.00    +0.000 A 
ATOM      5  C   UNL     1       4.904   3.736  15.663  0.00  0.00    +0.000 A 
ATOM      6  C   UNL     1       5.495   4.447  16.718  0.00  0.00    +0.000 A 
ENDROOT
BRANCH   1  11
ATOM      7  C   UNL     1       8.970  10.344  18.472  0.00  0.00    +0.000 A 
ATOM      8  C   UNL     1       8.228   9.762  17.459  0.00  0.00    +0.000 A 
ATOM      9  C   UNL     1       8.071   8.404  17.824  0.00  0.00    +0.000 A 
ATOM     10  N   UNL     1       7.420   7.454  17.062  0.00  0.00    +0.000 N 
ATOM     11  C   UNL     1       7.353   6.117  17.380  0.00  0.00    +0.000 C 
ATOM     12  O   UNL     1       7.909   5.540  18.308  0.00  0.00    +0.000 OA
ATOM     13  N   UNL     1       8.632   8.170  19.007  0.00  0.00    +0.000 NA
ATOM     14  N   UNL     1       9.145   9.339  19.383  0.00  0.00    +0.000 N 
ATOM     15  H   UNL     1       6.965   7.788  16.223  0.00  0.00    +0.000 HD
ATOM     16  H   UNL     1       9.625   9.370  20.275  0.00  0.00    +0.000 HD
BRANCH   7  18
ATOM     17  C   UNL     1      10.999  11.759  18.181  0.00  0.00    +0.000 C 
ATOM     18  C   UNL     1       9.531  11.736  18.640  0.00  0.00    +0.000 C 
ATOM     19  C   UNL     1       9.451  12.137  20.125  0.00  0.00    +0.000 C 
ATOM     20  C   UNL     1       8.745  12.784  17.824  0.00  0.00    +0.000 C 
ENDBRANCH   7  18
ENDBRANCH   1  11
BRANCH   6  21
ATOM     21  S   UNL     1       4.789   4.379  18.385  0.00  0.00    +0.000 S 
BRANCH  21  22
ATOM     22  C   UNL     1       3.748   5.821  18.606  0.00  0.00    +0.000 A 
ATOM     23  C   UNL     1       3.477   6.717  17.573  0.00  0.00    +0.000 A 
ATOM     24  C   UNL     1       2.832   7.945  17.810  0.00  0.00    +0.000 A 
ATOM     25  C   UNL     1       2.151   8.122  19.028  0.00  0.00    +0.000 A 
ATOM     26  C   UNL     1       1.297   9.104  19.627  0.00  0.00    +0.000 A 
ATOM     27  N   UNL     1       0.783   8.641  20.779  0.00  0.00    +0.000 NA
ATOM     28  N   UNL     1       1.372   7.456  20.961  0.00  0.00    +0.000 N 
ATOM     29  C   UNL     1       2.265   7.116  19.985  0.00  0.00    +0.000 A 
ATOM     30  C   UNL     1       3.130   6.018  19.856  0.00  0.00    +0.000 A 
ATOM     31  H   UNL     1       1.093   6.910  21.767  0.00  0.00    +0.000 HD
BRANCH  26  32
ATOM     32  C   UNL     1       1.013  10.435  19.143  0.00  0.00    +0.000 C 
ATOM     33  C   UNL     1       0.999  11.499  19.971  0.00  0.00    +0.000 C 
BRANCH  33  34
ATOM     34  C   UNL     1       0.959  12.927  19.629  0.00  0.00    +0.000 A 
ATOM     35  C   UNL     1       2.131  13.527  19.158  0.00  0.00    +0.000 A 
ATOM     36  C   UNL     1       2.080  14.827  18.668  0.00  0.00    +0.000 A 
ATOM     37  C   UNL     1       0.870  15.503  18.688  0.00  0.00    +0.000 A 
ATOM     38  C   UNL     1      -0.242  14.845  19.205  0.00  0.00    +0.000 A 
ATOM     39  N   UNL     1      -0.227  13.573  19.669  0.00  0.00    +0.000 NA
ENDBRANCH  33  34
ENDBRANCH  26  32
ENDBRANCH  21  22
ENDBRANCH   6  21
TORSDOF 6
ENDMDL
MODEL 2
REMARK VINA RESULT:      -9.5      0.810      1.108
REMARK  Name = 
REMARK  9 active torsions:
REMARK  status: ('A' for Active; 'I' for Inactive)
REMARK    1  A    between atoms: C_1  and  C_2
REMARK    2  A    between atoms: C_2  and  C_3
REMARK    3  A    between atoms: C_2  and  C_4
REMARK    4  A    between atoms: C_2  and  C_5
REMARK    5  A    between atoms: C_9  and  C_11
REMARK    6  A    between atoms: C_16  and  S_17
REMARK    7  A    between atoms: S_17  and  C_18
REMARK    8  A    between atoms: C_22  and  C_23
REMARK    9  A    between atoms: C_24  and  C_25
REMARK                            x       y       z     vdW  Elec       q    Type
REMARK                         _______ _______ _______ _____ _____    ______ ____
ROOT
ATOM      1  C   UNL     1       6.651   5.158  16.242  0.00  0.00    +0.000 A 
ATOM      2  C   UNL     1       7.159   5.283  14.928  0.00  0.00    +0.000 A 
ATOM      3  C   UNL     1       6.603   4.577  13.874  0.00  0.00    +0.000 A 
ATOM      4  C   UNL     1       5.525   3.753  14.112  0.00  0.00    +0.000 A 
ATOM      5  C   UNL     1       5.006   3.603  15.420  0.00  0.00    +0.000 A 
ATOM      6  C   UNL     1       5.573   4.282  16.509  0.00  0.00    +0.000 A 
ENDROOT
BRANCH   1  11
ATOM      7  C   UNL     1       8.934  10.201  18.484  0.00  0.00    +0.000 A 
ATOM      8  C   UNL     1       8.226   9.641  17.436  0.00  0.00    +0.000 A 
ATOM      9  C   UNL     1       8.058   8.275  17.767  0.00  0.00    +0.000 A 
ATOM     10  N   UNL     1       7.433   7.342  16.964  0.00  0.00    +0.000 N 
ATOM     11  C   UNL     1       7.357   5.998  17.251  0.00  0.00    +0.000 C 
ATOM     12  O   UNL     1       7.883   5.402  18.184  0.00  0.00    +0.000 OA
ATOM     13  N   UNL     1       8.580   8.016  18.962  0.00  0.00    +0.000 NA
ATOM     14  N   UNL     1       9.080   9.177  19.379  0.00  0.00    +0.000 N 
ATOM     15  H   UNL     1       7.005   7.694  16.118  0.00  0.00    +0.000 HD
ATOM     16  H   UNL     1       9.531   9.190  20.287  0.00  0.00    +0.000 HD
BRANCH   7  18
ATOM     17  C   UNL     1      10.953  11.638  18.236  0.00  0.00    +0.000 C 
ATOM     18  C   UNL     1       9.488  11.590  18.700  0.00  0.00    +0.000 C 
ATOM     19  C   UNL     1       9.413  11.936  20.200  0.00  0.00    +0.000 C 
ATOM     20  C   UNL     1       8.692  12.662  17.927  0.00  0.00    +0.000 C 
ENDBRANCH   7  18
ENDBRANCH   1  11
BRANCH   6  21
ATOM     21  S   UNL     1       4.885   4.089  18.174  0.00  0.00    +0.000 S 
BRANCH  21  22
ATOM     22  C   UNL     1       3.849   5.511  18.515  0.00  0.00    +0.000 A 
ATOM     23  C   UNL     1       3.555   6.474  17.550  0.00  0.00    +0.000 A 
ATOM     24  C   UNL     1       2.916   7.682  17.884  0.00  0.00    +0.000 A 
ATOM     25  C   UNL     1       2.260   7.775  19.125  0.00  0.00    +0.000 A 
ATOM     26  C   UNL     1       1.419   8.712  19.807  0.00  0.00    +0.000 A 
ATOM     27  N   UNL     1       0.930   8.172  20.937  0.00  0.00    +0.000 NA
ATOM     28  N   UNL     1       1.523   6.978  21.025  0.00  0.00    +0.000 N 
ATOM     29  C   UNL     1       2.395   6.707  20.009  0.00  0.00    +0.000 A 
ATOM     30  C   UNL     1       3.258   5.622  19.787  0.00  0.00    +0.000 A 
ATOM     31  H   UNL     1       1.262   6.378  21.798  0.00  0.00    +0.000 HD
BRANCH  26  32
ATOM     32  C   UNL     1       1.124  10.073  19.421  0.00  0.00    +0.000 C 
ATOM     33  C   UNL     1      -0.034  10.669  19.765  0.00  0.00    +0.000 C 
BRANCH  33  34
ATOM     34  C   UNL     1      -0.402  12.088  19.662  0.00  0.00    +0.000 A 
ATOM     35  C   UNL     1      -1.125  12.662  20.713  0.00  0.00    +0.000 A 
ATOM     36  C   UNL     1      -1.337  14.035  20.722  0.00  0.00    +0.000 A 
ATOM     37  C   UNL     1      -0.849  14.795  19.670  0.00  0.00    +0.000 A 
ATOM     38  C   UNL     1      -0.170  14.141  18.646  0.00  0.00    +0.000 A 
ATOM     39  N   UNL     1       0.071  12.808  18.622  0.00  0.00    +0.000 NA
ENDBRANCH  33  34
ENDBRANCH  26  32
ENDBRANCH  21  22
ENDBRANCH   6  21
TORSDOF 6
ENDMDL
MODEL 3
REMARK VINA RESULT:      -9.3      1.753      2.278
REMARK  Name = 
REMARK  9 active torsions:
REMARK  status: ('A' for Active; 'I' for Inactive)
REMARK    1  A    between atoms: C_1  and  C_2
REMARK    2  A    between atoms: C_2  and  C_3
REMARK    3  A    between atoms: C_2  and  C_4
REMARK    4  A    between atoms: C_2  and  C_5
REMARK    5  A    between atoms: C_9  and  C_11
REMARK    6  A    between atoms: C_16  and  S_17
REMARK    7  A    between atoms: S_17  and  C_18
REMARK    8  A    between atoms: C_22  and  C_23
REMARK    9  A    between atoms: C_24  and  C_25
REMARK                            x       y       z     vdW  Elec       q    Type
REMARK                         _______ _______ _______ _____ _____    ______ ____
ROOT
ATOM      1  C   UNL     1       6.475   5.315  16.476  0.00  0.00    +0.000 A 
ATOM      2  C   UNL     1       6.920   5.382  15.135  0.00  0.00    +0.000 A 
ATOM      3  C   UNL     1       6.284   4.669  14.132  0.00  0.00    +0.000 A 
ATOM      4  C   UNL     1       5.190   3.895  14.448  0.00  0.00    +0.000 A 
ATOM      5  C   UNL     1       4.733   3.803  15.785  0.00  0.00    +0.000 A 
ATOM      6  C   UNL     1       5.380   4.490  16.823  0.00  0.00    +0.000 A 
ENDROOT
BRANCH   1  11
ATOM      7  C   UNL     1       9.004  10.342  18.478  0.00  0.00    +0.000 A 
ATOM      8  C   UNL     1       8.216   9.781  17.488  0.00  0.00    +0.000 A 
ATOM      9  C   UNL     1       8.043   8.425  17.852  0.00  0.00    +0.000 A 
ATOM     10  N   UNL     1       7.347   7.492  17.108  0.00  0.00    +0.000 N 
ATOM     11  C   UNL     1       7.263   6.155  17.422  0.00  0.00    +0.000 C 
ATOM     12  O   UNL     1       7.836   5.563  18.329  0.00  0.00    +0.000 OA
ATOM     13  N   UNL     1       8.637   8.173  19.015  0.00  0.00    +0.000 NA
ATOM     14  N   UNL     1       9.187   9.329  19.379  0.00  0.00    +0.000 N 
ATOM     15  H   UNL     1       6.872   7.840  16.286  0.00  0.00    +0.000 HD
ATOM     16  H   UNL     1       9.696   9.346  20.255  0.00  0.00    +0.000 HD
BRANCH   7  18
ATOM     17  C   UNL     1      11.002  11.751  18.006  0.00  0.00    +0.000 C 
ATOM     18  C   UNL     1       9.599  11.722  18.635  0.00  0.00    +0.000 C 
ATOM     19  C   UNL     1       9.701  12.061  20.134  0.00  0.00    +0.000 C 
ATOM     20  C   UNL     1       8.735  12.808  17.960  0.00  0.00    +0.000 C 
ENDBRANCH   7  18
ENDBRANCH   1  11
BRANCH   6  21
ATOM     21  S   UNL     1       4.771   4.372  18.525  0.00  0.00    +0.000 S 
BRANCH  21  22
ATOM     22  C   UNL     1       3.713   5.784  18.835  0.00  0.00    +0.000 A 
ATOM     23  C   UNL     1       3.067   5.984  20.055  0.00  0.00    +0.000 A 
ATOM     24  C   UNL     1       2.084   6.979  20.215  0.00  0.00    +0.000 A 
ATOM     25  C   UNL     1       1.997   7.999  19.251  0.00  0.00    +0.000 A 
ATOM     26  C   UNL     1       1.272   9.221  19.069  0.00  0.00    +0.000 A 
ATOM     27  N   UNL     1       1.742   9.895  18.005  0.00  0.00    +0.000 NA
ATOM     28  N   UNL     1       2.656   9.081  17.467  0.00  0.00    +0.000 N 
ATOM     29  C   UNL     1       2.804   7.891  18.121  0.00  0.00    +0.000 A 
ATOM     30  C   UNL     1       3.583   6.760  17.829  0.00  0.00    +0.000 A 
ATOM     31  H   UNL     1       3.169   9.418  16.662  0.00  0.00    +0.000 HD
BRANCH  26  32
ATOM     32  C   UNL     1       0.158   9.707  19.851  0.00  0.00    +0.000 C 
ATOM     33  C   UNL     1      -0.007  11.021  20.103  0.00  0.00    +0.000 C 
BRANCH  33  34
ATOM     34  C   UNL     1      -1.176  11.706  20.669  0.00  0.00    +0.000 A 
ATOM     35  C   UNL     1      -2.152  12.187  19.790  0.00  0.00    +0.000 A 
ATOM     36  C   UNL     1      -3.344  12.685  20.303  0.00  0.00    +0.000 A 
ATOM     37  C   UNL     1      -3.519  12.718  21.677  0.00  0.00    +0.000 A 
ATOM     38  C   UNL     1      -2.485  12.252  22.483  0.00  0.00    +0.000 A 
ATOM     39  N   UNL     1      -1.323  11.741  22.012  0.00  0.00    +0.000 NA
ENDBRANCH  33  34
ENDBRANCH  26  32
ENDBRANCH  21  22
ENDBRANCH   6  21
TORSDOF 6
ENDMDL
MODEL 4
REMARK VINA RESULT:      -9.1      3.611      8.384
REMARK  Name = 
REMARK  9 active torsions:
REMARK  status: ('A' for Active; 'I' for Inactive)
REMARK    1  A    between atoms: C_1  and  C_2
REMARK    2  A    between atoms: C_2  and  C_3
REMARK    3  A    between atoms: C_2  and  C_4
REMARK    4  A    between atoms: C_2  and  C_5
REMARK    5  A    between atoms: C_9  and  C_11
REMARK    6  A    between atoms: C_16  and  S_17
REMARK    7  A    between atoms: S_17  and  C_18
REMARK    8  A    between atoms: C_22  and  C_23
REMARK    9  A    between atoms: C_24  and  C_25
REMARK                            x       y       z     vdW  Elec       q    Type
REMARK                         _______ _______ _______ _____ _____    ______ ____
ROOT
ATOM      1  C   UNL     1      -0.363  11.721  18.826  0.00  0.00    +0.000 A 
ATOM      2  C   UNL     1      -1.228  12.289  17.862  0.00  0.00    +0.000 A 
ATOM      3  C   UNL     1      -2.176  11.519  17.208  0.00  0.00    +0.000 A 
ATOM      4  C   UNL     1      -2.284  10.181  17.516  0.00  0.00    +0.000 A 
ATOM      5  C   UNL     1      -1.421   9.588  18.468  0.00  0.00    +0.000 A 
ATOM      6  C   UNL     1      -0.432  10.339  19.120  0.00  0.00    +0.000 A 
ENDROOT
BRANCH   1  11
ATOM      7  C   UNL     1       4.646  14.955  19.186  0.00  0.00    +0.000 A 
ATOM      8  C   UNL     1       3.920  14.065  18.415  0.00  0.00    +0.000 A 
ATOM      9  C   UNL     1       2.712  13.840  19.116  0.00  0.00    +0.000 A 
ATOM     10  N   UNL     1       1.713  12.977  18.707  0.00  0.00    +0.000 N 
ATOM     11  C   UNL     1       0.585  12.694  19.442  0.00  0.00    +0.000 C 
ATOM     12  O   UNL     1       0.317  13.069  20.577  0.00  0.00    +0.000 OA
ATOM     13  N   UNL     1       2.667  14.578  20.221  0.00  0.00    +0.000 NA
ATOM     14  N   UNL     1       3.818  15.247  20.235  0.00  0.00    +0.000 N 
ATOM     15  H   UNL     1       1.839  12.543  17.803  0.00  0.00    +0.000 HD
ATOM     16  H   UNL     1       3.980  15.877  21.013  0.00  0.00    +0.000 HD
BRANCH   7  18
ATOM     17  C   UNL     1       6.737  14.854  17.838  0.00  0.00    +0.000 C 
ATOM     18  C   UNL     1       6.034  15.529  19.028  0.00  0.00    +0.000 C 
ATOM     19  C   UNL     1       6.839  15.267  20.315  0.00  0.00    +0.000 C 
ATOM     20  C   UNL     1       6.011  17.053  18.785  0.00  0.00    +0.000 C 
ENDBRANCH   7  18
ENDBRANCH   1  11
BRANCH   6  21
ATOM     21  S   UNL     1       0.653   9.566  20.347  0.00  0.00    +0.000 S 
BRANCH  21  22
ATOM     22  C   UNL     1       1.692   8.377  19.499  0.00  0.00    +0.000 A 
ATOM     23  C   UNL     1       2.170   8.586  18.206  0.00  0.00    +0.000 A 
ATOM     24  C   UNL     1       2.808   7.563  17.481  0.00  0.00    +0.000 A 
ATOM     25  C   UNL     1       3.275   6.435  18.179  0.00  0.00    +0.000 A 
ATOM     26  C   UNL     1       4.047   5.263  17.894  0.00  0.00    +0.000 A 
ATOM     27  N   UNL     1       4.336   4.602  19.029  0.00  0.00    +0.000 NA
ATOM     28  N   UNL     1       3.682   5.268  19.984  0.00  0.00    +0.000 N 
ATOM     29  C   UNL     1       2.960   6.335  19.532  0.00  0.00    +0.000 A 
ATOM     30  C   UNL     1       2.090   7.218  20.192  0.00  0.00    +0.000 A 
ATOM     31  H   UNL     1       3.796   4.954  20.940  0.00  0.00    +0.000 HD
BRANCH  26  32
ATOM     32  C   UNL     1       4.459   4.773  16.599  0.00  0.00    +0.000 C 
ATOM     33  C   UNL     1       5.437   5.376  15.895  0.00  0.00    +0.000 C 
BRANCH  33  34
ATOM     34  C   UNL     1       6.132   4.895  14.693  0.00  0.00    +0.000 A 
ATOM     35  C   UNL     1       5.502   3.926  13.907  0.00  0.00    +0.000 A 
ATOM     36  C   UNL     1       6.055   3.580  12.680  0.00  0.00    +0.000 A 
ATOM     37  C   UNL     1       7.236   4.186  12.284  0.00  0.00    +0.000 A 
ATOM     38  C   UNL     1       7.818   5.116  13.140  0.00  0.00    +0.000 A 
ATOM     39  N   UNL     1       7.290   5.490  14.330  0.00  0.00    +0.000 NA
ENDBRANCH  33  34
ENDBRANCH  26  32
ENDBRANCH  21  22
ENDBRANCH   6  21
TORSDOF 6
ENDMDL
MODEL 5
REMARK VINA RESULT:      -8.8      3.591      8.553
REMARK  Name = 
REMARK  9 active torsions:
REMARK  status: ('A' for Active; 'I' for Inactive)
REMARK    1  A    between atoms: C_1  and  C_2
REMARK    2  A    between atoms: C_2  and  C_3
REMARK    3  A    between atoms: C_2  and  C_4
REMARK    4  A    between atoms: C_2  and  C_5
REMARK    5  A    between atoms: C_9  and  C_11
REMARK    6  A    between atoms: C_16  and  S_17
REMARK    7  A    between atoms: S_17  and  C_18
REMARK    8  A    between atoms: C_22  and  C_23
REMARK    9  A    between atoms: C_24  and  C_25
REMARK                            x       y       z     vdW  Elec       q    Type
REMARK                         _______ _______ _______ _____ _____    ______ ____
ROOT
ATOM      1  C   UNL     1      -0.340  11.576  19.384  0.00  0.00    +0.000 A 
ATOM      2  C   UNL     1      -1.084  12.428  18.535  0.00  0.00    +0.000 A 
ATOM      3  C   UNL     1      -2.090  11.930  17.724  0.00  0.00    +0.000 A 
ATOM      4  C   UNL     1      -2.379  10.584  17.761  0.00  0.00    +0.000 A 
ATOM      5  C   UNL     1      -1.640   9.710  18.594  0.00  0.00    +0.000 A 
ATOM      6  C   UNL     1      -0.595  10.185  19.400  0.00  0.00    +0.000 A 
ENDROOT
BRANCH   1  11
ATOM      7  C   UNL     1       4.581  14.840  20.288  0.00  0.00    +0.000 A 
ATOM      8  C   UNL     1       3.731  14.302  19.337  0.00  0.00    +0.000 A 
ATOM      9  C   UNL     1       2.692  13.669  20.059  0.00  0.00    +0.000 A 
ATOM     10  N   UNL     1       1.648  12.970  19.486  0.00  0.00    +0.000 N 
ATOM     11  C   UNL     1       0.694  12.278  20.198  0.00  0.00    +0.000 C 
ATOM     12  O   UNL     1       0.652  12.093  21.408  0.00  0.00    +0.000 OA
ATOM     13  N   UNL     1       2.855  13.845  21.367  0.00  0.00    +0.000 NA
ATOM     14  N   UNL     1       3.974  14.558  21.481  0.00  0.00    +0.000 N 
ATOM     15  H   UNL     1       1.599  12.987  18.476  0.00  0.00    +0.000 HD
ATOM     16  H   UNL     1       4.276  14.801  22.418  0.00  0.00    +0.000 HD
BRANCH   7  18
ATOM     17  C   UNL     1       5.698  17.054  20.511  0.00  0.00    +0.000 C 
ATOM     18  C   UNL     1       5.899  15.568  20.168  0.00  0.00    +0.000 C 
ATOM     19  C   UNL     1       6.417  15.440  18.723  0.00  0.00    +0.000 C 
ATOM     20  C   UNL     1       6.973  14.987  21.110  0.00  0.00    +0.000 C 
ENDBRANCH   7  18
ENDBRANCH   1  11
BRANCH   6  21
ATOM     21  S   UNL     1       0.330   9.053  20.470  0.00  0.00    +0.000 S 
BRANCH  21  22
ATOM     22  C   UNL     1       1.623   8.292  19.490  0.00  0.00    +0.000 A 
ATOM     23  C   UNL     1       2.180   8.912  18.372  0.00  0.00    +0.000 A 
ATOM     24  C   UNL     1       3.041   8.222  17.498  0.00  0.00    +0.000 A 
ATOM     25  C   UNL     1       3.617   7.017  17.936  0.00  0.00    +0.000 A 
ATOM     26  C   UNL     1       4.594   6.081  17.463  0.00  0.00    +0.000 A 
ATOM     27  N   UNL     1       4.879   5.176  18.416  0.00  0.00    +0.000 NA
ATOM     28  N   UNL     1       4.039   5.460  19.415  0.00  0.00    +0.000 N 
ATOM     29  C   UNL     1       3.198   6.507  19.162  0.00  0.00    +0.000 A 
ATOM     30  C   UNL     1       2.138   7.051  19.906  0.00  0.00    +0.000 A 
ATOM     31  H   UNL     1       4.113   4.912  20.263  0.00  0.00    +0.000 HD
BRANCH  26  32
ATOM     32  C   UNL     1       5.199   6.027  16.152  0.00  0.00    +0.000 C 
ATOM     33  C   UNL     1       6.044   5.037  15.805  0.00  0.00    +0.000 C 
BRANCH  33  34
ATOM     34  C   UNL     1       6.563   4.699  14.473  0.00  0.00    +0.000 A 
ATOM     35  C   UNL     1       5.903   3.710  13.737  0.00  0.00    +0.000 A 
ATOM     36  C   UNL     1       6.266   3.491  12.414  0.00  0.00    +0.000 A 
ATOM     37  C   UNL     1       7.296   4.241  11.869  0.00  0.00    +0.000 A 
ATOM     38  C   UNL     1       7.924   5.182  12.680  0.00  0.00    +0.000 A 
ATOM     39  N   UNL     1       7.578   5.433  13.965  0.00  0.00    +0.000 NA
ENDBRANCH  33  34
ENDBRANCH  26  32
ENDBRANCH  21  22
ENDBRANCH   6  21
TORSDOF 6
ENDMDL
MODEL 6
REMARK VINA RESULT:      -8.8      4.375      6.515
REMARK  Name = 
REMARK  9 active torsions:
REMARK  status: ('A' for Active; 'I' for Inactive)
REMARK    1  A    between atoms: C_1  and  C_2
REMARK    2  A    between atoms: C_2  and  C_3
REMARK    3  A    between atoms: C_2  and  C_4
REMARK    4  A    between atoms: C_2  and  C_5
REMARK    5  A    between atoms: C_9  and  C_11
REMARK    6  A    between atoms: C_16  and  S_17
REMARK    7  A    between atoms: S_17  and  C_18
REMARK    8  A    between atoms: C_22  and  C_23
REMARK    9  A    between atoms: C_24  and  C_25
REMARK                            x       y       z     vdW  Elec       q    Type
REMARK                         _______ _______ _______ _____ _____    ______ ____
ROOT
ATOM      1  C   UNL     1       3.777   4.199  19.189  0.00  0.00    +0.000 A 
ATOM      2  C   UNL     1       3.702   3.075  20.044  0.00  0.00    +0.000 A 
ATOM      3  C   UNL     1       2.754   3.002  21.052  0.00  0.00    +0.000 A 
ATOM      4  C   UNL     1       1.860   4.038  21.209  0.00  0.00    +0.000 A 
ATOM      5  C   UNL     1       1.923   5.178  20.373  0.00  0.00    +0.000 A 
ATOM      6  C   UNL     1       2.894   5.289  19.367  0.00  0.00    +0.000 A 
ENDROOT
BRANCH   1  11
ATOM      7  C   UNL     1       5.954   3.775  13.643  0.00  0.00    +0.000 A 
ATOM      8  C   UNL     1       4.808   3.891  14.409  0.00  0.00    +0.000 A 
ATOM      9  C   UNL     1       5.246   4.000  15.750  0.00  0.00    +0.000 A 
ATOM     10  N   UNL     1       4.411   4.095  16.846  0.00  0.00    +0.000 N 
ATOM     11  C   UNL     1       4.845   4.105  18.152  0.00  0.00    +0.000 C 
ATOM     12  O   UNL     1       5.989   3.950  18.562  0.00  0.00    +0.000 OA
ATOM     13  N   UNL     1       6.574   4.004  15.809  0.00  0.00    +0.000 NA
ATOM     14  N   UNL     1       6.976   3.887  14.545  0.00  0.00    +0.000 N 
ATOM     15  H   UNL     1       3.422   4.166  16.650  0.00  0.00    +0.000 HD
ATOM     16  H   UNL     1       7.975   3.870  14.375  0.00  0.00    +0.000 HD
BRANCH   7  18
ATOM     17  C   UNL     1       4.821   3.718  11.426  0.00  0.00    +0.000 C 
ATOM     18  C   UNL     1       6.162   3.556  12.163  0.00  0.00    +0.000 C 
ATOM     19  C   UNL     1       6.704   2.132  11.934  0.00  0.00    +0.000 C 
ATOM     20  C   UNL     1       7.176   4.551  11.563  0.00  0.00    +0.000 C 
ENDBRANCH   7  18
ENDBRANCH   1  11
BRANCH   6  21
ATOM     21  S   UNL     1       2.949   6.750  18.296  0.00  0.00    +0.000 S 
BRANCH  21  22
ATOM     22  C   UNL     1       1.999   8.051  19.082  0.00  0.00    +0.000 A 
ATOM     23  C   UNL     1       1.674   8.028  20.438  0.00  0.00    +0.000 A 
ATOM     24  C   UNL     1       0.761   8.943  20.993  0.00  0.00    +0.000 A 
ATOM     25  C   UNL     1       0.437  10.099  20.260  0.00  0.00    +0.000 A 
ATOM     26  C   UNL     1      -0.310  11.303  20.463  0.00  0.00    +0.000 A 
ATOM     27  N   UNL     1      -0.118  12.156  19.442  0.00  0.00    +0.000 NA
ATOM     28  N   UNL     1       0.635  11.477  18.572  0.00  0.00    +0.000 N 
ATOM     29  C   UNL     1       0.940  10.205  18.965  0.00  0.00    +0.000 A 
ATOM     30  C   UNL     1       1.624   9.167  18.312  0.00  0.00    +0.000 A 
ATOM     31  H   UNL     1       0.933  11.957  17.732  0.00  0.00    +0.000 HD
BRANCH  26  32
ATOM     32  C   UNL     1      -1.197  11.614  21.561  0.00  0.00    +0.000 C 
ATOM     33  C   UNL     1      -2.374  12.238  21.363  0.00  0.00    +0.000 C 
BRANCH  33  34
ATOM     34  C   UNL     1      -3.485  12.424  22.307  0.00  0.00    +0.000 A 
ATOM     35  C   UNL     1      -3.184  12.538  23.668  0.00  0.00    +0.000 A 
ATOM     36  C   UNL     1      -4.192  12.885  24.560  0.00  0.00    +0.000 A 
ATOM     37  C   UNL     1      -5.476  13.078  24.077  0.00  0.00    +0.000 A 
ATOM     38  C   UNL     1      -5.698  12.911  22.714  0.00  0.00    +0.000 A 
ATOM     39  N   UNL     1      -4.732  12.596  21.818  0.00  0.00    +0.000 NA
ENDBRANCH  33  34
ENDBRANCH  26  32
ENDBRANCH  21  22
ENDBRANCH   6  21
TORSDOF 6
ENDMDL
MODEL 7
REMARK VINA RESULT:      -8.7      1.037      1.488
REMARK  Name = 
REMARK  9 active torsions:
REMARK  status: ('A' for Active; 'I' for Inactive)
REMARK    1  A    between atoms: C_1  and  C_2
REMARK    2  A    between atoms: C_2  and  C_3
REMARK    3  A    between atoms: C_2  and  C_4
REMARK    4  A    between atoms: C_2  and  C_5
REMARK    5  A    between atoms: C_9  and  C_11
REMARK    6  A    between atoms: C_16  and  S_17
REMARK    7  A    between atoms: S_17  and  C_18
REMARK    8  A    between atoms: C_22  and  C_23
REMARK    9  A    between atoms: C_24  and  C_25
REMARK                            x       y       z     vdW  Elec       q    Type
REMARK                         _______ _______ _______ _____ _____    ______ ____
ROOT
ATOM      1  C   UNL     1       6.738   4.971  15.732  0.00  0.00    +0.000 A 
ATOM      2  C   UNL     1       7.232   5.309  14.451  0.00  0.00    +0.000 A 
ATOM      3  C   UNL     1       6.736   4.701  13.309  0.00  0.00    +0.000 A 
ATOM      4  C   UNL     1       5.733   3.765  13.427  0.00  0.00    +0.000 A 
ATOM      5  C   UNL     1       5.231   3.402  14.699  0.00  0.00    +0.000 A 
ATOM      6  C   UNL     1       5.739   3.979  15.873  0.00  0.00    +0.000 A 
ENDROOT
BRANCH   1  11
ATOM      7  C   UNL     1       8.840   9.823  18.509  0.00  0.00    +0.000 A 
ATOM      8  C   UNL     1       8.206   9.347  17.376  0.00  0.00    +0.000 A 
ATOM      9  C   UNL     1       8.024   7.960  17.587  0.00  0.00    +0.000 A 
ATOM     10  N   UNL     1       7.458   7.092  16.673  0.00  0.00    +0.000 N 
ATOM     11  C   UNL     1       7.371   5.730  16.849  0.00  0.00    +0.000 C 
ATOM     12  O   UNL     1       7.837   5.062  17.765  0.00  0.00    +0.000 OA
ATOM     13  N   UNL     1       8.467   7.607  18.790  0.00  0.00    +0.000 NA
ATOM     14  N   UNL     1       8.932   8.732  19.329  0.00  0.00    +0.000 N 
ATOM     15  H   UNL     1       7.086   7.509  15.831  0.00  0.00    +0.000 HD
ATOM     16  H   UNL     1       9.321   8.674  20.263  0.00  0.00    +0.000 HD
BRANCH   7  18
ATOM     17  C   UNL     1       9.219  11.419  20.383  0.00  0.00    +0.000 C 
ATOM     18  C   UNL     1       9.371  11.191  18.870  0.00  0.00    +0.000 C 
ATOM     19  C   UNL     1       8.569  12.262  18.106  0.00  0.00    +0.000 C 
ATOM     20  C   UNL     1      10.859  11.356  18.495  0.00  0.00    +0.000 C 
ENDBRANCH   7  18
ENDBRANCH   1  11
BRANCH   6  21
ATOM     21  S   UNL     1       5.073   3.513  17.492  0.00  0.00    +0.000 S 
BRANCH  21  22
ATOM     22  C   UNL     1       4.111   4.892  18.114  0.00  0.00    +0.000 A 
ATOM     23  C   UNL     1       3.897   6.052  17.372  0.00  0.00    +0.000 A 
ATOM     24  C   UNL     1       3.319   7.200  17.948  0.00  0.00    +0.000 A 
ATOM     25  C   UNL     1       2.640   7.068  19.172  0.00  0.00    +0.000 A 
ATOM     26  C   UNL     1       1.838   7.890  20.028  0.00  0.00    +0.000 A 
ATOM     27  N   UNL     1       1.291   7.155  21.011  0.00  0.00    +0.000 NA
ATOM     28  N   UNL     1       1.813   5.935  20.851  0.00  0.00    +0.000 N 
ATOM     29  C   UNL     1       2.693   5.832  19.811  0.00  0.00    +0.000 A 
ATOM     30  C   UNL     1       3.498   4.767  19.375  0.00  0.00    +0.000 A 
ATOM     31  H   UNL     1       1.500   5.203  21.477  0.00  0.00    +0.000 HD
BRANCH  26  32
ATOM     32  C   UNL     1       1.631   9.317  19.935  0.00  0.00    +0.000 C 
ATOM     33  C   UNL     1       0.720   9.845  19.094  0.00  0.00    +0.000 C 
BRANCH  33  34
ATOM     34  C   UNL     1       0.220  11.225  19.032  0.00  0.00    +0.000 A 
ATOM     35  C   UNL     1       0.915  12.213  19.737  0.00  0.00    +0.000 A 
ATOM     36  C   UNL     1       0.567  13.547  19.559  0.00  0.00    +0.000 A 
ATOM     37  C   UNL     1      -0.483  13.858  18.709  0.00  0.00    +0.000 A 
ATOM     38  C   UNL     1      -1.145  12.812  18.073  0.00  0.00    +0.000 A 
ATOM     39  N   UNL     1      -0.814  11.506  18.209  0.00  0.00    +0.000 NA
ENDBRANCH  33  34
ENDBRANCH  26  32
ENDBRANCH  21  22
ENDBRANCH   6  21
TORSDOF 6
ENDMDL
MODEL 8
REMARK VINA RESULT:      -8.6      0.943      1.351
REMARK  Name = 
REMARK  9 active torsions:
REMARK  status: ('A' for Active; 'I' for Inactive)
REMARK    1  A    between atoms: C_1  and  C_2
REMARK    2  A    between atoms: C_2  and  C_3
REMARK    3  A    between atoms: C_2  and  C_4
REMARK    4  A    between atoms: C_2  and  C_5
REMARK    5  A    between atoms: C_9  and  C_11
REMARK    6  A    between atoms: C_16  and  S_17
REMARK    7  A    between atoms: S_17  and  C_18
REMARK    8  A    between atoms: C_22  and  C_23
REMARK    9  A    between atoms: C_24  and  C_25
REMARK                            x       y       z     vdW  Elec       q    Type
REMARK                         _______ _______ _______ _____ _____    ______ ____
ROOT
ATOM      1  C   UNL     1       6.709   5.198  16.034  0.00  0.00    +0.000 A 
ATOM      2  C   UNL     1       7.112   5.511  14.715  0.00  0.00    +0.000 A 
ATOM      3  C   UNL     1       6.552   4.867  13.623  0.00  0.00    +0.000 A 
ATOM      4  C   UNL     1       5.576   3.919  13.830  0.00  0.00    +0.000 A 
ATOM      5  C   UNL     1       5.165   3.581  15.142  0.00  0.00    +0.000 A 
ATOM      6  C   UNL     1       5.739   4.195  16.264  0.00  0.00    +0.000 A 
ENDROOT
BRANCH   1  11
ATOM      7  C   UNL     1       8.902  10.153  18.548  0.00  0.00    +0.000 A 
ATOM      8  C   UNL     1       8.202   9.638  17.472  0.00  0.00    +0.000 A 
ATOM      9  C   UNL     1       8.060   8.253  17.727  0.00  0.00    +0.000 A 
ATOM     10  N   UNL     1       7.451   7.354  16.874  0.00  0.00    +0.000 N 
ATOM     11  C   UNL     1       7.402   5.995  17.087  0.00  0.00    +0.000 C 
ATOM     12  O   UNL     1       7.940   5.358  17.985  0.00  0.00    +0.000 OA
ATOM     13  N   UNL     1       8.590   7.938  18.905  0.00  0.00    +0.000 NA
ATOM     14  N   UNL     1       9.069   9.084  19.385  0.00  0.00    +0.000 N 
ATOM     15  H   UNL     1       7.015   7.744  16.049  0.00  0.00    +0.000 HD
ATOM     16  H   UNL     1       9.521   9.055  20.292  0.00  0.00    +0.000 HD
BRANCH   7  18
ATOM     17  C   UNL     1      10.911  11.620  18.434  0.00  0.00    +0.000 C 
ATOM     18  C   UNL     1       9.430  11.538  18.840  0.00  0.00    +0.000 C 
ATOM     19  C   UNL     1       9.295  11.822  20.348  0.00  0.00    +0.000 C 
ATOM     20  C   UNL     1       8.650  12.631  18.080  0.00  0.00    +0.000 C 
ENDBRANCH   7  18
ENDBRANCH   1  11
BRANCH   6  21
ATOM     21  S   UNL     1       5.189   3.761  17.935  0.00  0.00    +0.000 S 
BRANCH  21  22
ATOM     22  C   UNL     1       4.076   5.045  18.505  0.00  0.00    +0.000 A 
ATOM     23  C   UNL     1       3.775   6.171  17.739  0.00  0.00    +0.000 A 
ATOM     24  C   UNL     1       3.068   7.262  18.278  0.00  0.00    +0.000 A 
ATOM     25  C   UNL     1       2.364   7.078  19.481  0.00  0.00    +0.000 A 
ATOM     26  C   UNL     1       1.456   7.827  20.298  0.00  0.00    +0.000 A 
ATOM     27  N   UNL     1       0.951   7.053  21.273  0.00  0.00    +0.000 NA
ATOM     28  N   UNL     1       1.595   5.888  21.149  0.00  0.00    +0.000 N 
ATOM     29  C   UNL     1       2.515   5.861  20.140  0.00  0.00    +0.000 A 
ATOM     30  C   UNL     1       3.435   4.875  19.746  0.00  0.00    +0.000 A 
ATOM     31  H   UNL     1       1.333   5.136  21.774  0.00  0.00    +0.000 HD
BRANCH  26  32
ATOM     32  C   UNL     1       1.113   9.226  20.177  0.00  0.00    +0.000 C 
ATOM     33  C   UNL     1       1.487   9.954  19.107  0.00  0.00    +0.000 C 
BRANCH  33  34
ATOM     34  C   UNL     1       1.043  11.298  18.712  0.00  0.00    +0.000 A 
ATOM     35  C   UNL     1      -0.332  11.551  18.656  0.00  0.00    +0.000 A 
ATOM     36  C   UNL     1      -0.776  12.852  18.453  0.00  0.00    +0.000 A 
ATOM     37  C   UNL     1       0.160  13.860  18.281  0.00  0.00    +0.000 A 
ATOM     38  C   UNL     1       1.509  13.517  18.316  0.00  0.00    +0.000 A 
ATOM     39  N   UNL     1       1.971  12.264  18.535  0.00  0.00    +0.000 NA
ENDBRANCH  33  34
ENDBRANCH  26  32
ENDBRANCH  21  22
ENDBRANCH   6  21
TORSDOF 6
ENDMDL
MODEL 9
REMARK VINA RESULT:      -8.4      4.400      6.437
REMARK  Name = 
REMARK  9 active torsions:
REMARK  status: ('A' for Active; 'I' for Inactive)
REMARK    1  A    between atoms: C_1  and  C_2
REMARK    2  A    between atoms: C_2  and  C_3
REMARK    3  A    between atoms: C_2  and  C_4
REMARK    4  A    between atoms: C_2  and  C_5
REMARK    5  A    between atoms: C_9  and  C_11
REMARK    6  A    between atoms: C_16  and  S_17
REMARK    7  A    between atoms: S_17  and  C_18
REMARK    8  A    between atoms: C_22  and  C_23
REMARK    9  A    between atoms: C_24  and  C_25
REMARK                            x       y       z     vdW  Elec       q    Type
REMARK                         _______ _______ _______ _____ _____    ______ ____
ROOT
ATOM      1  C   UNL     1       3.778   4.241  19.161  0.00  0.00    +0.000 A 
ATOM      2  C   UNL     1       3.636   3.089  19.969  0.00  0.00    +0.000 A 
ATOM      3  C   UNL     1       2.673   3.026  20.963  0.00  0.00    +0.000 A 
ATOM      4  C   UNL     1       1.832   4.099  21.153  0.00  0.00    +0.000 A 
ATOM      5  C   UNL     1       1.963   5.267  20.365  0.00  0.00    +0.000 A 
ATOM      6  C   UNL     1       2.951   5.368  19.374  0.00  0.00    +0.000 A 
ENDROOT
BRANCH   1  11
ATOM      7  C   UNL     1       5.991   3.783  13.632  0.00  0.00    +0.000 A 
ATOM      8  C   UNL     1       4.840   3.912  14.389  0.00  0.00    +0.000 A 
ATOM      9  C   UNL     1       5.270   4.019  15.733  0.00  0.00    +0.000 A 
ATOM     10  N   UNL     1       4.428   4.126  16.823  0.00  0.00    +0.000 N 
ATOM     11  C   UNL     1       4.853   4.135  18.132  0.00  0.00    +0.000 C 
ATOM     12  O   UNL     1       5.992   3.969  18.551  0.00  0.00    +0.000 OA
ATOM     13  N   UNL     1       6.598   4.010  15.802  0.00  0.00    +0.000 NA
ATOM     14  N   UNL     1       7.007   3.886  14.541  0.00  0.00    +0.000 N 
ATOM     15  H   UNL     1       3.441   4.207  16.620  0.00  0.00    +0.000 HD
ATOM     16  H   UNL     1       8.007   3.859  14.378  0.00  0.00    +0.000 HD
BRANCH   7  18
ATOM     17  C   UNL     1       7.141   4.646  11.599  0.00  0.00    +0.000 C 
ATOM     18  C   UNL     1       6.206   3.558  12.154  0.00  0.00    +0.000 C 
ATOM     19  C   UNL     1       4.849   3.629  11.429  0.00  0.00    +0.000 C 
ATOM     20  C   UNL     1       6.830   2.178  11.859  0.00  0.00    +0.000 C 
ENDBRANCH   7  18
ENDBRANCH   1  11
BRANCH   6  21
ATOM     21  S   UNL     1       3.093   6.865  18.365  0.00  0.00    +0.000 S 
BRANCH  21  22
ATOM     22  C   UNL     1       2.000   8.107  19.055  0.00  0.00    +0.000 A 
ATOM     23  C   UNL     1       1.668   8.145  20.408  0.00  0.00    +0.000 A 
ATOM     24  C   UNL     1       0.655   8.992  20.896  0.00  0.00    +0.000 A 
ATOM     25  C   UNL     1       0.214  10.050  20.082  0.00  0.00    +0.000 A 
ATOM     26  C   UNL     1      -0.662  11.177  20.198  0.00  0.00    +0.000 A 
ATOM     27  N   UNL     1      -0.555  11.971  19.118  0.00  0.00    +0.000 NA
ATOM     28  N   UNL     1       0.275  11.318  18.300  0.00  0.00    +0.000 N 
ATOM     29  C   UNL     1       0.714  10.119  18.783  0.00  0.00    +0.000 A 
ATOM     30  C   UNL     1       1.512   9.118  18.206  0.00  0.00    +0.000 A 
ATOM     31  H   UNL     1       0.526  11.768  17.428  0.00  0.00    +0.000 HD
BRANCH  26  32
ATOM     32  C   UNL     1      -1.587  11.466  21.270  0.00  0.00    +0.000 C 
ATOM     33  C   UNL     1      -1.930  12.730  21.585  0.00  0.00    +0.000 C 
BRANCH  33  34
ATOM     34  C   UNL     1      -3.007  13.195  22.470  0.00  0.00    +0.000 A 
ATOM     35  C   UNL     1      -3.522  14.479  22.268  0.00  0.00    +0.000 A 
ATOM     36  C   UNL     1      -4.650  14.878  22.975  0.00  0.00    +0.000 A 
ATOM     37  C   UNL     1      -5.215  14.000  23.886  0.00  0.00    +0.000 A 
ATOM     38  C   UNL     1      -4.620  12.753  24.053  0.00  0.00    +0.000 A 
ATOM     39  N   UNL     1      -3.535  12.328  23.362  0.00  0.00    +0.000 NA
ENDBRANCH  33  34
ENDBRANCH  26  32
ENDBRANCH  21  22
ENDBRANCH   6  21
TORSDOF 6
ENDMDL
