MODEL 1
REMARK VINA RESULT:      -8.6      0.000      0.000
REMARK  Name = 
REMARK  5 active torsions:
REMARK  status: ('A' for Active; 'I' for Inactive)
REMARK    1  A    between atoms: C_4  and  C_5
REMARK    2  A    between atoms: C_5  and  N_6
REMARK    3  A    between atoms: C_8  and  C_9
REMARK    4  A    between atoms: C_9  and  O_10
REMARK    5  A    between atoms: O_10  and  C_11
REMARK                            x       y       z     vdW  Elec       q    Type
REMARK                         _______ _______ _______ _____ _____    ______ ____
ROOT
ATOM      1  N   UNL     1       6.676   5.455  17.397  0.00  0.00    +0.000 N 
ATOM      2  C   UNL     1       7.281   5.998  18.494  0.00  0.00    +0.000 A 
ATOM      3  C   UNL     1       7.881   7.137  17.993  0.00  0.00    +0.000 A 
ATOM      4  N   UNL     1       7.785   7.127  16.627  0.00  0.00    +0.000 NA
ATOM      5  N   UNL     1       7.102   6.052  16.272  0.00  0.00    +0.000 NA
ENDROOT
BRANCH   1   6
ATOM      6  C   UNL     1       5.684   4.390  17.348  0.00  0.00    +0.000 C 
BRANCH   6  10
ATOM      7  O   UNL     1       3.102   2.587  20.980  0.00  0.00    +0.000 OA
ATOM      8  C   UNL     1       3.316   3.577  20.292  0.00  0.00    +0.000 A 
ATOM      9  C   UNL     1       4.325   3.542  19.219  0.00  0.00    +0.000 A 
ATOM     10  C   UNL     1       4.550   4.537  18.351  0.00  0.00    +0.000 A 
ATOM     11  C   UNL     1       3.678   5.730  18.461  0.00  0.00    +0.000 A 
ATOM     12  C   UNL     1       3.631   6.781  17.544  0.00  0.00    +0.000 A 
ATOM     13  C   UNL     1       2.892   7.945  17.812  0.00  0.00    +0.000 A 
ATOM     14  C   UNL     1       2.137   8.050  18.977  0.00  0.00    +0.000 A 
ATOM     15 CL   UNL     1       1.268   9.494  19.315  0.00  0.00    +0.000 Cl
ATOM     16  C   UNL     1       2.082   6.979  19.857  0.00  0.00    +0.000 A 
ATOM     17  C   UNL     1       2.845   5.838  19.583  0.00  0.00    +0.000 A 
ATOM     18  O   UNL     1       2.683   4.784  20.500  0.00  0.00    +0.000 OA
ENDBRANCH   6  10
ENDBRANCH   1   6
BRANCH   3  19
ATOM     19  C   UNL     1       8.455   8.298  18.714  0.00  0.00    +0.000 C 
BRANCH  19  20
ATOM     20  O   UNL     1       8.679   9.413  17.853  0.00  0.00    +0.000 OA
BRANCH  20  21
ATOM     21  C   UNL     1       9.012  10.585  18.477  0.00  0.00    +0.000 A 
ATOM     22  C   UNL     1       8.875  11.868  17.937  0.00  0.00    +0.000 A 
ATOM     23  C   UNL     1       9.236  12.991  18.689  0.00  0.00    +0.000 A 
ATOM     24  C   UNL     1       9.736  12.828  19.977  0.00  0.00    +0.000 A 
ATOM     25 BR   UNL     1      10.205  14.352  20.992  0.00  0.00    +0.000 Br
ATOM     26  C   UNL     1       9.888  11.557  20.521  0.00  0.00    +0.000 A 
ATOM     27  C   UNL     1       9.527  10.437  19.767  0.00  0.00    +0.000 A 
ENDBRANCH  20  21
ENDBRANCH  19  20
ENDBRANCH   3  19
TORSDOF 5
ENDMDL
MODEL 2
REMARK VINA RESULT:      -8.3      0.662      1.059
REMARK  Name = 
REMARK  5 active torsions:
REMARK  status: ('A' for Active; 'I' for Inactive)
REMARK    1  A    between atoms: C_4  and  C_5
REMARK    2  A    between atoms: C_5  and  N_6
REMARK    3  A    between atoms: C_8  and  C_9
REMARK    4  A    between atoms: C_9  and  O_10
REMARK    5  A    between atoms: O_10  and  C_11
REMARK                            x       y       z     vdW  Elec       q    Type
REMARK                         _______ _______ _______ _____ _____    ______ ____
ROOT
ATOM      1  N   UNL     1       6.960   5.504  17.540  0.00  0.00    +0.000 N 
ATOM      2  C   UNL     1       7.383   6.439  18.440  0.00  0.00    +0.000 A 
ATOM      3  C   UNL     1       7.717   7.517  17.643  0.00  0.00    +0.000 A 
ATOM      4  N   UNL     1       7.674   7.131  16.330  0.00  0.00    +0.000 NA
ATOM      5  N   UNL     1       7.273   5.871  16.287  0.00  0.00    +0.000 NA
ENDROOT
BRANCH   1   6
ATOM      6  C   UNL     1       6.248   4.261  17.799  0.00  0.00    +0.000 C 
BRANCH   6  10
ATOM      7  O   UNL     1       3.125   2.588  21.048  0.00  0.00    +0.000 OA
ATOM      8  C   UNL     1       3.428   3.540  20.341  0.00  0.00    +0.000 A 
ATOM      9  C   UNL     1       4.608   3.478  19.462  0.00  0.00    +0.000 A 
ATOM     10  C   UNL     1       4.953   4.426  18.580  0.00  0.00    +0.000 A 
ATOM     11  C   UNL     1       4.044   5.588  18.459  0.00  0.00    +0.000 A 
ATOM     12  C   UNL     1       4.128   6.578  17.478  0.00  0.00    +0.000 A 
ATOM     13  C   UNL     1       3.322   7.727  17.536  0.00  0.00    +0.000 A 
ATOM     14  C   UNL     1       2.374   7.875  18.545  0.00  0.00    +0.000 A 
ATOM     15 CL   UNL     1       1.420   9.303  18.631  0.00  0.00    +0.000 Cl
ATOM     16  C   UNL     1       2.196   6.860  19.473  0.00  0.00    +0.000 A 
ATOM     17  C   UNL     1       3.026   5.734  19.412  0.00  0.00    +0.000 A 
ATOM     18  O   UNL     1       2.736   4.733  20.356  0.00  0.00    +0.000 OA
ENDBRANCH   6  10
ENDBRANCH   1   6
BRANCH   3  19
ATOM     19  C   UNL     1       7.978   8.926  18.020  0.00  0.00    +0.000 C 
BRANCH  19  20
ATOM     20  O   UNL     1       9.047   9.046  18.957  0.00  0.00    +0.000 OA
BRANCH  20  21
ATOM     21  C   UNL     1       9.380  10.326  19.315  0.00  0.00    +0.000 A 
ATOM     22  C   UNL     1       9.347  10.849  20.612  0.00  0.00    +0.000 A 
ATOM     23  C   UNL     1       9.734  12.172  20.848  0.00  0.00    +0.000 A 
ATOM     24  C   UNL     1      10.150  12.970  19.786  0.00  0.00    +0.000 A 
ATOM     25 BR   UNL     1      10.687  14.751  20.116  0.00  0.00    +0.000 Br
ATOM     26  C   UNL     1      10.176  12.464  18.490  0.00  0.00    +0.000 A 
ATOM     27  C   UNL     1       9.788  11.142  18.258  0.00  0.00    +0.000 A 
ENDBRANCH  20  21
ENDBRANCH  19  20
ENDBRANCH   3  19
TORSDOF 5
ENDMDL
MODEL 3
REMARK VINA RESULT:      -8.3      4.291      6.137
REMARK  Name = 
REMARK  5 active torsions:
REMARK  status: ('A' for Active; 'I' for Inactive)
REMARK    1  A    between atoms: C_4  and  C_5
REMARK    2  A    between atoms: C_5  and  N_6
REMARK    3  A    between atoms: C_8  and  C_9
REMARK    4  A    between atoms: C_9  and  O_10
REMARK    5  A    between atoms: O_10  and  C_11
REMARK                            x       y       z     vdW  Elec       q    Type
REMARK                         _______ _______ _______ _____ _____    ______ ____
ROOT
ATOM      1  N   UNL     1       2.177   4.937  20.056  0.00  0.00    +0.000 N 
ATOM      2  C   UNL     1       3.369   4.352  19.739  0.00  0.00    +0.000 A 
ATOM      3  C   UNL     1       3.058   3.576  18.639  0.00  0.00    +0.000 A 
ATOM      4  N   UNL     1       1.699   3.571  18.467  0.00  0.00    +0.000 NA
ATOM      5  N   UNL     1       1.167   4.357  19.388  0.00  0.00    +0.000 NA
ENDROOT
BRANCH   1   6
ATOM      6  C   UNL     1       1.932   6.050  20.963  0.00  0.00    +0.000 C 
BRANCH   6  10
ATOM      7  O   UNL     1       2.552   8.849  17.105  0.00  0.00    +0.000 OA
ATOM      8  C   UNL     1       2.031   8.759  18.209  0.00  0.00    +0.000 A 
ATOM      9  C   UNL     1       2.200   7.542  19.022  0.00  0.00    +0.000 A 
ATOM     10  C   UNL     1       1.758   7.397  20.278  0.00  0.00    +0.000 A 
ATOM     11  C   UNL     1       1.101   8.572  20.895  0.00  0.00    +0.000 A 
ATOM     12  C   UNL     1       0.744   8.681  22.240  0.00  0.00    +0.000 A 
ATOM     13  C   UNL     1      -0.019   9.766  22.702  0.00  0.00    +0.000 A 
ATOM     14  C   UNL     1      -0.384  10.793  21.836  0.00  0.00    +0.000 A 
ATOM     15 CL   UNL     1      -1.351  12.097  22.401  0.00  0.00    +0.000 Cl
ATOM     16  C   UNL     1       0.045  10.763  20.517  0.00  0.00    +0.000 A 
ATOM     17  C   UNL     1       0.784   9.661  20.071  0.00  0.00    +0.000 A 
ATOM     18  O   UNL     1       1.224   9.744  18.738  0.00  0.00    +0.000 OA
ENDBRANCH   6  10
ENDBRANCH   1   6
BRANCH   3  19
ATOM     19  C   UNL     1       3.957   2.915  17.664  0.00  0.00    +0.000 C 
BRANCH  19  20
ATOM     20  O   UNL     1       4.330   3.784  16.596  0.00  0.00    +0.000 OA
BRANCH  20  21
ATOM     21  C   UNL     1       5.234   4.762  16.917  0.00  0.00    +0.000 A 
ATOM     22  C   UNL     1       6.518   4.555  17.430  0.00  0.00    +0.000 A 
ATOM     23  C   UNL     1       7.354   5.644  17.697  0.00  0.00    +0.000 A 
ATOM     24  C   UNL     1       6.902   6.938  17.454  0.00  0.00    +0.000 A 
ATOM     25 BR   UNL     1       8.044   8.403  17.801  0.00  0.00    +0.000 Br
ATOM     26  C   UNL     1       5.622   7.157  16.954  0.00  0.00    +0.000 A 
ATOM     27  C   UNL     1       4.789   6.067  16.688  0.00  0.00    +0.000 A 
ENDBRANCH  20  21
ENDBRANCH  19  20
ENDBRANCH   3  19
TORSDOF 5
ENDMDL
MODEL 4
REMARK VINA RESULT:      -8.2      4.605      7.404
REMARK  Name = 
REMARK  5 active torsions:
REMARK  status: ('A' for Active; 'I' for Inactive)
REMARK    1  A    between atoms: C_4  and  C_5
REMARK    2  A    between atoms: C_5  and  N_6
REMARK    3  A    between atoms: C_8  and  C_9
REMARK    4  A    between atoms: C_9  and  O_10
REMARK    5  A    between atoms: O_10  and  C_11
REMARK                            x       y       z     vdW  Elec       q    Type
REMARK                         _______ _______ _______ _____ _____    ______ ____
ROOT
ATOM      1  N   UNL     1       4.168   4.557  19.523  0.00  0.00    +0.000 N 
ATOM      2  C   UNL     1       3.530   5.757  19.394  0.00  0.00    +0.000 A 
ATOM      3  C   UNL     1       2.346   5.561  20.078  0.00  0.00    +0.000 A 
ATOM      4  N   UNL     1       2.236   4.236  20.407  0.00  0.00    +0.000 NA
ATOM      5  N   UNL     1       3.332   3.620  19.999  0.00  0.00    +0.000 NA
ENDROOT
BRANCH   1   6
ATOM      6  C   UNL     1       5.559   4.239  19.230  0.00  0.00    +0.000 C 
BRANCH   6  10
ATOM      7  O   UNL     1       8.078   8.118  17.921  0.00  0.00    +0.000 OA
ATOM      8  C   UNL     1       7.574   7.070  17.539  0.00  0.00    +0.000 A 
ATOM      9  C   UNL     1       6.854   6.195  18.481  0.00  0.00    +0.000 A 
ATOM     10  C   UNL     1       6.184   5.088  18.135  0.00  0.00    +0.000 A 
ATOM     11  C   UNL     1       6.130   4.765  16.690  0.00  0.00    +0.000 A 
ATOM     12  C   UNL     1       5.336   3.771  16.116  0.00  0.00    +0.000 A 
ATOM     13  C   UNL     1       5.469   3.428  14.761  0.00  0.00    +0.000 A 
ATOM     14  C   UNL     1       6.358   4.119  13.942  0.00  0.00    +0.000 A 
ATOM     15 CL   UNL     1       6.544   3.666  12.293  0.00  0.00    +0.000 Cl
ATOM     16  C   UNL     1       7.086   5.180  14.460  0.00  0.00    +0.000 A 
ATOM     17  C   UNL     1       6.955   5.489  15.819  0.00  0.00    +0.000 A 
ATOM     18  O   UNL     1       7.686   6.614  16.242  0.00  0.00    +0.000 OA
ENDBRANCH   6  10
ENDBRANCH   1   6
BRANCH   3  19
ATOM     19  C   UNL     1       1.347   6.552  20.540  0.00  0.00    +0.000 C 
BRANCH  19  20
ATOM     20  O   UNL     1       1.858   7.884  20.523  0.00  0.00    +0.000 OA
BRANCH  20  21
ATOM     21  C   UNL     1       1.060   8.833  21.105  0.00  0.00    +0.000 A 
ATOM     22  C   UNL     1       0.650   8.851  22.442  0.00  0.00    +0.000 A 
ATOM     23  C   UNL     1      -0.152   9.893  22.919  0.00  0.00    +0.000 A 
ATOM     24  C   UNL     1      -0.545  10.912  22.057  0.00  0.00    +0.000 A 
ATOM     25 BR   UNL     1      -1.615  12.325  22.713  0.00  0.00    +0.000 Br
ATOM     26  C   UNL     1      -0.154  10.899  20.722  0.00  0.00    +0.000 A 
ATOM     27  C   UNL     1       0.647   9.856  20.248  0.00  0.00    +0.000 A 
ENDBRANCH  20  21
ENDBRANCH  19  20
ENDBRANCH   3  19
TORSDOF 5
ENDMDL
MODEL 5
REMARK VINA RESULT:      -8.2      4.849      7.451
REMARK  Name = 
REMARK  5 active torsions:
REMARK  status: ('A' for Active; 'I' for Inactive)
REMARK    1  A    between atoms: C_4  and  C_5
REMARK    2  A    between atoms: C_5  and  N_6
REMARK    3  A    between atoms: C_8  and  C_9
REMARK    4  A    between atoms: C_9  and  O_10
REMARK    5  A    between atoms: O_10  and  C_11
REMARK                            x       y       z     vdW  Elec       q    Type
REMARK                         _______ _______ _______ _____ _____    ______ ____
ROOT
ATOM      1  N   UNL     1       3.372   4.902  18.966  0.00  0.00    +0.000 N 
ATOM      2  C   UNL     1       2.801   6.074  18.559  0.00  0.00    +0.000 A 
ATOM      3  C   UNL     1       2.257   6.582  19.723  0.00  0.00    +0.000 A 
ATOM      4  N   UNL     1       2.345   5.633  20.707  0.00  0.00    +0.000 NA
ATOM      5  N   UNL     1       2.970   4.581  20.207  0.00  0.00    +0.000 NA
ENDROOT
BRANCH   1   6
ATOM      6  C   UNL     1       4.307   4.055  18.240  0.00  0.00    +0.000 C 
BRANCH   6  10
ATOM      7  O   UNL     1       7.956   7.181  18.386  0.00  0.00    +0.000 OA
ATOM      8  C   UNL     1       7.355   6.368  17.696  0.00  0.00    +0.000 A 
ATOM      9  C   UNL     1       6.197   5.634  18.236  0.00  0.00    +0.000 A 
ATOM     10  C   UNL     1       5.418   4.809  17.525  0.00  0.00    +0.000 A 
ATOM     11  C   UNL     1       5.726   4.677  16.083  0.00  0.00    +0.000 A 
ATOM     12  C   UNL     1       4.928   4.019  15.145  0.00  0.00    +0.000 A 
ATOM     13  C   UNL     1       5.378   3.806  13.832  0.00  0.00    +0.000 A 
ATOM     14  C   UNL     1       6.611   4.302  13.418  0.00  0.00    +0.000 A 
ATOM     15 CL   UNL     1       7.171   4.002  11.820  0.00  0.00    +0.000 Cl
ATOM     16  C   UNL     1       7.380   5.050  14.298  0.00  0.00    +0.000 A 
ATOM     17  C   UNL     1       6.924   5.230  15.609  0.00  0.00    +0.000 A 
ATOM     18  O   UNL     1       7.740   6.047  16.412  0.00  0.00    +0.000 OA
ENDBRANCH   6  10
ENDBRANCH   1   6
BRANCH   3  19
ATOM     19  C   UNL     1       1.747   7.943  20.013  0.00  0.00    +0.000 C 
BRANCH  19  20
ATOM     20  O   UNL     1       1.326   8.086  21.368  0.00  0.00    +0.000 OA
BRANCH  20  21
ATOM     21  C   UNL     1       0.690   9.261  21.670  0.00  0.00    +0.000 A 
ATOM     22  C   UNL     1       0.838  10.472  20.987  0.00  0.00    +0.000 A 
ATOM     23  C   UNL     1       0.112  11.599  21.386  0.00  0.00    +0.000 A 
ATOM     24  C   UNL     1      -0.757  11.513  22.468  0.00  0.00    +0.000 A 
ATOM     25 BR   UNL     1      -1.746  13.036  22.990  0.00  0.00    +0.000 Br
ATOM     26  C   UNL     1      -0.905  10.317  23.163  0.00  0.00    +0.000 A 
ATOM     27  C   UNL     1      -0.178   9.192  22.763  0.00  0.00    +0.000 A 
ENDBRANCH  20  21
ENDBRANCH  19  20
ENDBRANCH   3  19
TORSDOF 5
ENDMDL
MODEL 6
REMARK VINA RESULT:      -8.2      1.344      1.748
REMARK  Name = 
REMARK  5 active torsions:
REMARK  status: ('A' for Active; 'I' for Inactive)
REMARK    1  A    between atoms: C_4  and  C_5
REMARK    2  A    between atoms: C_5  and  N_6
REMARK    3  A    between atoms: C_8  and  C_9
REMARK    4  A    between atoms: C_9  and  O_10
REMARK    5  A    between atoms: O_10  and  C_11
REMARK                            x       y       z     vdW  Elec       q    Type
REMARK                         _______ _______ _______ _____ _____    ______ ____
ROOT
ATOM      1  N   UNL     1       6.339   6.152  17.446  0.00  0.00    +0.000 N 
ATOM      2  C   UNL     1       6.445   7.501  17.266  0.00  0.00    +0.000 A 
ATOM      3  C   UNL     1       7.632   7.813  17.900  0.00  0.00    +0.000 A 
ATOM      4  N   UNL     1       8.075   6.711  18.583  0.00  0.00    +0.000 NA
ATOM      5  N   UNL     1       7.233   5.718  18.350  0.00  0.00    +0.000 NA
ENDROOT
BRANCH   1   6
ATOM      6  C   UNL     1       5.432   5.222  16.788  0.00  0.00    +0.000 C 
BRANCH   6  10
ATOM      7  O   UNL     1       3.215   1.411  18.703  0.00  0.00    +0.000 OA
ATOM      8  C   UNL     1       3.309   2.631  18.715  0.00  0.00    +0.000 A 
ATOM      9  C   UNL     1       4.254   3.322  17.820  0.00  0.00    +0.000 A 
ATOM     10  C   UNL     1       4.349   4.651  17.690  0.00  0.00    +0.000 A 
ATOM     11  C   UNL     1       3.392   5.469  18.470  0.00  0.00    +0.000 A 
ATOM     12  C   UNL     1       3.208   6.846  18.332  0.00  0.00    +0.000 A 
ATOM     13  C   UNL     1       2.394   7.562  19.225  0.00  0.00    +0.000 A 
ATOM     14  C   UNL     1       1.700   6.901  20.235  0.00  0.00    +0.000 A 
ATOM     15 CL   UNL     1       0.738   7.791  21.347  0.00  0.00    +0.000 Cl
ATOM     16  C   UNL     1       1.782   5.520  20.332  0.00  0.00    +0.000 A 
ATOM     17  C   UNL     1       2.618   4.828  19.448  0.00  0.00    +0.000 A 
ATOM     18  O   UNL     1       2.594   3.428  19.584  0.00  0.00    +0.000 OA
ENDBRANCH   6  10
ENDBRANCH   1   6
BRANCH   3  19
ATOM     19  C   UNL     1       8.445   9.050  17.829  0.00  0.00    +0.000 C 
BRANCH  19  20
ATOM     20  O   UNL     1       8.993   9.411  19.096  0.00  0.00    +0.000 OA
BRANCH  20  21
ATOM     21  C   UNL     1       9.506  10.678  19.180  0.00  0.00    +0.000 A 
ATOM     22  C   UNL     1      10.127  11.236  20.301  0.00  0.00    +0.000 A 
ATOM     23  C   UNL     1      10.629  12.541  20.252  0.00  0.00    +0.000 A 
ATOM     24  C   UNL     1      10.506  13.285  19.082  0.00  0.00    +0.000 A 
ATOM     25 BR   UNL     1      11.201  15.040  19.018  0.00  0.00    +0.000 Br
ATOM     26  C   UNL     1       9.879  12.743  17.964  0.00  0.00    +0.000 A 
ATOM     27  C   UNL     1       9.378  11.440  18.017  0.00  0.00    +0.000 A 
ENDBRANCH  20  21
ENDBRANCH  19  20
ENDBRANCH   3  19
TORSDOF 5
ENDMDL
MODEL 7
REMARK VINA RESULT:      -8.2      5.989      8.258
REMARK  Name = 
REMARK  5 active torsions:
REMARK  status: ('A' for Active; 'I' for Inactive)
REMARK    1  A    between atoms: C_4  and  C_5
REMARK    2  A    between atoms: C_5  and  N_6
REMARK    3  A    between atoms: C_8  and  C_9
REMARK    4  A    between atoms: C_9  and  O_10
REMARK    5  A    between atoms: O_10  and  C_11
REMARK                            x       y       z     vdW  Elec       q    Type
REMARK                         _______ _______ _______ _____ _____    ______ ____
ROOT
ATOM      1  N   UNL     1       1.853   7.295  20.274  0.00  0.00    +0.000 N 
ATOM      2  C   UNL     1       1.324   8.393  20.889  0.00  0.00    +0.000 A 
ATOM      3  C   UNL     1       1.122   9.273  19.843  0.00  0.00    +0.000 A 
ATOM      4  N   UNL     1       1.702   8.763  18.712  0.00  0.00    +0.000 NA
ATOM      5  N   UNL     1       2.207   7.578  19.010  0.00  0.00    +0.000 NA
ENDROOT
BRANCH   1   6
ATOM      6  C   UNL     1       2.035   5.957  20.819  0.00  0.00    +0.000 C 
BRANCH   6  10
ATOM      7  O   UNL     1       0.311   2.193  18.376  0.00  0.00    +0.000 OA
ATOM      8  C   UNL     1       1.239   2.985  18.481  0.00  0.00    +0.000 A 
ATOM      9  C   UNL     1       1.220   4.032  19.517  0.00  0.00    +0.000 A 
ATOM     10  C   UNL     1       2.232   4.870  19.773  0.00  0.00    +0.000 A 
ATOM     11  C   UNL     1       3.471   4.683  18.983  0.00  0.00    +0.000 A 
ATOM     12  C   UNL     1       4.686   5.325  19.225  0.00  0.00    +0.000 A 
ATOM     13  C   UNL     1       5.761   5.207  18.328  0.00  0.00    +0.000 A 
ATOM     14  C   UNL     1       5.656   4.394  17.203  0.00  0.00    +0.000 A 
ATOM     15 CL   UNL     1       6.962   4.287  16.090  0.00  0.00    +0.000 Cl
ATOM     16  C   UNL     1       4.497   3.662  16.991  0.00  0.00    +0.000 A 
ATOM     17  C   UNL     1       3.429   3.812  17.885  0.00  0.00    +0.000 A 
ATOM     18  O   UNL     1       2.319   2.990  17.623  0.00  0.00    +0.000 OA
ENDBRANCH   6  10
ENDBRANCH   1   6
BRANCH   3  19
ATOM     19  C   UNL     1       0.327  10.524  19.801  0.00  0.00    +0.000 C 
BRANCH  19  20
ATOM     20  O   UNL     1      -0.238  10.762  18.514  0.00  0.00    +0.000 OA
BRANCH  20  21
ATOM     21  C   UNL     1      -1.594  10.954  18.488  0.00  0.00    +0.000 A 
ATOM     22  C   UNL     1      -2.295  11.946  19.181  0.00  0.00    +0.000 A 
ATOM     23  C   UNL     1      -3.684  12.048  19.052  0.00  0.00    +0.000 A 
ATOM     24  C   UNL     1      -4.369  11.154  18.235  0.00  0.00    +0.000 A 
ATOM     25 BR   UNL     1      -6.244  11.309  18.054  0.00  0.00    +0.000 Br
ATOM     26  C   UNL     1      -3.684  10.156  17.550  0.00  0.00    +0.000 A 
ATOM     27  C   UNL     1      -2.297  10.056  17.680  0.00  0.00    +0.000 A 
ENDBRANCH  20  21
ENDBRANCH  19  20
ENDBRANCH   3  19
TORSDOF 5
ENDMDL
MODEL 8
REMARK VINA RESULT:      -8.1      5.245      7.359
REMARK  Name = 
REMARK  5 active torsions:
REMARK  status: ('A' for Active; 'I' for Inactive)
REMARK    1  A    between atoms: C_4  and  C_5
REMARK    2  A    between atoms: C_5  and  N_6
REMARK    3  A    between atoms: C_8  and  C_9
REMARK    4  A    between atoms: C_9  and  O_10
REMARK    5  A    between atoms: O_10  and  C_11
REMARK                            x       y       z     vdW  Elec       q    Type
REMARK                         _______ _______ _______ _____ _____    ______ ____
ROOT
ATOM      1  N   UNL     1       2.859   4.906  19.169  0.00  0.00    +0.000 N 
ATOM      2  C   UNL     1       2.535   6.150  18.709  0.00  0.00    +0.000 A 
ATOM      3  C   UNL     1       1.988   6.765  19.819  0.00  0.00    +0.000 A 
ATOM      4  N   UNL     1       1.828   5.834  20.811  0.00  0.00    +0.000 NA
ATOM      5  N   UNL     1       2.305   4.682  20.372  0.00  0.00    +0.000 NA
ENDROOT
BRANCH   1   6
ATOM      6  C   UNL     1       3.695   3.899  18.532  0.00  0.00    +0.000 C 
BRANCH   6  10
ATOM      7  O   UNL     1       8.055   5.580  19.658  0.00  0.00    +0.000 OA
ATOM      8  C   UNL     1       7.335   5.178  18.753  0.00  0.00    +0.000 A 
ATOM      9  C   UNL     1       5.952   4.750  19.028  0.00  0.00    +0.000 A 
ATOM     10  C   UNL     1       5.062   4.399  18.091  0.00  0.00    +0.000 A 
ATOM     11  C   UNL     1       5.501   4.503  16.680  0.00  0.00    +0.000 A 
ATOM     12  C   UNL     1       4.672   4.362  15.566  0.00  0.00    +0.000 A 
ATOM     13  C   UNL     1       5.204   4.317  14.267  0.00  0.00    +0.000 A 
ATOM     14  C   UNL     1       6.572   4.474  14.058  0.00  0.00    +0.000 A 
ATOM     15 CL   UNL     1       7.219   4.377  12.468  0.00  0.00    +0.000 Cl
ATOM     16  C   UNL     1       7.407   4.719  15.138  0.00  0.00    +0.000 A 
ATOM     17  C   UNL     1       6.860   4.736  16.426  0.00  0.00    +0.000 A 
ATOM     18  O   UNL     1       7.770   5.047  17.452  0.00  0.00    +0.000 OA
ENDBRANCH   6  10
ENDBRANCH   1   6
BRANCH   3  19
ATOM     19  C   UNL     1       1.695   8.198  20.057  0.00  0.00    +0.000 C 
BRANCH  19  20
ATOM     20  O   UNL     1       1.703   8.529  21.444  0.00  0.00    +0.000 OA
BRANCH  20  21
ATOM     21  C   UNL     1       0.793   9.476  21.833  0.00  0.00    +0.000 A 
ATOM     22  C   UNL     1      -0.165   9.327  22.840  0.00  0.00    +0.000 A 
ATOM     23  C   UNL     1      -1.026  10.384  23.156  0.00  0.00    +0.000 A 
ATOM     24  C   UNL     1      -0.929  11.585  22.461  0.00  0.00    +0.000 A 
ATOM     25 BR   UNL     1      -2.084  13.013  22.904  0.00  0.00    +0.000 Br
ATOM     26  C   UNL     1       0.013  11.741  21.448  0.00  0.00    +0.000 A 
ATOM     27  C   UNL     1       0.871  10.684  21.135  0.00  0.00    +0.000 A 
ENDBRANCH  20  21
ENDBRANCH  19  20
ENDBRANCH   3  19
TORSDOF 5
ENDMDL
MODEL 9
REMARK VINA RESULT:      -8.1      4.611      7.232
REMARK  Name = 
REMARK  5 active torsions:
REMARK  status: ('A' for Active; 'I' for Inactive)
REMARK    1  A    between atoms: C_4  and  C_5
REMARK    2  A    between atoms: C_5  and  N_6
REMARK    3  A    between atoms: C_8  and  C_9
REMARK    4  A    between atoms: C_9  and  O_10
REMARK    5  A    between atoms: O_10  and  C_11
REMARK                            x       y       z     vdW  Elec       q    Type
REMARK                         _______ _______ _______ _____ _____    ______ ____
ROOT
ATOM      1  N   UNL     1       3.920   4.427  19.355  0.00  0.00    +0.000 N 
ATOM      2  C   UNL     1       3.448   5.679  19.628  0.00  0.00    +0.000 A 
ATOM      3  C   UNL     1       2.163   5.442  20.077  0.00  0.00    +0.000 A 
ATOM      4  N   UNL     1       1.856   4.122  19.873  0.00  0.00    +0.000 NA
ATOM      5  N   UNL     1       2.923   3.528  19.366  0.00  0.00    +0.000 NA
ENDROOT
BRANCH   1   6
ATOM      6  C   UNL     1       5.293   4.018  19.094  0.00  0.00    +0.000 C 
BRANCH   6  10
ATOM      7  O   UNL     1       8.089   7.816  18.162  0.00  0.00    +0.000 OA
ATOM      8  C   UNL     1       7.556   6.819  17.692  0.00  0.00    +0.000 A 
ATOM      9  C   UNL     1       6.733   5.937  18.537  0.00  0.00    +0.000 A 
ATOM     10  C   UNL     1       6.030   4.889  18.088  0.00  0.00    +0.000 A 
ATOM     11  C   UNL     1       6.052   4.646  16.627  0.00  0.00    +0.000 A 
ATOM     12  C   UNL     1       5.246   3.730  15.950  0.00  0.00    +0.000 A 
ATOM     13  C   UNL     1       5.448   3.453  14.588  0.00  0.00    +0.000 A 
ATOM     14  C   UNL     1       6.423   4.135  13.865  0.00  0.00    +0.000 A 
ATOM     15 CL   UNL     1       6.691   3.761  12.209  0.00  0.00    +0.000 Cl
ATOM     16  C   UNL     1       7.170   5.126  14.486  0.00  0.00    +0.000 A 
ATOM     17  C   UNL     1       6.969   5.369  15.850  0.00  0.00    +0.000 A 
ATOM     18  O   UNL     1       7.728   6.428  16.381  0.00  0.00    +0.000 OA
ENDBRANCH   6  10
ENDBRANCH   1   6
BRANCH   3  19
ATOM     19  C   UNL     1       1.227   6.347  20.784  0.00  0.00    +0.000 C 
BRANCH  19  20
ATOM     20  O   UNL     1       1.795   7.633  21.023  0.00  0.00    +0.000 OA
BRANCH  20  21
ATOM     21  C   UNL     1       1.192   8.678  20.375  0.00  0.00    +0.000 A 
ATOM     22  C   UNL     1       1.413   9.055  19.047  0.00  0.00    +0.000 A 
ATOM     23  C   UNL     1       0.714  10.134  18.495  0.00  0.00    +0.000 A 
ATOM     24  C   UNL     1      -0.201  10.835  19.274  0.00  0.00    +0.000 A 
ATOM     25 BR   UNL     1      -1.153  12.281  18.516  0.00  0.00    +0.000 Br
ATOM     26  C   UNL     1      -0.421  10.477  20.600  0.00  0.00    +0.000 A 
ATOM     27  C   UNL     1       0.279   9.399  21.149  0.00  0.00    +0.000 A 
ENDBRANCH  20  21
ENDBRANCH  19  20
ENDBRANCH   3  19
TORSDOF 5
ENDMDL
