MODEL 1
REMARK VINA RESULT:      -7.3      0.000      0.000
REMARK  Name = 
REMARK  10 active torsions:
REMARK  status: ('A' for Active; 'I' for Inactive)
REMARK    1  A    between atoms: C_1  and  O_2
REMARK    2  A    between atoms: O_2  and  C_3
REMARK    3  A    between atoms: C_9  and  C_10
REMARK    4  A    between atoms: C_10  and  C_11
REMARK    5  A    between atoms: N_15  and  N_16
REMARK    6  A    between atoms: N_16  and  C_17
REMARK    7  A    between atoms: N_16  and  C_18
REMARK    8  A    between atoms: N_20  and  C_21
REMARK    9  A    between atoms: C_21  and  C_22
REMARK   10  A    between atoms: N_24  and  C_25
REMARK                            x       y       z     vdW  Elec       q    Type
REMARK                         _______ _______ _______ _____ _____    ______ ____
ROOT
ATOM      1  C   UNL     1      -0.828  12.402  20.934  0.00  0.00    +0.000 C 
ATOM      2  C   UNL     1      -1.633  12.867  19.734  0.00  0.00    +0.000 C 
ATOM      3  N   UNL     1      -2.531  11.844  19.281  0.00  0.00    +0.000 N 
ATOM      4  C   UNL     1      -2.164  10.653  18.708  0.00  0.00    +0.000 C 
ATOM      5  N   UNL     1      -2.882  10.178  17.707  0.00  0.00    +0.000 NA
ATOM      6  C   UNL     1      -0.990   9.809  19.321  0.00  0.00    +0.000 C 
ATOM      7  N   UNL     1       0.289  10.463  19.723  0.00  0.00    +0.000 N 
ATOM      8  C   UNL     1       0.369  11.518  20.628  0.00  0.00    +0.000 C 
ATOM      9  O   UNL     1       1.441  11.799  21.165  0.00  0.00    +0.000 OA
ATOM     10  H   UNL     1      -3.401  12.186  18.879  0.00  0.00    +0.000 HD
ENDROOT
BRANCH   5  11
ATOM     11  N   UNL     1      -3.273  11.195  16.848  0.00  0.00    +0.000 N 
ATOM     12  C   UNL     1      -4.670  11.644  16.727  0.00  0.00    +0.000 C 
ATOM     13  C   UNL     1      -2.826  10.846  15.492  0.00  0.00    +0.000 C 
ENDBRANCH   5  11
BRANCH   1  14
ATOM     14  C   UNL     1      -1.725  11.897  22.069  0.00  0.00    +0.000 C 
BRANCH  14  21
ATOM     15  C   UNL     1      -3.765  13.237  23.001  0.00  0.00    +0.000 A 
ATOM     16  C   UNL     1      -4.237  14.165  23.939  0.00  0.00    +0.000 A 
ATOM     17  C   UNL     1      -3.351  14.946  24.679  0.00  0.00    +0.000 A 
ATOM     18  C   UNL     1      -1.982  14.812  24.478  0.00  0.00    +0.000 A 
ATOM     19 CL   UNL     1      -0.892  15.798  25.376  0.00  0.00    +0.000 Cl
ATOM     20  C   UNL     1      -1.491  13.861  23.595  0.00  0.00    +0.000 A 
ATOM     21  C   UNL     1      -2.367  13.034  22.863  0.00  0.00    +0.000 A 
BRANCH  15  23
ATOM     22  C   UNL     1      -6.006  12.754  22.299  0.00  0.00    +0.000 C 
ATOM     23  O   UNL     1      -4.613  12.439  22.282  0.00  0.00    +0.000 OA
ENDBRANCH  15  23
ENDBRANCH  14  21
ENDBRANCH   1  14
BRANCH   7  24
ATOM     24  C   UNL     1       1.596  10.078  19.094  0.00  0.00    +0.000 C 
BRANCH  24  25
ATOM     25  C   UNL     1       2.030   8.813  18.325  0.00  0.00    +0.000 C 
ATOM     26  O   UNL     1       2.127   8.852  17.085  0.00  0.00    +0.000 OA
ATOM     27  N   UNL     1       2.438   7.720  19.063  0.00  0.00    +0.000 N 
ATOM     28  H   UNL     1       2.052   7.688  20.013  0.00  0.00    +0.000 HD
BRANCH  27  29
ATOM     29  C   UNL     1       2.768   6.470  18.470  0.00  0.00    +0.000 A 
ATOM     30  C   UNL     1       4.039   6.197  17.922  0.00  0.00    +0.000 A 
ATOM     31  C   UNL     1       4.292   4.970  17.319  0.00  0.00    +0.000 A 
ATOM     32  C   UNL     1       3.272   4.000  17.223  0.00  0.00    +0.000 A 
ATOM     33  C   UNL     1       2.020   4.282  17.779  0.00  0.00    +0.000 A 
ATOM     34  C   UNL     1       1.789   5.492  18.426  0.00  0.00    +0.000 A 
ENDBRANCH  27  29
ENDBRANCH  24  25
ENDBRANCH   7  24
TORSDOF 7
ENDMDL
MODEL 2
REMARK VINA RESULT:      -6.9      3.313      5.121
REMARK  Name = 
REMARK  10 active torsions:
REMARK  status: ('A' for Active; 'I' for Inactive)
REMARK    1  A    between atoms: C_1  and  O_2
REMARK    2  A    between atoms: O_2  and  C_3
REMARK    3  A    between atoms: C_9  and  C_10
REMARK    4  A    between atoms: C_10  and  C_11
REMARK    5  A    between atoms: N_15  and  N_16
REMARK    6  A    between atoms: N_16  and  C_17
REMARK    7  A    between atoms: N_16  and  C_18
REMARK    8  A    between atoms: N_20  and  C_21
REMARK    9  A    between atoms: C_21  and  C_22
REMARK   10  A    between atoms: N_24  and  C_25
REMARK                            x       y       z     vdW  Elec       q    Type
REMARK                         _______ _______ _______ _____ _____    ______ ____
ROOT
ATOM      1  C   UNL     1      -1.153  11.587  19.429  0.00  0.00    +0.000 C 
ATOM      2  C   UNL     1      -0.483  12.864  19.899  0.00  0.00    +0.000 C 
ATOM      3  N   UNL     1       0.551  13.274  18.993  0.00  0.00    +0.000 N 
ATOM      4  C   UNL     1       1.731  12.610  18.771  0.00  0.00    +0.000 C 
ATOM      5  N   UNL     1       2.836  13.312  18.601  0.00  0.00    +0.000 NA
ATOM      6  C   UNL     1       1.738  11.050  18.591  0.00  0.00    +0.000 C 
ATOM      7  N   UNL     1       0.961  10.173  19.515  0.00  0.00    +0.000 N 
ATOM      8  C   UNL     1      -0.409  10.297  19.730  0.00  0.00    +0.000 C 
ATOM      9  O   UNL     1      -1.047   9.370  20.231  0.00  0.00    +0.000 OA
ATOM     10  H   UNL     1       0.684  14.281  18.922  0.00  0.00    +0.000 HD
ENDROOT
BRANCH   5  11
ATOM     11  N   UNL     1       2.877  14.394  19.468  0.00  0.00    +0.000 N 
ATOM     12  C   UNL     1       3.543  15.663  19.129  0.00  0.00    +0.000 C 
ATOM     13  C   UNL     1       3.461  13.941  20.738  0.00  0.00    +0.000 C 
ENDBRANCH   5  11
BRANCH   1  14
ATOM     14  C   UNL     1      -1.677  11.705  17.994  0.00  0.00    +0.000 C 
BRANCH  14  21
ATOM     15  C   UNL     1      -3.968  11.470  16.761  0.00  0.00    +0.000 A 
ATOM     16  C   UNL     1      -5.356  11.306  16.871  0.00  0.00    +0.000 A 
ATOM     17  C   UNL     1      -6.000  11.485  18.094  0.00  0.00    +0.000 A 
ATOM     18  C   UNL     1      -5.262  11.843  19.216  0.00  0.00    +0.000 A 
ATOM     19 CL   UNL     1      -6.067  12.088  20.719  0.00  0.00    +0.000 Cl
ATOM     20  C   UNL     1      -3.881  11.957  19.142  0.00  0.00    +0.000 A 
ATOM     21  C   UNL     1      -3.203  11.744  17.925  0.00  0.00    +0.000 A 
BRANCH  15  23
ATOM     22  C   UNL     1      -3.035   9.931  15.178  0.00  0.00    +0.000 C 
ATOM     23  O   UNL     1      -3.308  11.274  15.578  0.00  0.00    +0.000 OA
ENDBRANCH  15  23
ENDBRANCH  14  21
ENDBRANCH   1  14
BRANCH   7  24
ATOM     24  C   UNL     1       1.636   9.134  20.362  0.00  0.00    +0.000 C 
BRANCH  24  25
ATOM     25  C   UNL     1       1.901   7.633  20.125  0.00  0.00    +0.000 C 
ATOM     26  O   UNL     1       1.446   6.797  20.926  0.00  0.00    +0.000 OA
ATOM     27  N   UNL     1       2.513   7.266  18.943  0.00  0.00    +0.000 N 
ATOM     28  H   UNL     1       3.086   8.005  18.522  0.00  0.00    +0.000 HD
BRANCH  27  29
ATOM     29  C   UNL     1       2.894   5.926  18.658  0.00  0.00    +0.000 A 
ATOM     30  C   UNL     1       2.088   5.048  17.901  0.00  0.00    +0.000 A 
ATOM     31  C   UNL     1       2.493   3.736  17.687  0.00  0.00    +0.000 A 
ATOM     32  C   UNL     1       3.699   3.263  18.248  0.00  0.00    +0.000 A 
ATOM     33  C   UNL     1       4.491   4.147  18.987  0.00  0.00    +0.000 A 
ATOM     34  C   UNL     1       4.103   5.473  19.155  0.00  0.00    +0.000 A 
ENDBRANCH  27  29
ENDBRANCH  24  25
ENDBRANCH   7  24
TORSDOF 7
ENDMDL
MODEL 3
REMARK VINA RESULT:      -6.9      0.790      1.186
REMARK  Name = 
REMARK  10 active torsions:
REMARK  status: ('A' for Active; 'I' for Inactive)
REMARK    1  A    between atoms: C_1  and  O_2
REMARK    2  A    between atoms: O_2  and  C_3
REMARK    3  A    between atoms: C_9  and  C_10
REMARK    4  A    between atoms: C_10  and  C_11
REMARK    5  A    between atoms: N_15  and  N_16
REMARK    6  A    between atoms: N_16  and  C_17
REMARK    7  A    between atoms: N_16  and  C_18
REMARK    8  A    between atoms: N_20  and  C_21
REMARK    9  A    between atoms: C_21  and  C_22
REMARK   10  A    between atoms: N_24  and  C_25
REMARK                            x       y       z     vdW  Elec       q    Type
REMARK                         _______ _______ _______ _____ _____    ______ ____
ROOT
ATOM      1  C   UNL     1      -0.827  12.339  21.019  0.00  0.00    +0.000 C 
ATOM      2  C   UNL     1      -1.623  12.876  19.844  0.00  0.00    +0.000 C 
ATOM      3  N   UNL     1      -2.610  11.930  19.408  0.00  0.00    +0.000 N 
ATOM      4  C   UNL     1      -2.352  10.719  18.818  0.00  0.00    +0.000 C 
ATOM      5  N   UNL     1      -3.132  10.310  17.834  0.00  0.00    +0.000 NA
ATOM      6  C   UNL     1      -1.234   9.779  19.395  0.00  0.00    +0.000 C 
ATOM      7  N   UNL     1       0.103  10.328  19.767  0.00  0.00    +0.000 N 
ATOM      8  C   UNL     1       0.288  11.366  20.677  0.00  0.00    +0.000 C 
ATOM      9  O   UNL     1       1.393  11.557  21.187  0.00  0.00    +0.000 OA
ATOM     10  H   UNL     1      -3.460  12.342  19.030  0.00  0.00    +0.000 HD
ENDROOT
BRANCH   5  11
ATOM     11  N   UNL     1      -3.463  11.361  16.991  0.00  0.00    +0.000 N 
ATOM     12  C   UNL     1      -4.848  11.822  16.797  0.00  0.00    +0.000 C 
ATOM     13  C   UNL     1      -2.930  11.062  15.655  0.00  0.00    +0.000 C 
ENDBRANCH   5  11
BRANCH   1  14
ATOM     14  C   UNL     1      -1.732  11.897  22.174  0.00  0.00    +0.000 C 
BRANCH  14  21
ATOM     15  C   UNL     1      -3.710  13.254  23.207  0.00  0.00    +0.000 A 
ATOM     16  C   UNL     1      -4.116  14.243  24.114  0.00  0.00    +0.000 A 
ATOM     17  C   UNL     1      -3.186  15.102  24.697  0.00  0.00    +0.000 A 
ATOM     18  C   UNL     1      -1.841  14.987  24.366  0.00  0.00    +0.000 A 
ATOM     19 CL   UNL     1      -0.699  16.069  25.068  0.00  0.00    +0.000 Cl
ATOM     20  C   UNL     1      -1.410  13.981  23.512  0.00  0.00    +0.000 A 
ATOM     21  C   UNL     1      -2.327  13.077  22.940  0.00  0.00    +0.000 A 
BRANCH  15  23
ATOM     22  C   UNL     1      -5.398  12.846  21.555  0.00  0.00    +0.000 C 
ATOM     23  O   UNL     1      -4.600  12.381  22.643  0.00  0.00    +0.000 OA
ENDBRANCH  15  23
ENDBRANCH  14  21
ENDBRANCH   1  14
BRANCH   7  24
ATOM     24  C   UNL     1       1.359   9.847  19.102  0.00  0.00    +0.000 C 
BRANCH  24  25
ATOM     25  C   UNL     1       2.033   8.459  19.067  0.00  0.00    +0.000 C 
ATOM     26  O   UNL     1       2.081   7.775  20.105  0.00  0.00    +0.000 OA
ATOM     27  N   UNL     1       2.429   7.966  17.840  0.00  0.00    +0.000 N 
ATOM     28  H   UNL     1       2.612   8.692  17.137  0.00  0.00    +0.000 HD
BRANCH  27  29
ATOM     29  C   UNL     1       3.145   6.747  17.694  0.00  0.00    +0.000 A 
ATOM     30  C   UNL     1       2.551   5.484  17.905  0.00  0.00    +0.000 A 
ATOM     31  C   UNL     1       3.311   4.325  17.787  0.00  0.00    +0.000 A 
ATOM     32  C   UNL     1       4.688   4.405  17.485  0.00  0.00    +0.000 A 
ATOM     33  C   UNL     1       5.259   5.662  17.269  0.00  0.00    +0.000 A 
ATOM     34  C   UNL     1       4.481   6.814  17.339  0.00  0.00    +0.000 A 
ENDBRANCH  27  29
ENDBRANCH  24  25
ENDBRANCH   7  24
TORSDOF 7
ENDMDL
MODEL 4
REMARK VINA RESULT:      -6.8      3.128      4.850
REMARK  Name = 
REMARK  10 active torsions:
REMARK  status: ('A' for Active; 'I' for Inactive)
REMARK    1  A    between atoms: C_1  and  O_2
REMARK    2  A    between atoms: O_2  and  C_3
REMARK    3  A    between atoms: C_9  and  C_10
REMARK    4  A    between atoms: C_10  and  C_11
REMARK    5  A    between atoms: N_15  and  N_16
REMARK    6  A    between atoms: N_16  and  C_17
REMARK    7  A    between atoms: N_16  and  C_18
REMARK    8  A    between atoms: N_20  and  C_21
REMARK    9  A    between atoms: C_21  and  C_22
REMARK   10  A    between atoms: N_24  and  C_25
REMARK                            x       y       z     vdW  Elec       q    Type
REMARK                         _______ _______ _______ _____ _____    ______ ____
ROOT
ATOM      1  C   UNL     1      -1.259  11.707  20.067  0.00  0.00    +0.000 C 
ATOM      2  C   UNL     1      -0.529  12.909  20.638  0.00  0.00    +0.000 C 
ATOM      3  N   UNL     1       0.419  13.437  19.700  0.00  0.00    +0.000 N 
ATOM      4  C   UNL     1       1.563  12.808  19.278  0.00  0.00    +0.000 C 
ATOM      5  N   UNL     1       2.657  13.526  19.099  0.00  0.00    +0.000 NA
ATOM      6  C   UNL     1       1.532  11.286  18.889  0.00  0.00    +0.000 C 
ATOM      7  N   UNL     1       0.834  10.293  19.756  0.00  0.00    +0.000 N 
ATOM      8  C   UNL     1      -0.507  10.388  20.117  0.00  0.00    +0.000 C 
ATOM      9  O   UNL     1      -1.107   9.402  20.547  0.00  0.00    +0.000 OA
ATOM     10  H   UNL     1       0.560  14.443  19.753  0.00  0.00    +0.000 HD
ENDROOT
BRANCH   5  11
ATOM     11  N   UNL     1       2.796  14.480  20.096  0.00  0.00    +0.000 N 
ATOM     12  C   UNL     1       3.194  15.871  19.820  0.00  0.00    +0.000 C 
ATOM     13  C   UNL     1       3.742  13.964  21.095  0.00  0.00    +0.000 C 
ENDBRANCH   5  11
BRANCH   1  14
ATOM     14  C   UNL     1      -1.915  12.020  18.718  0.00  0.00    +0.000 C 
BRANCH  14  21
ATOM     15  C   UNL     1      -4.160  10.970  17.893  0.00  0.00    +0.000 A 
ATOM     16  C   UNL     1      -5.512  10.712  18.163  0.00  0.00    +0.000 A 
ATOM     17  C   UNL     1      -6.166  11.360  19.209  0.00  0.00    +0.000 A 
ATOM     18  C   UNL     1      -5.477  12.283  19.987  0.00  0.00    +0.000 A 
ATOM     19 CL   UNL     1      -6.298  13.100  21.262  0.00  0.00    +0.000 Cl
ATOM     20  C   UNL     1      -4.125  12.513  19.772  0.00  0.00    +0.000 A 
ATOM     21  C   UNL     1      -3.432  11.841  18.745  0.00  0.00    +0.000 A 
BRANCH  15  23
ATOM     22  C   UNL     1      -3.567  10.872  15.573  0.00  0.00    +0.000 C 
ATOM     23  O   UNL     1      -3.488  10.327  16.890  0.00  0.00    +0.000 OA
ENDBRANCH  15  23
ENDBRANCH  14  21
ENDBRANCH   1  14
BRANCH   7  24
ATOM     24  C   UNL     1       1.573   9.149  20.386  0.00  0.00    +0.000 C 
BRANCH  24  25
ATOM     25  C   UNL     1       1.912   7.737  19.864  0.00  0.00    +0.000 C 
ATOM     26  O   UNL     1       2.288   7.593  18.687  0.00  0.00    +0.000 OA
ATOM     27  N   UNL     1       1.923   6.699  20.775  0.00  0.00    +0.000 N 
ATOM     28  H   UNL     1       1.337   6.861  21.601  0.00  0.00    +0.000 HD
BRANCH  27  29
ATOM     29  C   UNL     1       2.126   5.344  20.395  0.00  0.00    +0.000 A 
ATOM     30  C   UNL     1       3.372   4.856  19.946  0.00  0.00    +0.000 A 
ATOM     31  C   UNL     1       3.502   3.529  19.550  0.00  0.00    +0.000 A 
ATOM     32  C   UNL     1       2.383   2.669  19.566  0.00  0.00    +0.000 A 
ATOM     33  C   UNL     1       1.158   3.165  20.023  0.00  0.00    +0.000 A 
ATOM     34  C   UNL     1       1.048   4.480  20.465  0.00  0.00    +0.000 A 
ENDBRANCH  27  29
ENDBRANCH  24  25
ENDBRANCH   7  24
TORSDOF 7
ENDMDL
MODEL 5
REMARK VINA RESULT:      -6.8      1.565      2.237
REMARK  Name = 
REMARK  10 active torsions:
REMARK  status: ('A' for Active; 'I' for Inactive)
REMARK    1  A    between atoms: C_1  and  O_2
REMARK    2  A    between atoms: O_2  and  C_3
REMARK    3  A    between atoms: C_9  and  C_10
REMARK    4  A    between atoms: C_10  and  C_11
REMARK    5  A    between atoms: N_15  and  N_16
REMARK    6  A    between atoms: N_16  and  C_17
REMARK    7  A    between atoms: N_16  and  C_18
REMARK    8  A    between atoms: N_20  and  C_21
REMARK    9  A    between atoms: C_21  and  C_22
REMARK   10  A    between atoms: N_24  and  C_25
REMARK                            x       y       z     vdW  Elec       q    Type
REMARK                         _______ _______ _______ _____ _____    ______ ____
ROOT
ATOM      1  C   UNL     1      -0.466  12.071  20.608  0.00  0.00    +0.000 C 
ATOM      2  C   UNL     1      -1.428  12.628  19.575  0.00  0.00    +0.000 C 
ATOM      3  N   UNL     1      -2.403  11.648  19.189  0.00  0.00    +0.000 N 
ATOM      4  C   UNL     1      -2.146  10.497  18.487  0.00  0.00    +0.000 C 
ATOM      5  N   UNL     1      -3.013  10.101  17.572  0.00  0.00    +0.000 NA
ATOM      6  C   UNL     1      -0.912   9.600  18.861  0.00  0.00    +0.000 C 
ATOM      7  N   UNL     1       0.424  10.213  19.115  0.00  0.00    +0.000 N 
ATOM      8  C   UNL     1       0.655  11.200  20.070  0.00  0.00    +0.000 C 
ATOM      9  O   UNL     1       1.800  11.432  20.461  0.00  0.00    +0.000 OA
ATOM     10  H   UNL     1      -3.315  12.025  18.943  0.00  0.00    +0.000 HD
ENDROOT
BRANCH   5  11
ATOM     11  N   UNL     1      -3.504  11.180  16.852  0.00  0.00    +0.000 N 
ATOM     12  C   UNL     1      -4.922  11.579  16.881  0.00  0.00    +0.000 C 
ATOM     13  C   UNL     1      -3.153  10.985  15.439  0.00  0.00    +0.000 C 
ENDBRANCH   5  11
BRANCH   1  14
ATOM     14  C   UNL     1      -1.198  11.495  21.825  0.00  0.00    +0.000 C 
BRANCH  14  21
ATOM     15  C   UNL     1      -1.219  13.787  23.078  0.00  0.00    +0.000 A 
ATOM     16  C   UNL     1      -1.984  14.802  23.668  0.00  0.00    +0.000 A 
ATOM     17  C   UNL     1      -3.336  14.606  23.946  0.00  0.00    +0.000 A 
ATOM     18  C   UNL     1      -3.931  13.386  23.648  0.00  0.00    +0.000 A 
ATOM     19 CL   UNL     1      -5.594  13.140  24.019  0.00  0.00    +0.000 Cl
ATOM     20  C   UNL     1      -3.205  12.387  23.014  0.00  0.00    +0.000 A 
ATOM     21  C   UNL     1      -1.847  12.575  22.688  0.00  0.00    +0.000 A 
BRANCH  15  23
ATOM     22  C   UNL     1       0.528  15.264  22.361  0.00  0.00    +0.000 C 
ATOM     23  O   UNL     1       0.103  13.964  22.769  0.00  0.00    +0.000 OA
ENDBRANCH  15  23
ENDBRANCH  14  21
ENDBRANCH   1  14
BRANCH   7  24
ATOM     24  C   UNL     1       1.618   9.862  18.276  0.00  0.00    +0.000 C 
BRANCH  24  25
ATOM     25  C   UNL     1       2.286   8.507  17.961  0.00  0.00    +0.000 C 
ATOM     26  O   UNL     1       2.998   8.397  16.946  0.00  0.00    +0.000 OA
ATOM     27  N   UNL     1       2.185   7.504  18.904  0.00  0.00    +0.000 N 
ATOM     28  H   UNL     1       1.372   7.592  19.523  0.00  0.00    +0.000 HD
BRANCH  27  29
ATOM     29  C   UNL     1       2.676   6.188  18.684  0.00  0.00    +0.000 A 
ATOM     30  C   UNL     1       1.973   5.229  17.924  0.00  0.00    +0.000 A 
ATOM     31  C   UNL     1       2.483   3.944  17.776  0.00  0.00    +0.000 A 
ATOM     32  C   UNL     1       3.691   3.580  18.408  0.00  0.00    +0.000 A 
ATOM     33  C   UNL     1       4.381   4.544  19.149  0.00  0.00    +0.000 A 
ATOM     34  C   UNL     1       3.890   5.843  19.251  0.00  0.00    +0.000 A 
ENDBRANCH  27  29
ENDBRANCH  24  25
ENDBRANCH   7  24
TORSDOF 7
ENDMDL
MODEL 6
REMARK VINA RESULT:      -6.7      2.833      4.769
REMARK  Name = 
REMARK  10 active torsions:
REMARK  status: ('A' for Active; 'I' for Inactive)
REMARK    1  A    between atoms: C_1  and  O_2
REMARK    2  A    between atoms: O_2  and  C_3
REMARK    3  A    between atoms: C_9  and  C_10
REMARK    4  A    between atoms: C_10  and  C_11
REMARK    5  A    between atoms: N_15  and  N_16
REMARK    6  A    between atoms: N_16  and  C_17
REMARK    7  A    between atoms: N_16  and  C_18
REMARK    8  A    between atoms: N_20  and  C_21
REMARK    9  A    between atoms: C_21  and  C_22
REMARK   10  A    between atoms: N_24  and  C_25
REMARK                            x       y       z     vdW  Elec       q    Type
REMARK                         _______ _______ _______ _____ _____    ______ ____
ROOT
ATOM      1  C   UNL     1      -1.224  11.945  20.321  0.00  0.00    +0.000 C 
ATOM      2  C   UNL     1      -0.450  12.919  21.188  0.00  0.00    +0.000 C 
ATOM      3  N   UNL     1       0.475  13.690  20.408  0.00  0.00    +0.000 N 
ATOM      4  C   UNL     1       1.590  13.201  19.775  0.00  0.00    +0.000 C 
ATOM      5  N   UNL     1       2.692  13.929  19.768  0.00  0.00    +0.000 NA
ATOM      6  C   UNL     1       1.513  11.860  18.960  0.00  0.00    +0.000 C 
ATOM      7  N   UNL     1       0.826  10.664  19.527  0.00  0.00    +0.000 N 
ATOM      8  C   UNL     1      -0.500  10.661  19.953  0.00  0.00    +0.000 C 
ATOM      9  O   UNL     1      -1.105   9.599  20.101  0.00  0.00    +0.000 OA
ATOM     10  H   UNL     1       0.639  14.635  20.747  0.00  0.00    +0.000 HD
ENDROOT
BRANCH   5  11
ATOM     11  N   UNL     1       2.886  14.548  20.994  0.00  0.00    +0.000 N 
ATOM     12  C   UNL     1       2.954  16.011  21.147  0.00  0.00    +0.000 C 
ATOM     13  C   UNL     1       4.115  14.007  21.590  0.00  0.00    +0.000 C 
ENDBRANCH   5  11
BRANCH   1  14
ATOM     14  C   UNL     1      -1.922  12.645  19.150  0.00  0.00    +0.000 C 
BRANCH  14  21
ATOM     15  C   UNL     1      -3.935  11.482  17.958  0.00  0.00    +0.000 A 
ATOM     16  C   UNL     1      -5.241  10.986  18.062  0.00  0.00    +0.000 A 
ATOM     17  C   UNL     1      -6.039  11.304  19.160  0.00  0.00    +0.000 A 
ATOM     18  C   UNL     1      -5.540  12.134  20.157  0.00  0.00    +0.000 A 
ATOM     19 CL   UNL     1      -6.540  12.546  21.498  0.00  0.00    +0.000 Cl
ATOM     20  C   UNL     1      -4.231  12.592  20.101  0.00  0.00    +0.000 A 
ATOM     21  C   UNL     1      -3.393  12.252  19.020  0.00  0.00    +0.000 A 
BRANCH  15  23
ATOM     22  C   UNL     1      -2.791   9.788  16.705  0.00  0.00    +0.000 C 
ATOM     23  O   UNL     1      -3.122  11.162  16.904  0.00  0.00    +0.000 OA
ENDBRANCH  15  23
ENDBRANCH  14  21
ENDBRANCH   1  14
BRANCH   7  24
ATOM     24  C   UNL     1       1.562   9.377  19.765  0.00  0.00    +0.000 C 
BRANCH  24  25
ATOM     25  C   UNL     1       2.021   8.266  18.798  0.00  0.00    +0.000 C 
ATOM     26  O   UNL     1       2.010   8.477  17.572  0.00  0.00    +0.000 OA
ATOM     27  N   UNL     1       2.568   7.122  19.345  0.00  0.00    +0.000 N 
ATOM     28  H   UNL     1       2.266   6.933  20.307  0.00  0.00    +0.000 HD
BRANCH  27  29
ATOM     29  C   UNL     1       2.936   5.994  18.562  0.00  0.00    +0.000 A 
ATOM     30  C   UNL     1       4.193   5.881  17.930  0.00  0.00    +0.000 A 
ATOM     31  C   UNL     1       4.484   4.772  17.143  0.00  0.00    +0.000 A 
ATOM     32  C   UNL     1       3.514   3.766  16.946  0.00  0.00    +0.000 A 
ATOM     33  C   UNL     1       2.277   3.888  17.586  0.00  0.00    +0.000 A 
ATOM     34  C   UNL     1       2.012   4.976  18.413  0.00  0.00    +0.000 A 
ENDBRANCH  27  29
ENDBRANCH  24  25
ENDBRANCH   7  24
TORSDOF 7
ENDMDL
MODEL 7
REMARK VINA RESULT:      -6.7      3.285      5.267
REMARK  Name = 
REMARK  10 active torsions:
REMARK  status: ('A' for Active; 'I' for Inactive)
REMARK    1  A    between atoms: C_1  and  O_2
REMARK    2  A    between atoms: O_2  and  C_3
REMARK    3  A    between atoms: C_9  and  C_10
REMARK    4  A    between atoms: C_10  and  C_11
REMARK    5  A    between atoms: N_15  and  N_16
REMARK    6  A    between atoms: N_16  and  C_17
REMARK    7  A    between atoms: N_16  and  C_18
REMARK    8  A    between atoms: N_20  and  C_21
REMARK    9  A    between atoms: C_21  and  C_22
REMARK   10  A    between atoms: N_24  and  C_25
REMARK                            x       y       z     vdW  Elec       q    Type
REMARK                         _______ _______ _______ _____ _____    ______ ____
ROOT
ATOM      1  C   UNL     1      -1.013  12.024  20.082  0.00  0.00    +0.000 C 
ATOM      2  C   UNL     1      -0.274  12.965  21.017  0.00  0.00    +0.000 C 
ATOM      3  N   UNL     1       0.728  13.714  20.316  0.00  0.00    +0.000 N 
ATOM      4  C   UNL     1       1.871  13.197  19.760  0.00  0.00    +0.000 C 
ATOM      5  N   UNL     1       2.992  13.890  19.844  0.00  0.00    +0.000 NA
ATOM      6  C   UNL     1       1.814  11.868  18.925  0.00  0.00    +0.000 C 
ATOM      7  N   UNL     1       1.050  10.688  19.424  0.00  0.00    +0.000 N 
ATOM      8  C   UNL     1      -0.302  10.722  19.753  0.00  0.00    +0.000 C 
ATOM      9  O   UNL     1      -0.949   9.678  19.842  0.00  0.00    +0.000 OA
ATOM     10  H   UNL     1       0.895  14.650  20.678  0.00  0.00    +0.000 HD
ENDROOT
BRANCH   5  11
ATOM     11  N   UNL     1       3.114  14.490  21.088  0.00  0.00    +0.000 N 
ATOM     12  C   UNL     1       3.157  15.951  21.269  0.00  0.00    +0.000 C 
ATOM     13  C   UNL     1       4.317  13.953  21.739  0.00  0.00    +0.000 C 
ENDBRANCH   5  11
BRANCH   1  14
ATOM     14  C   UNL     1      -1.601  12.758  18.872  0.00  0.00    +0.000 C 
BRANCH  14  21
ATOM     15  C   UNL     1      -4.031  11.832  18.624  0.00  0.00    +0.000 A 
ATOM     16  C   UNL     1      -4.997  11.267  17.781  0.00  0.00    +0.000 A 
ATOM     17  C   UNL     1      -4.645  10.755  16.533  0.00  0.00    +0.000 A 
ATOM     18  C   UNL     1      -3.317  10.792  16.124  0.00  0.00    +0.000 A 
ATOM     19 CL   UNL     1      -2.883  10.133  14.593  0.00  0.00    +0.000 Cl
ATOM     20  C   UNL     1      -2.353  11.395  16.919  0.00  0.00    +0.000 A 
ATOM     21  C   UNL     1      -2.692  11.953  18.168  0.00  0.00    +0.000 A 
BRANCH  15  23
ATOM     22  C   UNL     1      -5.676  12.877  20.018  0.00  0.00    +0.000 C 
ATOM     23  O   UNL     1      -4.355  12.366  19.841  0.00  0.00    +0.000 OA
ENDBRANCH  15  23
ENDBRANCH  14  21
ENDBRANCH   1  14
BRANCH   7  24
ATOM     24  C   UNL     1       1.728   9.377  19.699  0.00  0.00    +0.000 C 
BRANCH  24  25
ATOM     25  C   UNL     1       2.140   8.221  18.764  0.00  0.00    +0.000 C 
ATOM     26  O   UNL     1       2.202   8.418  17.537  0.00  0.00    +0.000 OA
ATOM     27  N   UNL     1       2.570   7.045  19.345  0.00  0.00    +0.000 N 
ATOM     28  H   UNL     1       2.211   6.891  20.294  0.00  0.00    +0.000 HD
BRANCH  27  29
ATOM     29  C   UNL     1       2.883   5.882  18.589  0.00  0.00    +0.000 A 
ATOM     30  C   UNL     1       4.157   5.660  18.022  0.00  0.00    +0.000 A 
ATOM     31  C   UNL     1       4.394   4.523  17.258  0.00  0.00    +0.000 A 
ATOM     32  C   UNL     1       3.356   3.597  17.019  0.00  0.00    +0.000 A 
ATOM     33  C   UNL     1       2.103   3.826  17.595  0.00  0.00    +0.000 A 
ATOM     34  C   UNL     1       1.887   4.941  18.400  0.00  0.00    +0.000 A 
ENDBRANCH  27  29
ENDBRANCH  24  25
ENDBRANCH   7  24
TORSDOF 7
ENDMDL
MODEL 8
REMARK VINA RESULT:      -6.6      3.543      4.663
REMARK  Name = 
REMARK  10 active torsions:
REMARK  status: ('A' for Active; 'I' for Inactive)
REMARK    1  A    between atoms: C_1  and  O_2
REMARK    2  A    between atoms: O_2  and  C_3
REMARK    3  A    between atoms: C_9  and  C_10
REMARK    4  A    between atoms: C_10  and  C_11
REMARK    5  A    between atoms: N_15  and  N_16
REMARK    6  A    between atoms: N_16  and  C_17
REMARK    7  A    between atoms: N_16  and  C_18
REMARK    8  A    between atoms: N_20  and  C_21
REMARK    9  A    between atoms: C_21  and  C_22
REMARK   10  A    between atoms: N_24  and  C_25
REMARK                            x       y       z     vdW  Elec       q    Type
REMARK                         _______ _______ _______ _____ _____    ______ ____
ROOT
ATOM      1  C   UNL     1       0.417  13.205  19.578  0.00  0.00    +0.000 C 
ATOM      2  C   UNL     1      -0.384  12.741  18.375  0.00  0.00    +0.000 C 
ATOM      3  N   UNL     1      -1.791  12.928  18.584  0.00  0.00    +0.000 N 
ATOM      4  C   UNL     1      -2.562  12.249  19.494  0.00  0.00    +0.000 C 
ATOM      5  N   UNL     1      -3.787  11.891  19.152  0.00  0.00    +0.000 NA
ATOM      6  C   UNL     1      -2.043  12.023  20.958  0.00  0.00    +0.000 C 
ATOM      7  N   UNL     1      -0.645  11.565  21.208  0.00  0.00    +0.000 N 
ATOM      8  C   UNL     1       0.484  12.235  20.745  0.00  0.00    +0.000 C 
ATOM      9  O   UNL     1       1.589  12.009  21.240  0.00  0.00    +0.000 OA
ATOM     10  H   UNL     1      -2.325  13.136  17.743  0.00  0.00    +0.000 HD
ENDROOT
BRANCH   5  11
ATOM     11  N   UNL     1      -3.827  11.446  17.839  0.00  0.00    +0.000 N 
ATOM     12  C   UNL     1      -4.987  11.664  16.958  0.00  0.00    +0.000 C 
ATOM     13  C   UNL     1      -3.566  10.000  17.837  0.00  0.00    +0.000 C 
ENDBRANCH   5  11
BRANCH   1  14
ATOM     14  C   UNL     1       0.091  14.652  19.964  0.00  0.00    +0.000 C 
BRANCH  14  21
ATOM     15  C   UNL     1       0.028  16.783  18.455  0.00  0.00    +0.000 A 
ATOM     16  C   UNL     1       0.756  17.776  17.784  0.00  0.00    +0.000 A 
ATOM     17  C   UNL     1       2.130  17.644  17.589  0.00  0.00    +0.000 A 
ATOM     18  C   UNL     1       2.786  16.510  18.053  0.00  0.00    +0.000 A 
ATOM     19 CL   UNL     1       4.479  16.340  17.786  0.00  0.00    +0.000 Cl
ATOM     20  C   UNL     1       2.095  15.541  18.767  0.00  0.00    +0.000 A 
ATOM     21  C   UNL     1       0.713  15.670  19.010  0.00  0.00    +0.000 A 
BRANCH  15  23
ATOM     22  C   UNL     1      -1.767  17.993  19.483  0.00  0.00    +0.000 C 
ATOM     23  O   UNL     1      -1.316  16.901  18.683  0.00  0.00    +0.000 OA
ENDBRANCH  15  23
ENDBRANCH  14  21
ENDBRANCH   1  14
BRANCH   7  24
ATOM     24  C   UNL     1      -0.360  10.271  21.913  0.00  0.00    +0.000 C 
BRANCH  24  25
ATOM     25  C   UNL     1       0.062   8.886  21.381  0.00  0.00    +0.000 C 
ATOM     26  O   UNL     1      -0.672   7.902  21.583  0.00  0.00    +0.000 OA
ATOM     27  N   UNL     1       1.176   8.820  20.568  0.00  0.00    +0.000 N 
ATOM     28  H   UNL     1       1.842   9.589  20.707  0.00  0.00    +0.000 HD
BRANCH  27  29
ATOM     29  C   UNL     1       1.716   7.591  20.098  0.00  0.00    +0.000 A 
ATOM     30  C   UNL     1       1.675   6.401  20.856  0.00  0.00    +0.000 A 
ATOM     31  C   UNL     1       2.255   5.238  20.362  0.00  0.00    +0.000 A 
ATOM     32  C   UNL     1       2.913   5.245  19.114  0.00  0.00    +0.000 A 
ATOM     33  C   UNL     1       2.936   6.429  18.371  0.00  0.00    +0.000 A 
ATOM     34  C   UNL     1       2.310   7.577  18.849  0.00  0.00    +0.000 A 
ENDBRANCH  27  29
ENDBRANCH  24  25
ENDBRANCH   7  24
TORSDOF 7
ENDMDL
MODEL 9
REMARK VINA RESULT:      -6.6      2.329      3.578
REMARK  Name = 
REMARK  10 active torsions:
REMARK  status: ('A' for Active; 'I' for Inactive)
REMARK    1  A    between atoms: C_1  and  O_2
REMARK    2  A    between atoms: O_2  and  C_3
REMARK    3  A    between atoms: C_9  and  C_10
REMARK    4  A    between atoms: C_10  and  C_11
REMARK    5  A    between atoms: N_15  and  N_16
REMARK    6  A    between atoms: N_16  and  C_17
REMARK    7  A    between atoms: N_16  and  C_18
REMARK    8  A    between atoms: N_20  and  C_21
REMARK    9  A    between atoms: C_21  and  C_22
REMARK   10  A    between atoms: N_24  and  C_25
REMARK                            x       y       z     vdW  Elec       q    Type
REMARK                         _______ _______ _______ _____ _____    ______ ____
ROOT
ATOM      1  C   UNL     1      -1.004  11.868  20.833  0.00  0.00    +0.000 C 
ATOM      2  C   UNL     1      -0.072  13.062  20.926  0.00  0.00    +0.000 C 
ATOM      3  N   UNL     1       0.288  13.544  19.624  0.00  0.00    +0.000 N 
ATOM      4  C   UNL     1       1.061  12.876  18.708  0.00  0.00    +0.000 C 
ATOM      5  N   UNL     1       1.929  13.560  17.984  0.00  0.00    +0.000 NA
ATOM      6  C   UNL     1       0.821  11.348  18.435  0.00  0.00    +0.000 C 
ATOM      7  N   UNL     1       0.637  10.393  19.565  0.00  0.00    +0.000 N 
ATOM      8  C   UNL     1      -0.345  10.531  20.544  0.00  0.00    +0.000 C 
ATOM      9  O   UNL     1      -0.662   9.571  21.247  0.00  0.00    +0.000 OA
ATOM     10  H   UNL     1       0.449  14.548  19.568  0.00  0.00    +0.000 HD
ENDROOT
BRANCH   5  11
ATOM     11  N   UNL     1       2.558  14.531  18.748  0.00  0.00    +0.000 N 
ATOM     12  C   UNL     1       2.336  15.973  18.547  0.00  0.00    +0.000 C 
ATOM     13  C   UNL     1       4.009  14.315  18.659  0.00  0.00    +0.000 C 
ENDBRANCH   5  11
BRANCH   1  14
ATOM     14  C   UNL     1      -2.243  12.170  19.981  0.00  0.00    +0.000 C 
BRANCH  14  21
ATOM     15  C   UNL     1      -4.783  12.674  20.322  0.00  0.00    +0.000 A 
ATOM     16  C   UNL     1      -5.855  12.777  21.218  0.00  0.00    +0.000 A 
ATOM     17  C   UNL     1      -5.634  12.820  22.594  0.00  0.00    +0.000 A 
ATOM     18  C   UNL     1      -4.334  12.775  23.084  0.00  0.00    +0.000 A 
ATOM     19 CL   UNL     1      -4.064  12.857  24.783  0.00  0.00    +0.000 Cl
ATOM     20  C   UNL     1      -3.261  12.618  22.217  0.00  0.00    +0.000 A 
ATOM     21  C   UNL     1      -3.463  12.533  20.825  0.00  0.00    +0.000 A 
BRANCH  15  23
ATOM     22  C   UNL     1      -5.654  11.458  18.448  0.00  0.00    +0.000 C 
ATOM     23  O   UNL     1      -4.976  12.601  18.969  0.00  0.00    +0.000 OA
ENDBRANCH  15  23
ENDBRANCH  14  21
ENDBRANCH   1  14
BRANCH   7  24
ATOM     24  C   UNL     1       1.576   9.242  19.780  0.00  0.00    +0.000 C 
BRANCH  24  25
ATOM     25  C   UNL     1       2.063   8.127  18.832  0.00  0.00    +0.000 C 
ATOM     26  O   UNL     1       2.199   8.370  17.619  0.00  0.00    +0.000 OA
ATOM     27  N   UNL     1       2.471   6.935  19.395  0.00  0.00    +0.000 N 
ATOM     28  H   UNL     1       2.055   6.742  20.314  0.00  0.00    +0.000 HD
BRANCH  27  29
ATOM     29  C   UNL     1       2.847   5.804  18.619  0.00  0.00    +0.000 A 
ATOM     30  C   UNL     1       1.914   4.852  18.156  0.00  0.00    +0.000 A 
ATOM     31  C   UNL     1       2.344   3.744  17.435  0.00  0.00    +0.000 A 
ATOM     32  C   UNL     1       3.719   3.548  17.185  0.00  0.00    +0.000 A 
ATOM     33  C   UNL     1       4.630   4.505  17.642  0.00  0.00    +0.000 A 
ATOM     34  C   UNL     1       4.187   5.637  18.320  0.00  0.00    +0.000 A 
ENDBRANCH  27  29
ENDBRANCH  24  25
ENDBRANCH   7  24
TORSDOF 7
ENDMDL
