MODEL 1
REMARK VINA RESULT:      -7.5      0.000      0.000
REMARK  Name = 
REMARK  8 active torsions:
REMARK  status: ('A' for Active; 'I' for Inactive)
REMARK    1  A    between atoms: C_1  and  C_2
REMARK    2  A    between atoms: C_2  and  N_3
REMARK    3  A    between atoms: C_4  and  C_6
REMARK    4  A    between atoms: C_8  and  N_9
REMARK    5  A    between atoms: N_14  and  O_15
REMARK    6  A    between atoms: O_15  and  C_16
REMARK    7  A    between atoms: C_22  and  O_23
REMARK    8  A    between atoms: C_24  and  O_25
REMARK                            x       y       z     vdW  Elec       q    Type
REMARK                         _______ _______ _______ _____ _____    ______ ____
ROOT
ATOM      1  C   UNL     1       4.238   4.088  19.013  0.00  0.00    +0.000 C 
ATOM      2  O   UNL     1       4.223   5.493  19.315  0.00  0.00    +0.000 OA
ATOM      3  C   UNL     1       2.911   5.861  19.787  0.00  0.00    +0.000 C 
ATOM      4  C   UNL     1       1.980   4.693  19.458  0.00  0.00    +0.000 C 
ATOM      5  C   UNL     1       2.920   3.502  19.510  0.00  0.00    +0.000 C 
ENDROOT
BRANCH   3   6
ATOM      6  N   UNL     1       2.460   7.116  19.199  0.00  0.00    +0.000 N 
ATOM      7  C   UNL     1       2.662   7.444  17.877  0.00  0.00    +0.000 A 
ATOM      8  N   UNL     1       2.231   8.653  17.592  0.00  0.00    +0.000 NA
ATOM      9  C   UNL     1       1.673   9.110  18.766  0.00  0.00    +0.000 A 
ATOM     10  C   UNL     1       1.032  10.320  19.087  0.00  0.00    +0.000 A 
ATOM     11  N   UNL     1       0.922  11.368  18.151  0.00  0.00    +0.000 N 
ATOM     12  N   UNL     1       0.508  10.446  20.335  0.00  0.00    +0.000 NA
ATOM     13  C   UNL     1       0.638   9.427  21.205  0.00  0.00    +0.000 A 
ATOM     14  I   UNL     1      -0.354   9.636  23.045  0.00  0.00    +0.000 I 
ATOM     15  N   UNL     1       1.311   8.269  21.025  0.00  0.00    +0.000 NA
ATOM     16  C   UNL     1       1.783   8.162  19.771  0.00  0.00    +0.000 A 
ATOM     17  H   UNL     1       1.059  11.009  17.206  0.00  0.00    +0.000 HD
BRANCH  11  18
ATOM     18  O   UNL     1      -0.166  12.239  18.267  0.00  0.00    +0.000 OA
ATOM     19  C   UNL     1       0.360  13.540  18.523  0.00  0.00    +0.000 C 
ENDBRANCH  11  18
ENDBRANCH   3   6
BRANCH   1  21
ATOM     20  N   UNL     1       5.666   4.026  17.025  0.00  0.00    +0.000 N 
ATOM     21  C   UNL     1       4.402   3.785  17.522  0.00  0.00    +0.000 C 
ATOM     22  O   UNL     1       3.452   3.431  16.825  0.00  0.00    +0.000 OA
ATOM     23  H   UNL     1       6.418   3.918  17.709  0.00  0.00    +0.000 HD
BRANCH  20  25
ATOM     24  C   UNL     1       5.926   4.929  14.761  0.00  0.00    +0.000 C 
ATOM     25  C   UNL     1       5.976   3.704  15.648  0.00  0.00    +0.000 C 
ENDBRANCH  20  25
ENDBRANCH   1  21
BRANCH   4  26
ATOM     26  O   UNL     1       0.917   4.562  20.403  0.00  0.00    +0.000 OA
ATOM     27  H   UNL     1       0.988   3.651  20.765  0.00  0.00    +0.000 HD
ENDBRANCH   4  26
BRANCH   5  28
ATOM     28  O   UNL     1       2.978   3.059  20.882  0.00  0.00    +0.000 OA
ATOM     29  H   UNL     1       2.866   3.823  21.477  0.00  0.00    +0.000 HD
ENDBRANCH   5  28
TORSDOF 6
ENDMDL
MODEL 2
REMARK VINA RESULT:      -7.4      1.711      1.778
REMARK  Name = 
REMARK  8 active torsions:
REMARK  status: ('A' for Active; 'I' for Inactive)
REMARK    1  A    between atoms: C_1  and  C_2
REMARK    2  A    between atoms: C_2  and  N_3
REMARK    3  A    between atoms: C_4  and  C_6
REMARK    4  A    between atoms: C_8  and  N_9
REMARK    5  A    between atoms: N_14  and  O_15
REMARK    6  A    between atoms: O_15  and  C_16
REMARK    7  A    between atoms: C_22  and  O_23
REMARK    8  A    between atoms: C_24  and  O_25
REMARK                            x       y       z     vdW  Elec       q    Type
REMARK                         _______ _______ _______ _____ _____    ______ ____
ROOT
ATOM      1  C   UNL     1       4.359   4.434  19.406  0.00  0.00    +0.000 C 
ATOM      2  O   UNL     1       3.683   5.619  19.860  0.00  0.00    +0.000 OA
ATOM      3  C   UNL     1       2.460   5.780  19.116  0.00  0.00    +0.000 C 
ATOM      4  C   UNL     1       2.539   4.825  17.924  0.00  0.00    +0.000 C 
ATOM      5  C   UNL     1       3.409   3.703  18.463  0.00  0.00    +0.000 C 
ENDROOT
BRANCH   3   6
ATOM      6  N   UNL     1       2.255   7.164  18.709  0.00  0.00    +0.000 N 
ATOM      7  C   UNL     1       2.565   7.633  17.452  0.00  0.00    +0.000 A 
ATOM      8  N   UNL     1       2.359   8.927  17.338  0.00  0.00    +0.000 NA
ATOM      9  C   UNL     1       1.839   9.306  18.556  0.00  0.00    +0.000 A 
ATOM     10  C   UNL     1       1.401  10.552  19.039  0.00  0.00    +0.000 A 
ATOM     11  N   UNL     1       1.511  11.723  18.263  0.00  0.00    +0.000 N 
ATOM     12  N   UNL     1       0.854  10.592  20.282  0.00  0.00    +0.000 NA
ATOM     13  C   UNL     1       0.772   9.454  20.997  0.00  0.00    +0.000 A 
ATOM     14  I   UNL     1      -0.246   9.574  22.831  0.00  0.00    +0.000 I 
ATOM     15  N   UNL     1       1.243   8.233  20.663  0.00  0.00    +0.000 NA
ATOM     16  C   UNL     1       1.742   8.222  19.415  0.00  0.00    +0.000 A 
ATOM     17  H   UNL     1       1.624  11.482  17.278  0.00  0.00    +0.000 HD
BRANCH  11  18
ATOM     18  O   UNL     1       0.583  12.746  18.486  0.00  0.00    +0.000 OA
ATOM     19  C   UNL     1       1.319  13.910  18.856  0.00  0.00    +0.000 C 
ENDBRANCH  11  18
ENDBRANCH   3   6
BRANCH   1  21
ATOM     20  N   UNL     1       6.511   5.600  19.343  0.00  0.00    +0.000 N 
ATOM     21  C   UNL     1       5.677   4.721  18.684  0.00  0.00    +0.000 C 
ATOM     22  O   UNL     1       5.920   4.257  17.571  0.00  0.00    +0.000 OA
ATOM     23  H   UNL     1       6.415   5.593  20.361  0.00  0.00    +0.000 HD
BRANCH  20  25
ATOM     24  C   UNL     1       7.840   7.205  18.052  0.00  0.00    +0.000 C 
ATOM     25  C   UNL     1       7.823   5.893  18.807  0.00  0.00    +0.000 C 
ENDBRANCH  20  25
ENDBRANCH   1  21
BRANCH   4  26
ATOM     26  O   UNL     1       1.254   4.344  17.526  0.00  0.00    +0.000 OA
ATOM     27  H   UNL     1       1.346   4.073  16.586  0.00  0.00    +0.000 HD
ENDBRANCH   4  26
BRANCH   5  28
ATOM     28  O   UNL     1       2.541   2.772  19.141  0.00  0.00    +0.000 OA
ATOM     29  H   UNL     1       2.048   3.236  19.842  0.00  0.00    +0.000 HD
ENDBRANCH   5  28
TORSDOF 6
ENDMDL
MODEL 3
REMARK VINA RESULT:      -7.4      0.924      1.105
REMARK  Name = 
REMARK  8 active torsions:
REMARK  status: ('A' for Active; 'I' for Inactive)
REMARK    1  A    between atoms: C_1  and  C_2
REMARK    2  A    between atoms: C_2  and  N_3
REMARK    3  A    between atoms: C_4  and  C_6
REMARK    4  A    between atoms: C_8  and  N_9
REMARK    5  A    between atoms: N_14  and  O_15
REMARK    6  A    between atoms: O_15  and  C_16
REMARK    7  A    between atoms: C_22  and  O_23
REMARK    8  A    between atoms: C_24  and  O_25
REMARK                            x       y       z     vdW  Elec       q    Type
REMARK                         _______ _______ _______ _____ _____    ______ ____
ROOT
ATOM      1  C   UNL     1       4.896   4.722  19.026  0.00  0.00    +0.000 C 
ATOM      2  O   UNL     1       4.363   5.949  19.554  0.00  0.00    +0.000 OA
ATOM      3  C   UNL     1       2.936   5.967  19.356  0.00  0.00    +0.000 C 
ATOM      4  C   UNL     1       2.611   4.842  18.373  0.00  0.00    +0.000 C 
ATOM      5  C   UNL     1       3.712   3.835  18.655  0.00  0.00    +0.000 C 
ENDROOT
BRANCH   3   6
ATOM      6  N   UNL     1       2.474   7.268  18.888  0.00  0.00    +0.000 N 
ATOM      7  C   UNL     1       2.643   7.705  17.594  0.00  0.00    +0.000 A 
ATOM      8  N   UNL     1       2.209   8.934  17.422  0.00  0.00    +0.000 NA
ATOM      9  C   UNL     1       1.683   9.292  18.644  0.00  0.00    +0.000 A 
ATOM     10  C   UNL     1       1.055  10.472  19.083  0.00  0.00    +0.000 A 
ATOM     11  N   UNL     1       0.924  11.594  18.241  0.00  0.00    +0.000 N 
ATOM     12  N   UNL     1       0.564  10.493  20.350  0.00  0.00    +0.000 NA
ATOM     13  C   UNL     1       0.714   9.405  21.128  0.00  0.00    +0.000 A 
ATOM     14  I   UNL     1      -0.229   9.460  23.005  0.00  0.00    +0.000 I 
ATOM     15  N   UNL     1       1.377   8.265  20.834  0.00  0.00    +0.000 NA
ATOM     16  C   UNL     1       1.815   8.263  19.564  0.00  0.00    +0.000 A 
ATOM     17  H   UNL     1       1.035  11.316  17.266  0.00  0.00    +0.000 HD
BRANCH  11  18
ATOM     18  O   UNL     1      -0.158  12.454  18.458  0.00  0.00    +0.000 OA
ATOM     19  C   UNL     1       0.373  13.767  18.623  0.00  0.00    +0.000 C 
ENDBRANCH  11  18
ENDBRANCH   3   6
BRANCH   1  21
ATOM     20  N   UNL     1       5.754   3.884  16.892  0.00  0.00    +0.000 N 
ATOM     21  C   UNL     1       5.789   4.922  17.799  0.00  0.00    +0.000 C 
ATOM     22  O   UNL     1       6.529   5.899  17.689  0.00  0.00    +0.000 OA
ATOM     23  H   UNL     1       4.871   3.370  16.870  0.00  0.00    +0.000 HD
BRANCH  20  25
ATOM     24  C   UNL     1       5.600   4.410  14.502  0.00  0.00    +0.000 C 
ATOM     25  C   UNL     1       6.491   3.983  15.650  0.00  0.00    +0.000 C 
ENDBRANCH  20  25
ENDBRANCH   1  21
BRANCH   4  26
ATOM     26  O   UNL     1       1.317   4.279  18.599  0.00  0.00    +0.000 OA
ATOM     27  H   UNL     1       1.167   3.645  17.864  0.00  0.00    +0.000 HD
ENDBRANCH   4  26
BRANCH   5  28
ATOM     28  O   UNL     1       3.264   3.001  19.744  0.00  0.00    +0.000 OA
ATOM     29  H   UNL     1       3.392   3.471  20.589  0.00  0.00    +0.000 HD
ENDBRANCH   5  28
TORSDOF 6
ENDMDL
MODEL 4
REMARK VINA RESULT:      -6.4      2.981      7.184
REMARK  Name = 
REMARK  8 active torsions:
REMARK  status: ('A' for Active; 'I' for Inactive)
REMARK    1  A    between atoms: C_1  and  C_2
REMARK    2  A    between atoms: C_2  and  N_3
REMARK    3  A    between atoms: C_4  and  C_6
REMARK    4  A    between atoms: C_8  and  N_9
REMARK    5  A    between atoms: N_14  and  O_15
REMARK    6  A    between atoms: O_15  and  C_16
REMARK    7  A    between atoms: C_22  and  O_23
REMARK    8  A    between atoms: C_24  and  O_25
REMARK                            x       y       z     vdW  Elec       q    Type
REMARK                         _______ _______ _______ _____ _____    ______ ____
ROOT
ATOM      1  C   UNL     1      -0.799  10.106  21.277  0.00  0.00    +0.000 C 
ATOM      2  O   UNL     1      -0.491   8.801  20.758  0.00  0.00    +0.000 OA
ATOM      3  C   UNL     1       0.809   8.399  21.233  0.00  0.00    +0.000 C 
ATOM      4  C   UNL     1       1.474   9.647  21.814  0.00  0.00    +0.000 C 
ATOM      5  C   UNL     1       0.282  10.457  22.295  0.00  0.00    +0.000 C 
ENDROOT
BRANCH   3   6
ATOM      6  N   UNL     1       1.602   7.786  20.175  0.00  0.00    +0.000 N 
ATOM      7  C   UNL     1       2.161   8.503  19.141  0.00  0.00    +0.000 A 
ATOM      8  N   UNL     1       2.773   7.730  18.271  0.00  0.00    +0.000 NA
ATOM      9  C   UNL     1       2.656   6.460  18.792  0.00  0.00    +0.000 A 
ATOM     10  C   UNL     1       3.123   5.215  18.333  0.00  0.00    +0.000 A 
ATOM     11  N   UNL     1       3.798   5.088  17.102  0.00  0.00    +0.000 N 
ATOM     12  N   UNL     1       2.912   4.130  19.124  0.00  0.00    +0.000 NA
ATOM     13  C   UNL     1       2.258   4.288  20.290  0.00  0.00    +0.000 A 
ATOM     14  I   UNL     1       2.134   2.595  21.529  0.00  0.00    +0.000 I 
ATOM     15  N   UNL     1       1.694   5.416  20.774  0.00  0.00    +0.000 NA
ATOM     16  C   UNL     1       1.954   6.474  19.987  0.00  0.00    +0.000 A 
ATOM     17  H   UNL     1       4.156   5.996  16.804  0.00  0.00    +0.000 HD
BRANCH  11  18
ATOM     18  O   UNL     1       4.724   4.048  16.967  0.00  0.00    +0.000 OA
ATOM     19  C   UNL     1       6.018   4.603  17.196  0.00  0.00    +0.000 C 
ENDBRANCH  11  18
ENDBRANCH   3   6
BRANCH   1  21
ATOM     20  N   UNL     1      -1.485  10.807  19.034  0.00  0.00    +0.000 N 
ATOM     21  C   UNL     1      -0.861  11.193  20.202  0.00  0.00    +0.000 C 
ATOM     22  O   UNL     1      -0.325  12.289  20.358  0.00  0.00    +0.000 OA
ATOM     23  H   UNL     1      -2.203  10.090  19.154  0.00  0.00    +0.000 HD
BRANCH  20  25
ATOM     24  C   UNL     1      -2.457  11.169  16.812  0.00  0.00    +0.000 C 
ATOM     25  C   UNL     1      -1.682  11.766  17.968  0.00  0.00    +0.000 C 
ENDBRANCH  20  25
ENDBRANCH   1  21
BRANCH   4  26
ATOM     26  O   UNL     1       2.365   9.340  22.888  0.00  0.00    +0.000 OA
ATOM     27  H   UNL     1       1.795   9.091  23.648  0.00  0.00    +0.000 HD
ENDBRANCH   4  26
BRANCH   5  28
ATOM     28  O   UNL     1      -0.030  10.011  23.631  0.00  0.00    +0.000 OA
ATOM     29  H   UNL     1       0.704   9.469  23.974  0.00  0.00    +0.000 HD
ENDBRANCH   5  28
TORSDOF 6
ENDMDL
MODEL 5
REMARK VINA RESULT:      -6.3      2.571      7.084
REMARK  Name = 
REMARK  8 active torsions:
REMARK  status: ('A' for Active; 'I' for Inactive)
REMARK    1  A    between atoms: C_1  and  C_2
REMARK    2  A    between atoms: C_2  and  N_3
REMARK    3  A    between atoms: C_4  and  C_6
REMARK    4  A    between atoms: C_8  and  N_9
REMARK    5  A    between atoms: N_14  and  O_15
REMARK    6  A    between atoms: O_15  and  C_16
REMARK    7  A    between atoms: C_22  and  O_23
REMARK    8  A    between atoms: C_24  and  O_25
REMARK                            x       y       z     vdW  Elec       q    Type
REMARK                         _______ _______ _______ _____ _____    ______ ____
ROOT
ATOM      1  C   UNL     1       0.506  11.223  20.259  0.00  0.00    +0.000 C 
ATOM      2  O   UNL     1       0.536  10.183  19.267  0.00  0.00    +0.000 OA
ATOM      3  C   UNL     1       0.911   8.941  19.897  0.00  0.00    +0.000 C 
ATOM      4  C   UNL     1       1.447   9.293  21.284  0.00  0.00    +0.000 C 
ATOM      5  C   UNL     1       0.676  10.557  21.621  0.00  0.00    +0.000 C 
ENDROOT
BRANCH   3   6
ATOM      6  N   UNL     1       1.877   8.202  19.095  0.00  0.00    +0.000 N 
ATOM      7  C   UNL     1       2.608   8.775  18.079  0.00  0.00    +0.000 A 
ATOM      8  N   UNL     1       3.365   7.900  17.454  0.00  0.00    +0.000 NA
ATOM      9  C   UNL     1       3.160   6.717  18.129  0.00  0.00    +0.000 A 
ATOM     10  C   UNL     1       3.701   5.431  17.948  0.00  0.00    +0.000 A 
ATOM     11  N   UNL     1       4.581   5.145  16.885  0.00  0.00    +0.000 N 
ATOM     12  N   UNL     1       3.356   4.468  18.842  0.00  0.00    +0.000 NA
ATOM     13  C   UNL     1       2.507   4.777  19.840  0.00  0.00    +0.000 A 
ATOM     14  I   UNL     1       2.168   3.280  21.275  0.00  0.00    +0.000 I 
ATOM     15  N   UNL     1       1.865   5.948  20.046  0.00  0.00    +0.000 NA
ATOM     16  C   UNL     1       2.258   6.886  19.168  0.00  0.00    +0.000 A 
ATOM     17  H   UNL     1       4.986   6.009  16.522  0.00  0.00    +0.000 HD
BRANCH  11  18
ATOM     18  O   UNL     1       5.518   4.122  17.068  0.00  0.00    +0.000 OA
ATOM     19  C   UNL     1       6.783   4.743  17.291  0.00  0.00    +0.000 C 
ENDBRANCH  11  18
ENDBRANCH   3   6
BRANCH   1  21
ATOM     20  N   UNL     1       1.961  12.494  18.755  0.00  0.00    +0.000 N 
ATOM     21  C   UNL     1       1.593  12.282  20.068  0.00  0.00    +0.000 C 
ATOM     22  O   UNL     1       2.137  12.832  21.025  0.00  0.00    +0.000 OA
ATOM     23  H   UNL     1       1.221  12.315  18.074  0.00  0.00    +0.000 HD
BRANCH  20  25
ATOM     24  C   UNL     1       2.274  14.894  18.364  0.00  0.00    +0.000 C 
ATOM     25  C   UNL     1       2.922  13.527  18.431  0.00  0.00    +0.000 C 
ENDBRANCH  20  25
ENDBRANCH   1  21
BRANCH   4  26
ATOM     26  O   UNL     1       1.201   8.260  22.241  0.00  0.00    +0.000 OA
ATOM     27  H   UNL     1       0.226   8.145  22.267  0.00  0.00    +0.000 HD
ENDBRANCH   4  26
BRANCH   5  28
ATOM     28  O   UNL     1      -0.575  10.153  22.216  0.00  0.00    +0.000 OA
ATOM     29  H   UNL     1      -1.244  10.845  22.069  0.00  0.00    +0.000 HD
ENDBRANCH   5  28
TORSDOF 6
ENDMDL
MODEL 6
REMARK VINA RESULT:      -6.2      2.701      7.380
REMARK  Name = 
REMARK  8 active torsions:
REMARK  status: ('A' for Active; 'I' for Inactive)
REMARK    1  A    between atoms: C_1  and  C_2
REMARK    2  A    between atoms: C_2  and  N_3
REMARK    3  A    between atoms: C_4  and  C_6
REMARK    4  A    between atoms: C_8  and  N_9
REMARK    5  A    between atoms: N_14  and  O_15
REMARK    6  A    between atoms: O_15  and  C_16
REMARK    7  A    between atoms: C_22  and  O_23
REMARK    8  A    between atoms: C_24  and  O_25
REMARK                            x       y       z     vdW  Elec       q    Type
REMARK                         _______ _______ _______ _____ _____    ______ ____
ROOT
ATOM      1  C   UNL     1      -0.599  10.593  20.777  0.00  0.00    +0.000 C 
ATOM      2  O   UNL     1      -0.385   9.283  20.226  0.00  0.00    +0.000 OA
ATOM      3  C   UNL     1       0.773   8.693  20.849  0.00  0.00    +0.000 C 
ATOM      4  C   UNL     1       1.498   9.817  21.591  0.00  0.00    +0.000 C 
ATOM      5  C   UNL     1       0.360  10.755  21.952  0.00  0.00    +0.000 C 
ENDROOT
BRANCH   3   6
ATOM      6  N   UNL     1       1.627   8.026  19.875  0.00  0.00    +0.000 N 
ATOM      7  C   UNL     1       2.249   8.689  18.841  0.00  0.00    +0.000 A 
ATOM      8  N   UNL     1       2.911   7.872  18.051  0.00  0.00    +0.000 NA
ATOM      9  C   UNL     1       2.760   6.631  18.629  0.00  0.00    +0.000 A 
ATOM     10  C   UNL     1       3.251   5.364  18.265  0.00  0.00    +0.000 A 
ATOM     11  N   UNL     1       3.999   5.174  17.085  0.00  0.00    +0.000 N 
ATOM     12  N   UNL     1       2.991   4.322  19.096  0.00  0.00    +0.000 NA
ATOM     13  C   UNL     1       2.268   4.539  20.211  0.00  0.00    +0.000 A 
ATOM     14  I   UNL     1       2.064   2.913  21.526  0.00  0.00    +0.000 I 
ATOM     15  N   UNL     1       1.678   5.691  20.600  0.00  0.00    +0.000 NA
ATOM     16  C   UNL     1       1.987   6.706  19.777  0.00  0.00    +0.000 A 
ATOM     17  H   UNL     1       4.376   6.065  16.762  0.00  0.00    +0.000 HD
BRANCH  11  18
ATOM     18  O   UNL     1       4.929   4.130  17.060  0.00  0.00    +0.000 OA
ATOM     19  C   UNL     1       6.204   4.693  17.364  0.00  0.00    +0.000 C 
ENDBRANCH  11  18
ENDBRANCH   3   6
BRANCH   1  21
ATOM     20  N   UNL     1      -0.696  12.980  20.240  0.00  0.00    +0.000 N 
ATOM     21  C   UNL     1      -0.370  11.725  19.772  0.00  0.00    +0.000 C 
ATOM     22  O   UNL     1       0.001  11.502  18.620  0.00  0.00    +0.000 OA
ATOM     23  H   UNL     1      -0.597  13.094  21.251  0.00  0.00    +0.000 HD
BRANCH  20  25
ATOM     24  C   UNL     1       0.884  14.785  19.734  0.00  0.00    +0.000 C 
ATOM     25  C   UNL     1      -0.451  14.146  19.417  0.00  0.00    +0.000 C 
ENDBRANCH  20  25
ENDBRANCH   1  21
BRANCH   4  26
ATOM     26  O   UNL     1       2.180   9.349  22.756  0.00  0.00    +0.000 OA
ATOM     27  H   UNL     1       1.716   8.527  23.028  0.00  0.00    +0.000 HD
ENDBRANCH   4  26
BRANCH   5  28
ATOM     28  O   UNL     1      -0.194  10.298  23.204  0.00  0.00    +0.000 OA
ATOM     29  H   UNL     1      -0.100   9.330  23.268  0.00  0.00    +0.000 HD
ENDBRANCH   5  28
TORSDOF 6
ENDMDL
MODEL 7
REMARK VINA RESULT:      -6.1      3.220      4.645
REMARK  Name = 
REMARK  8 active torsions:
REMARK  status: ('A' for Active; 'I' for Inactive)
REMARK    1  A    between atoms: C_1  and  C_2
REMARK    2  A    between atoms: C_2  and  N_3
REMARK    3  A    between atoms: C_4  and  C_6
REMARK    4  A    between atoms: C_8  and  N_9
REMARK    5  A    between atoms: N_14  and  O_15
REMARK    6  A    between atoms: O_15  and  C_16
REMARK    7  A    between atoms: C_22  and  O_23
REMARK    8  A    between atoms: C_24  and  O_25
REMARK                            x       y       z     vdW  Elec       q    Type
REMARK                         _______ _______ _______ _____ _____    ______ ____
ROOT
ATOM      1  C   UNL     1       6.738   4.896  17.297  0.00  0.00    +0.000 C 
ATOM      2  O   UNL     1       5.393   4.830  17.800  0.00  0.00    +0.000 OA
ATOM      3  C   UNL     1       4.541   5.652  16.979  0.00  0.00    +0.000 C 
ATOM      4  C   UNL     1       5.460   6.521  16.119  0.00  0.00    +0.000 C 
ATOM      5  C   UNL     1       6.690   5.644  15.968  0.00  0.00    +0.000 C 
ENDROOT
BRANCH   3   6
ATOM      6  N   UNL     1       3.618   6.442  17.784  0.00  0.00    +0.000 N 
ATOM      7  C   UNL     1       3.287   7.746  17.488  0.00  0.00    +0.000 A 
ATOM      8  N   UNL     1       2.493   8.276  18.391  0.00  0.00    +0.000 NA
ATOM      9  C   UNL     1       2.250   7.255  19.284  0.00  0.00    +0.000 A 
ATOM     10  C   UNL     1       1.461   7.197  20.447  0.00  0.00    +0.000 A 
ATOM     11  N   UNL     1       0.788   8.334  20.938  0.00  0.00    +0.000 N 
ATOM     12  N   UNL     1       1.358   6.001  21.083  0.00  0.00    +0.000 NA
ATOM     13  C   UNL     1       2.021   4.938  20.588  0.00  0.00    +0.000 A 
ATOM     14  I   UNL     1       1.663   3.093  21.528  0.00  0.00    +0.000 I 
ATOM     15  N   UNL     1       2.871   4.911  19.538  0.00  0.00    +0.000 NA
ATOM     16  C   UNL     1       2.920   6.099  18.912  0.00  0.00    +0.000 A 
ATOM     17  H   UNL     1       0.696   9.033  20.201  0.00  0.00    +0.000 HD
BRANCH  11  18
ATOM     18  O   UNL     1      -0.389   8.134  21.669  0.00  0.00    +0.000 OA
ATOM     19  C   UNL     1      -0.456   9.167  22.650  0.00  0.00    +0.000 C 
ENDBRANCH  11  18
ENDBRANCH   3   6
BRANCH   1  21
ATOM     20  N   UNL     1       7.785   6.967  18.076  0.00  0.00    +0.000 N 
ATOM     21  C   UNL     1       7.712   5.600  18.245  0.00  0.00    +0.000 C 
ATOM     22  O   UNL     1       8.418   4.972  19.032  0.00  0.00    +0.000 OA
ATOM     23  H   UNL     1       6.927   7.398  17.725  0.00  0.00    +0.000 HD
BRANCH  20  25
ATOM     24  C   UNL     1       8.661   9.212  18.530  0.00  0.00    +0.000 C 
ATOM     25  C   UNL     1       8.608   7.762  18.963  0.00  0.00    +0.000 C 
ENDBRANCH  20  25
ENDBRANCH   1  21
BRANCH   4  26
ATOM     26  O   UNL     1       4.882   6.834  14.850  0.00  0.00    +0.000 OA
ATOM     27  H   UNL     1       3.909   6.816  14.985  0.00  0.00    +0.000 HD
ENDBRANCH   4  26
BRANCH   5  28
ATOM     28  O   UNL     1       6.465   4.777  14.837  0.00  0.00    +0.000 OA
ATOM     29  H   UNL     1       5.993   5.267  14.140  0.00  0.00    +0.000 HD
ENDBRANCH   5  28
TORSDOF 6
ENDMDL
MODEL 8
REMARK VINA RESULT:      -6.0      2.879      7.238
REMARK  Name = 
REMARK  8 active torsions:
REMARK  status: ('A' for Active; 'I' for Inactive)
REMARK    1  A    between atoms: C_1  and  C_2
REMARK    2  A    between atoms: C_2  and  N_3
REMARK    3  A    between atoms: C_4  and  C_6
REMARK    4  A    between atoms: C_8  and  N_9
REMARK    5  A    between atoms: N_14  and  O_15
REMARK    6  A    between atoms: O_15  and  C_16
REMARK    7  A    between atoms: C_22  and  O_23
REMARK    8  A    between atoms: C_24  and  O_25
REMARK                            x       y       z     vdW  Elec       q    Type
REMARK                         _______ _______ _______ _____ _____    ______ ____
ROOT
ATOM      1  C   UNL     1      -1.501  10.767  19.438  0.00  0.00    +0.000 C 
ATOM      2  O   UNL     1      -0.803   9.516  19.329  0.00  0.00    +0.000 OA
ATOM      3  C   UNL     1       0.513   9.658  19.899  0.00  0.00    +0.000 C 
ATOM      4  C   UNL     1       0.756  11.157  20.081  0.00  0.00    +0.000 C 
ATOM      5  C   UNL     1      -0.648  11.690  20.303  0.00  0.00    +0.000 C 
ENDROOT
BRANCH   3   6
ATOM      6  N   UNL     1       1.530   9.025  19.069  0.00  0.00    +0.000 N 
ATOM      7  C   UNL     1       2.193   9.682  18.058  0.00  0.00    +0.000 A 
ATOM      8  N   UNL     1       3.015   8.891  17.404  0.00  0.00    +0.000 NA
ATOM      9  C   UNL     1       2.925   7.680  18.054  0.00  0.00    +0.000 A 
ATOM     10  C   UNL     1       3.575   6.452  17.838  0.00  0.00    +0.000 A 
ATOM     11  N   UNL     1       4.462   6.267  16.759  0.00  0.00    +0.000 N 
ATOM     12  N   UNL     1       3.328   5.443  18.714  0.00  0.00    +0.000 NA
ATOM     13  C   UNL     1       2.469   5.654  19.729  0.00  0.00    +0.000 A 
ATOM     14  I   UNL     1       2.284   4.103  21.135  0.00  0.00    +0.000 I 
ATOM     15  N   UNL     1       1.730   6.759  19.969  0.00  0.00    +0.000 NA
ATOM     16  C   UNL     1       2.026   7.747  19.108  0.00  0.00    +0.000 A 
ATOM     17  H   UNL     1       4.783   7.171  16.410  0.00  0.00    +0.000 HD
BRANCH  11  18
ATOM     18  O   UNL     1       5.488   5.327  16.907  0.00  0.00    +0.000 OA
ATOM     19  C   UNL     1       6.592   5.999  17.509  0.00  0.00    +0.000 C 
ENDBRANCH  11  18
ENDBRANCH   3   6
BRANCH   1  21
ATOM     20  N   UNL     1      -2.416  10.634  17.170  0.00  0.00    +0.000 N 
ATOM     21  C   UNL     1      -1.771  11.437  18.088  0.00  0.00    +0.000 C 
ATOM     22  O   UNL     1      -1.368  12.572  17.836  0.00  0.00    +0.000 OA
ATOM     23  H   UNL     1      -3.028   9.927  17.582  0.00  0.00    +0.000 HD
BRANCH  20  25
ATOM     24  C   UNL     1      -2.965  10.082  14.846  0.00  0.00    +0.000 C 
ATOM     25  C   UNL     1      -2.802  11.172  15.883  0.00  0.00    +0.000 C 
ENDBRANCH  20  25
ENDBRANCH   1  21
BRANCH   4  26
ATOM     26  O   UNL     1       1.604  11.439  21.196  0.00  0.00    +0.000 OA
ATOM     27  H   UNL     1       1.829  12.393  21.129  0.00  0.00    +0.000 HD
ENDBRANCH   4  26
BRANCH   5  28
ATOM     28  O   UNL     1      -0.936  11.574  21.712  0.00  0.00    +0.000 OA
ATOM     29  H   UNL     1      -0.115  11.374  22.197  0.00  0.00    +0.000 HD
ENDBRANCH   5  28
TORSDOF 6
ENDMDL
MODEL 9
REMARK VINA RESULT:      -6.0      2.489      3.944
REMARK  Name = 
REMARK  8 active torsions:
REMARK  status: ('A' for Active; 'I' for Inactive)
REMARK    1  A    between atoms: C_1  and  C_2
REMARK    2  A    between atoms: C_2  and  N_3
REMARK    3  A    between atoms: C_4  and  C_6
REMARK    4  A    between atoms: C_8  and  N_9
REMARK    5  A    between atoms: N_14  and  O_15
REMARK    6  A    between atoms: O_15  and  C_16
REMARK    7  A    between atoms: C_22  and  O_23
REMARK    8  A    between atoms: C_24  and  O_25
REMARK                            x       y       z     vdW  Elec       q    Type
REMARK                         _______ _______ _______ _____ _____    ______ ____
ROOT
ATOM      1  C   UNL     1       3.071   4.340  17.365  0.00  0.00    +0.000 C 
ATOM      2  O   UNL     1       2.103   5.364  17.646  0.00  0.00    +0.000 OA
ATOM      3  C   UNL     1       2.789   6.566  18.048  0.00  0.00    +0.000 C 
ATOM      4  C   UNL     1       4.237   6.172  18.338  0.00  0.00    +0.000 C 
ATOM      5  C   UNL     1       4.448   4.995  17.401  0.00  0.00    +0.000 C 
ENDROOT
BRANCH   3   6
ATOM      6  N   UNL     1       2.143   7.197  19.192  0.00  0.00    +0.000 N 
ATOM      7  C   UNL     1       1.807   6.513  20.339  0.00  0.00    +0.000 A 
ATOM      8  N   UNL     1       1.173   7.272  21.205  0.00  0.00    +0.000 NA
ATOM      9  C   UNL     1       1.146   8.520  20.620  0.00  0.00    +0.000 A 
ATOM     10  C   UNL     1       0.627   9.749  21.064  0.00  0.00    +0.000 A 
ATOM     11  N   UNL     1      -0.069   9.859  22.285  0.00  0.00    +0.000 N 
ATOM     12  N   UNL     1       0.828  10.840  20.280  0.00  0.00    +0.000 NA
ATOM     13  C   UNL     1       1.492  10.697  19.117  0.00  0.00    +0.000 A 
ATOM     14  I   UNL     1       1.911  12.461  18.056  0.00  0.00    +0.000 I 
ATOM     15  N   UNL     1       1.946   9.552  18.562  0.00  0.00    +0.000 NA
ATOM     16  C   UNL     1       1.764   8.501  19.380  0.00  0.00    +0.000 A 
ATOM     17  H   UNL     1       0.148   9.062  22.884  0.00  0.00    +0.000 HD
BRANCH  11  18
ATOM     18  O   UNL     1      -0.033  11.088  22.952  0.00  0.00    +0.000 OA
ATOM     19  C   UNL     1      -1.374  11.568  23.024  0.00  0.00    +0.000 C 
ENDBRANCH  11  18
ENDBRANCH   3   6
BRANCH   1  21
ATOM     20  N   UNL     1       1.979   3.212  19.244  0.00  0.00    +0.000 N 
ATOM     21  C   UNL     1       3.034   3.174  18.355  0.00  0.00    +0.000 C 
ATOM     22  O   UNL     1       3.924   2.325  18.390  0.00  0.00    +0.000 OA
ATOM     23  H   UNL     1       1.142   3.678  18.888  0.00  0.00    +0.000 HD
BRANCH  20  25
ATOM     24  C   UNL     1       1.626   2.630  21.599  0.00  0.00    +0.000 C 
ATOM     25  C   UNL     1       1.783   2.126  20.180  0.00  0.00    +0.000 C 
ENDBRANCH  20  25
ENDBRANCH   1  21
BRANCH   4  26
ATOM     26  O   UNL     1       5.155   7.232  18.061  0.00  0.00    +0.000 OA
ATOM     27  H   UNL     1       4.803   7.693  17.268  0.00  0.00    +0.000 HD
ENDBRANCH   4  26
BRANCH   5  28
ATOM     28  O   UNL     1       4.857   5.529  16.125  0.00  0.00    +0.000 OA
ATOM     29  H   UNL     1       4.181   6.150  15.799  0.00  0.00    +0.000 HD
ENDBRANCH   5  28
TORSDOF 6
ENDMDL
