MODEL 1
REMARK VINA RESULT:      -6.0      0.000      0.000
REMARK  Name = 
REMARK  16 active torsions:
REMARK  status: ('A' for Active; 'I' for Inactive)
REMARK    1  A    between atoms: C_2  and  C_4
REMARK    2  A    between atoms: C_4  and  N_5
REMARK    3  A    between atoms: N_5  and  C_6
REMARK    4  A    between atoms: N_5  and  C_17
REMARK    5  A    between atoms: C_6  and  C_7
REMARK    6  A    between atoms: C_7  and  N_8
REMARK    7  A    between atoms: N_8  and  C_9
REMARK    8  A    between atoms: N_8  and  C_13
REMARK    9  A    between atoms: C_9  and  C_10
REMARK   10  A    between atoms: C_13  and  C_14
REMARK   11  A    between atoms: C_17  and  C_18
REMARK   12  A    between atoms: C_18  and  N_19
REMARK   13  A    between atoms: N_19  and  C_20
REMARK   14  A    between atoms: N_19  and  C_24
REMARK   15  A    between atoms: C_20  and  C_21
REMARK   16  A    between atoms: C_24  and  C_25
REMARK                            x       y       z     vdW  Elec       q    Type
REMARK                         _______ _______ _______ _____ _____    ______ ____
ROOT
ATOM      1  N   UNL     1       2.543   5.651  19.728  0.00  0.00    +0.000 NA
ENDROOT
BRANCH   1   2
ATOM      2  C   UNL     1       4.021   5.630  19.486  0.00  0.00    +0.000 C 
BRANCH   2   3
ATOM      3  C   UNL     1       4.549   5.677  18.040  0.00  0.00    +0.000 C 
BRANCH   3   4
ATOM      4  N   UNL     1       4.834   4.334  17.506  0.00  0.00    +0.000 NA
BRANCH   4   5
ATOM      5  C   UNL     1       5.935   4.369  16.492  0.00  0.00    +0.000 C 
BRANCH   5   6
ATOM      6  C   UNL     1       7.216   5.061  17.052  0.00  0.00    +0.000 C 
ATOM      7  O   UNL     1       7.782   4.440  18.008  0.00  0.00    +0.000 OA
ATOM      8  O   UNL     1       7.555   6.145  16.495  0.00  0.00    +0.000 OA
ENDBRANCH   5   6
ENDBRANCH   4   5
BRANCH   4   9
ATOM      9  C   UNL     1       3.702   3.540  16.985  0.00  0.00    +0.000 C 
BRANCH   9  10
ATOM     10  C   UNL     1       3.191   2.403  17.901  0.00  0.00    +0.000 C 
ATOM     11  O   UNL     1       3.849   2.033  18.891  0.00  0.00    +0.000 OA
ATOM     12  O   UNL     1       1.966   2.071  17.616  0.00  0.00    +0.000 OA
ENDBRANCH   9  10
ENDBRANCH   4   9
ENDBRANCH   3   4
ENDBRANCH   2   3
ENDBRANCH   1   2
BRANCH   1  13
ATOM     13  C   UNL     1       2.114   7.073  19.677  0.00  0.00    +0.000 C 
BRANCH  13  14
ATOM     14  C   UNL     1       1.636   7.763  20.976  0.00  0.00    +0.000 C 
BRANCH  14  15
ATOM     15  N   UNL     1       0.568   8.749  20.790  0.00  0.00    +0.000 NA
BRANCH  15  16
ATOM     16  C   UNL     1       0.971  10.131  20.429  0.00  0.00    +0.000 C 
BRANCH  16  17
ATOM     17  C   UNL     1       0.386  10.679  19.122  0.00  0.00    +0.000 C 
ATOM     18  O   UNL     1       0.180  11.898  18.969  0.00  0.00    +0.000 OA
ATOM     19  O   UNL     1       0.257   9.786  18.195  0.00  0.00    +0.000 OA
ENDBRANCH  16  17
ENDBRANCH  15  16
BRANCH  15  20
ATOM     20  C   UNL     1      -0.504   8.738  21.821  0.00  0.00    +0.000 C 
BRANCH  20  21
ATOM     21  C   UNL     1      -0.361   9.785  22.951  0.00  0.00    +0.000 C 
ATOM     22  O   UNL     1      -1.050  10.858  22.974  0.00  0.00    +0.000 OA
ATOM     23  O   UNL     1       0.589   9.582  23.790  0.00  0.00    +0.000 OA
ENDBRANCH  20  21
ENDBRANCH  15  20
ENDBRANCH  14  15
ENDBRANCH  13  14
ENDBRANCH   1  13
BRANCH   1  24
ATOM     24  C   UNL     1       2.265   5.119  21.106  0.00  0.00    +0.000 C 
BRANCH  24  26
ATOM     25  O   UNL     1       0.649   3.687  20.105  0.00  0.00    +0.000 OA
ATOM     26  C   UNL     1       1.510   3.773  21.046  0.00  0.00    +0.000 C 
ATOM     27  O   UNL     1       1.747   2.898  21.919  0.00  0.00    +0.000 OA
ENDBRANCH  24  26
ENDBRANCH   1  24
TORSDOF 16
ENDMDL
MODEL 2
REMARK VINA RESULT:      -6.0      2.483      7.031
REMARK  Name = 
REMARK  16 active torsions:
REMARK  status: ('A' for Active; 'I' for Inactive)
REMARK    1  A    between atoms: C_2  and  C_4
REMARK    2  A    between atoms: C_4  and  N_5
REMARK    3  A    between atoms: N_5  and  C_6
REMARK    4  A    between atoms: N_5  and  C_17
REMARK    5  A    between atoms: C_6  and  C_7
REMARK    6  A    between atoms: C_7  and  N_8
REMARK    7  A    between atoms: N_8  and  C_9
REMARK    8  A    between atoms: N_8  and  C_13
REMARK    9  A    between atoms: C_9  and  C_10
REMARK   10  A    between atoms: C_13  and  C_14
REMARK   11  A    between atoms: C_17  and  C_18
REMARK   12  A    between atoms: C_18  and  N_19
REMARK   13  A    between atoms: N_19  and  C_20
REMARK   14  A    between atoms: N_19  and  C_24
REMARK   15  A    between atoms: C_20  and  C_21
REMARK   16  A    between atoms: C_24  and  C_25
REMARK                            x       y       z     vdW  Elec       q    Type
REMARK                         _______ _______ _______ _____ _____    ______ ____
ROOT
ATOM      1  N   UNL     1       2.906   7.022  17.700  0.00  0.00    +0.000 NA
ENDROOT
BRANCH   1   2
ATOM      2  C   UNL     1       2.495   5.581  17.706  0.00  0.00    +0.000 C 
BRANCH   2   3
ATOM      3  C   UNL     1       1.693   5.032  18.900  0.00  0.00    +0.000 C 
BRANCH   3   4
ATOM      4  N   UNL     1       2.305   3.824  19.478  0.00  0.00    +0.000 NA
BRANCH   4   5
ATOM      5  C   UNL     1       3.095   3.066  18.458  0.00  0.00    +0.000 C 
BRANCH   5   6
ATOM      6  C   UNL     1       3.990   1.970  19.117  0.00  0.00    +0.000 C 
ATOM      7  O   UNL     1       3.836   0.800  18.640  0.00  0.00    +0.000 OA
ATOM      8  O   UNL     1       4.770   2.360  20.032  0.00  0.00    +0.000 OA
ENDBRANCH   5   6
ENDBRANCH   4   5
BRANCH   4   9
ATOM      9  C   UNL     1       1.432   2.893  20.224  0.00  0.00    +0.000 C 
BRANCH   9  10
ATOM     10  C   UNL     1       1.630   2.858  21.758  0.00  0.00    +0.000 C 
ATOM     11  O   UNL     1       1.156   1.935  22.446  0.00  0.00    +0.000 OA
ATOM     12  O   UNL     1       2.482   3.759  22.151  0.00  0.00    +0.000 OA
ENDBRANCH   9  10
ENDBRANCH   4   9
ENDBRANCH   3   4
ENDBRANCH   2   3
ENDBRANCH   1   2
BRANCH   1  13
ATOM     13  C   UNL     1       4.392   7.050  17.747  0.00  0.00    +0.000 C 
BRANCH  13  14
ATOM     14  C   UNL     1       5.193   6.130  16.796  0.00  0.00    +0.000 C 
BRANCH  14  15
ATOM     15  N   UNL     1       5.989   5.099  17.467  0.00  0.00    +0.000 NA
BRANCH  15  16
ATOM     16  C   UNL     1       6.326   5.318  18.895  0.00  0.00    +0.000 C 
BRANCH  16  17
ATOM     17  C   UNL     1       7.754   5.800  19.179  0.00  0.00    +0.000 C 
ATOM     18  O   UNL     1       8.564   5.084  19.798  0.00  0.00    +0.000 OA
ATOM     19  O   UNL     1       8.044   6.928  18.618  0.00  0.00    +0.000 OA
ENDBRANCH  16  17
ENDBRANCH  15  16
BRANCH  15  20
ATOM     20  C   UNL     1       7.154   4.585  16.698  0.00  0.00    +0.000 C 
BRANCH  20  21
ATOM     21  C   UNL     1       6.999   4.589  15.159  0.00  0.00    +0.000 C 
ATOM     22  O   UNL     1       6.337   3.692  14.540  0.00  0.00    +0.000 OA
ATOM     23  O   UNL     1       7.690   5.467  14.526  0.00  0.00    +0.000 OA
ENDBRANCH  20  21
ENDBRANCH  15  20
ENDBRANCH  14  15
ENDBRANCH  13  14
ENDBRANCH   1  13
BRANCH   1  24
ATOM     24  C   UNL     1       2.378   7.686  18.941  0.00  0.00    +0.000 C 
BRANCH  24  26
ATOM     25  O   UNL     1       1.816   9.431  17.424  0.00  0.00    +0.000 OA
ATOM     26  C   UNL     1       1.599   8.974  18.599  0.00  0.00    +0.000 C 
ATOM     27  O   UNL     1       0.865   9.498  19.477  0.00  0.00    +0.000 OA
ENDBRANCH  24  26
ENDBRANCH   1  24
TORSDOF 16
ENDMDL
MODEL 3
REMARK VINA RESULT:      -5.9      2.337      5.906
REMARK  Name = 
REMARK  16 active torsions:
REMARK  status: ('A' for Active; 'I' for Inactive)
REMARK    1  A    between atoms: C_2  and  C_4
REMARK    2  A    between atoms: C_4  and  N_5
REMARK    3  A    between atoms: N_5  and  C_6
REMARK    4  A    between atoms: N_5  and  C_17
REMARK    5  A    between atoms: C_6  and  C_7
REMARK    6  A    between atoms: C_7  and  N_8
REMARK    7  A    between atoms: N_8  and  C_9
REMARK    8  A    between atoms: N_8  and  C_13
REMARK    9  A    between atoms: C_9  and  C_10
REMARK   10  A    between atoms: C_13  and  C_14
REMARK   11  A    between atoms: C_17  and  C_18
REMARK   12  A    between atoms: C_18  and  N_19
REMARK   13  A    between atoms: N_19  and  C_20
REMARK   14  A    between atoms: N_19  and  C_24
REMARK   15  A    between atoms: C_20  and  C_21
REMARK   16  A    between atoms: C_24  and  C_25
REMARK                            x       y       z     vdW  Elec       q    Type
REMARK                         _______ _______ _______ _____ _____    ______ ____
ROOT
ATOM      1  N   UNL     1       3.166   6.948  18.225  0.00  0.00    +0.000 NA
ENDROOT
BRANCH   1   2
ATOM      2  C   UNL     1       4.301   7.050  17.253  0.00  0.00    +0.000 C 
BRANCH   2   3
ATOM      3  C   UNL     1       4.797   5.779  16.539  0.00  0.00    +0.000 C 
BRANCH   3   4
ATOM      4  N   UNL     1       6.266   5.674  16.539  0.00  0.00    +0.000 NA
BRANCH   4   5
ATOM      5  C   UNL     1       6.729   4.428  15.851  0.00  0.00    +0.000 C 
BRANCH   5   6
ATOM      6  C   UNL     1       6.985   4.668  14.331  0.00  0.00    +0.000 C 
ATOM      7  O   UNL     1       7.846   5.569  14.072  0.00  0.00    +0.000 OA
ATOM      8  O   UNL     1       6.328   3.941  13.531  0.00  0.00    +0.000 OA
ENDBRANCH   5   6
ENDBRANCH   4   5
BRANCH   4   9
ATOM      9  C   UNL     1       6.971   5.821  17.830  0.00  0.00    +0.000 C 
BRANCH   9  10
ATOM     10  C   UNL     1       7.780   7.126  18.017  0.00  0.00    +0.000 C 
ATOM     11  O   UNL     1       8.533   7.280  18.997  0.00  0.00    +0.000 OA
ATOM     12  O   UNL     1       7.714   7.886  16.963  0.00  0.00    +0.000 OA
ENDBRANCH   9  10
ENDBRANCH   4   9
ENDBRANCH   3   4
ENDBRANCH   2   3
ENDBRANCH   1   2
BRANCH   1  13
ATOM     13  C   UNL     1       2.342   5.782  17.810  0.00  0.00    +0.000 C 
BRANCH  13  14
ATOM     14  C   UNL     1       2.066   4.653  18.831  0.00  0.00    +0.000 C 
BRANCH  14  15
ATOM     15  N   UNL     1       3.043   4.558  19.919  0.00  0.00    +0.000 NA
BRANCH  15  16
ATOM     16  C   UNL     1       4.314   3.847  19.635  0.00  0.00    +0.000 C 
BRANCH  16  17
ATOM     17  C   UNL     1       4.249   2.315  19.687  0.00  0.00    +0.000 C 
ATOM     18  O   UNL     1       3.605   1.669  18.839  0.00  0.00    +0.000 OA
ATOM     19  O   UNL     1       5.008   1.793  20.595  0.00  0.00    +0.000 OA
ENDBRANCH  16  17
ENDBRANCH  15  16
BRANCH  15  20
ATOM     20  C   UNL     1       2.489   4.188  21.249  0.00  0.00    +0.000 C 
BRANCH  20  21
ATOM     21  C   UNL     1       1.473   3.021  21.254  0.00  0.00    +0.000 C 
ATOM     22  O   UNL     1       0.697   2.792  20.268  0.00  0.00    +0.000 OA
ATOM     23  O   UNL     1       1.356   2.382  22.361  0.00  0.00    +0.000 OA
ENDBRANCH  20  21
ENDBRANCH  15  20
ENDBRANCH  14  15
ENDBRANCH  13  14
ENDBRANCH   1  13
BRANCH   1  24
ATOM     24  C   UNL     1       2.322   8.188  18.122  0.00  0.00    +0.000 C 
BRANCH  24  26
ATOM     25  O   UNL     1       0.933   9.582  19.461  0.00  0.00    +0.000 OA
ATOM     26  C   UNL     1       1.658   8.529  19.474  0.00  0.00    +0.000 C 
ATOM     27  O   UNL     1       1.899   7.804  20.474  0.00  0.00    +0.000 OA
ENDBRANCH  24  26
ENDBRANCH   1  24
TORSDOF 16
ENDMDL
MODEL 4
REMARK VINA RESULT:      -5.9      0.722      3.695
REMARK  Name = 
REMARK  16 active torsions:
REMARK  status: ('A' for Active; 'I' for Inactive)
REMARK    1  A    between atoms: C_2  and  C_4
REMARK    2  A    between atoms: C_4  and  N_5
REMARK    3  A    between atoms: N_5  and  C_6
REMARK    4  A    between atoms: N_5  and  C_17
REMARK    5  A    between atoms: C_6  and  C_7
REMARK    6  A    between atoms: C_7  and  N_8
REMARK    7  A    between atoms: N_8  and  C_9
REMARK    8  A    between atoms: N_8  and  C_13
REMARK    9  A    between atoms: C_9  and  C_10
REMARK   10  A    between atoms: C_13  and  C_14
REMARK   11  A    between atoms: C_17  and  C_18
REMARK   12  A    between atoms: C_18  and  N_19
REMARK   13  A    between atoms: N_19  and  C_20
REMARK   14  A    between atoms: N_19  and  C_24
REMARK   15  A    between atoms: C_20  and  C_21
REMARK   16  A    between atoms: C_24  and  C_25
REMARK                            x       y       z     vdW  Elec       q    Type
REMARK                         _______ _______ _______ _____ _____    ______ ____
ROOT
ATOM      1  N   UNL     1       2.325   5.992  19.487  0.00  0.00    +0.000 NA
ENDROOT
BRANCH   1   2
ATOM      2  C   UNL     1       3.802   5.767  19.372  0.00  0.00    +0.000 C 
BRANCH   2   3
ATOM      3  C   UNL     1       4.468   5.833  17.985  0.00  0.00    +0.000 C 
BRANCH   3   4
ATOM      4  N   UNL     1       4.598   4.504  17.364  0.00  0.00    +0.000 NA
BRANCH   4   5
ATOM      5  C   UNL     1       4.415   3.408  18.367  0.00  0.00    +0.000 C 
BRANCH   5   6
ATOM      6  C   UNL     1       3.311   2.397  17.923  0.00  0.00    +0.000 C 
ATOM      7  O   UNL     1       3.421   1.234  18.429  0.00  0.00    +0.000 OA
ATOM      8  O   UNL     1       2.432   2.841  17.130  0.00  0.00    +0.000 OA
ENDBRANCH   5   6
ENDBRANCH   4   5
BRANCH   4   9
ATOM      9  C   UNL     1       5.800   4.235  16.547  0.00  0.00    +0.000 C 
BRANCH   9  10
ATOM     10  C   UNL     1       7.085   4.990  16.960  0.00  0.00    +0.000 C 
ATOM     11  O   UNL     1       7.413   6.053  16.400  0.00  0.00    +0.000 OA
ATOM     12  O   UNL     1       7.608   4.491  18.041  0.00  0.00    +0.000 OA
ENDBRANCH   9  10
ENDBRANCH   4   9
ENDBRANCH   3   4
ENDBRANCH   2   3
ENDBRANCH   1   2
BRANCH   1  13
ATOM     13  C   UNL     1       2.107   7.462  19.472  0.00  0.00    +0.000 C 
BRANCH  13  14
ATOM     14  C   UNL     1       1.910   8.209  20.812  0.00  0.00    +0.000 C 
BRANCH  14  15
ATOM     15  N   UNL     1       0.830   9.199  20.809  0.00  0.00    +0.000 NA
BRANCH  15  16
ATOM     16  C   UNL     1      -0.309   8.969  21.731  0.00  0.00    +0.000 C 
BRANCH  16  17
ATOM     17  C   UNL     1      -0.376   9.891  22.955  0.00  0.00    +0.000 C 
ATOM     18  O   UNL     1      -1.283  10.736  23.077  0.00  0.00    +0.000 OA
ATOM     19  O   UNL     1       0.504   9.615  23.863  0.00  0.00    +0.000 OA
ENDBRANCH  16  17
ENDBRANCH  15  16
BRANCH  15  20
ATOM     20  C   UNL     1       0.372   9.646  19.466  0.00  0.00    +0.000 C 
BRANCH  20  21
ATOM     21  C   UNL     1       1.069  10.906  18.902  0.00  0.00    +0.000 C 
ATOM     22  O   UNL     1       2.110  10.836  18.169  0.00  0.00    +0.000 OA
ATOM     23  O   UNL     1       0.625  12.033  19.327  0.00  0.00    +0.000 OA
ENDBRANCH  20  21
ENDBRANCH  15  20
ENDBRANCH  14  15
ENDBRANCH  13  14
ENDBRANCH   1  13
BRANCH   1  24
ATOM     24  C   UNL     1       1.850   5.454  20.808  0.00  0.00    +0.000 C 
BRANCH  24  26
ATOM     25  O   UNL     1       2.271   3.213  21.489  0.00  0.00    +0.000 OA
ATOM     26  C   UNL     1       1.552   3.941  20.723  0.00  0.00    +0.000 C 
ATOM     27  O   UNL     1       0.687   3.533  19.905  0.00  0.00    +0.000 OA
ENDBRANCH  24  26
ENDBRANCH   1  24
TORSDOF 16
ENDMDL
MODEL 5
REMARK VINA RESULT:      -5.9      2.671      5.858
REMARK  Name = 
REMARK  16 active torsions:
REMARK  status: ('A' for Active; 'I' for Inactive)
REMARK    1  A    between atoms: C_2  and  C_4
REMARK    2  A    between atoms: C_4  and  N_5
REMARK    3  A    between atoms: N_5  and  C_6
REMARK    4  A    between atoms: N_5  and  C_17
REMARK    5  A    between atoms: C_6  and  C_7
REMARK    6  A    between atoms: C_7  and  N_8
REMARK    7  A    between atoms: N_8  and  C_9
REMARK    8  A    between atoms: N_8  and  C_13
REMARK    9  A    between atoms: C_9  and  C_10
REMARK   10  A    between atoms: C_13  and  C_14
REMARK   11  A    between atoms: C_17  and  C_18
REMARK   12  A    between atoms: C_18  and  N_19
REMARK   13  A    between atoms: N_19  and  C_20
REMARK   14  A    between atoms: N_19  and  C_24
REMARK   15  A    between atoms: C_20  and  C_21
REMARK   16  A    between atoms: C_24  and  C_25
REMARK                            x       y       z     vdW  Elec       q    Type
REMARK                         _______ _______ _______ _____ _____    ______ ____
ROOT
ATOM      1  N   UNL     1       3.274   6.613  18.211  0.00  0.00    +0.000 NA
ENDROOT
BRANCH   1   2
ATOM      2  C   UNL     1       4.095   5.870  17.201  0.00  0.00    +0.000 C 
BRANCH   2   3
ATOM      3  C   UNL     1       5.026   6.658  16.261  0.00  0.00    +0.000 C 
BRANCH   3   4
ATOM      4  N   UNL     1       6.438   6.273  16.419  0.00  0.00    +0.000 NA
BRANCH   4   5
ATOM      5  C   UNL     1       6.669   4.850  16.016  0.00  0.00    +0.000 C 
BRANCH   5   6
ATOM      6  C   UNL     1       6.933   4.718  14.484  0.00  0.00    +0.000 C 
ATOM      7  O   UNL     1       7.834   5.495  14.031  0.00  0.00    +0.000 OA
ATOM      8  O   UNL     1       6.242   3.856  13.869  0.00  0.00    +0.000 OA
ENDBRANCH   5   6
ENDBRANCH   4   5
BRANCH   4   9
ATOM      9  C   UNL     1       7.086   6.532  17.723  0.00  0.00    +0.000 C 
BRANCH   9  10
ATOM     10  C   UNL     1       7.308   5.298  18.628  0.00  0.00    +0.000 C 
ATOM     11  O   UNL     1       8.225   4.489  18.395  0.00  0.00    +0.000 OA
ATOM     12  O   UNL     1       6.579   5.355  19.704  0.00  0.00    +0.000 OA
ENDBRANCH   9  10
ENDBRANCH   4   9
ENDBRANCH   3   4
ENDBRANCH   2   3
ENDBRANCH   1   2
BRANCH   1  13
ATOM     13  C   UNL     1       1.948   5.945  18.269  0.00  0.00    +0.000 C 
BRANCH  13  14
ATOM     14  C   UNL     1       1.823   4.477  17.797  0.00  0.00    +0.000 C 
BRANCH  14  15
ATOM     15  N   UNL     1       2.154   3.476  18.814  0.00  0.00    +0.000 NA
BRANCH  15  16
ATOM     16  C   UNL     1       2.728   2.190  18.345  0.00  0.00    +0.000 C 
BRANCH  16  17
ATOM     17  C   UNL     1       4.052   1.772  18.995  0.00  0.00    +0.000 C 
ATOM     18  O   UNL     1       4.689   2.557  19.723  0.00  0.00    +0.000 OA
ATOM     19  O   UNL     1       4.352   0.527  18.812  0.00  0.00    +0.000 OA
ENDBRANCH  16  17
ENDBRANCH  15  16
BRANCH  15  20
ATOM     20  C   UNL     1       1.127   3.269  19.871  0.00  0.00    +0.000 C 
BRANCH  20  21
ATOM     21  C   UNL     1       1.648   3.279  21.327  0.00  0.00    +0.000 C 
ATOM     22  O   UNL     1       1.316   2.386  22.174  0.00  0.00    +0.000 OA
ATOM     23  O   UNL     1       2.321   4.315  21.676  0.00  0.00    +0.000 OA
ENDBRANCH  20  21
ENDBRANCH  15  20
ENDBRANCH  14  15
ENDBRANCH  13  14
ENDBRANCH   1  13
BRANCH   1  24
ATOM     24  C   UNL     1       3.076   8.026  17.735  0.00  0.00    +0.000 C 
BRANCH  24  26
ATOM     25  O   UNL     1       1.070   9.306  17.677  0.00  0.00    +0.000 OA
ATOM     26  C   UNL     1       1.885   8.698  18.453  0.00  0.00    +0.000 C 
ATOM     27  O   UNL     1       1.819   8.646  19.708  0.00  0.00    +0.000 OA
ENDBRANCH  24  26
ENDBRANCH   1  24
TORSDOF 16
ENDMDL
MODEL 6
REMARK VINA RESULT:      -5.9      0.905      3.634
REMARK  Name = 
REMARK  16 active torsions:
REMARK  status: ('A' for Active; 'I' for Inactive)
REMARK    1  A    between atoms: C_2  and  C_4
REMARK    2  A    between atoms: C_4  and  N_5
REMARK    3  A    between atoms: N_5  and  C_6
REMARK    4  A    between atoms: N_5  and  C_17
REMARK    5  A    between atoms: C_6  and  C_7
REMARK    6  A    between atoms: C_7  and  N_8
REMARK    7  A    between atoms: N_8  and  C_9
REMARK    8  A    between atoms: N_8  and  C_13
REMARK    9  A    between atoms: C_9  and  C_10
REMARK   10  A    between atoms: C_13  and  C_14
REMARK   11  A    between atoms: C_17  and  C_18
REMARK   12  A    between atoms: C_18  and  N_19
REMARK   13  A    between atoms: N_19  and  C_20
REMARK   14  A    between atoms: N_19  and  C_24
REMARK   15  A    between atoms: C_20  and  C_21
REMARK   16  A    between atoms: C_24  and  C_25
REMARK                            x       y       z     vdW  Elec       q    Type
REMARK                         _______ _______ _______ _____ _____    ______ ____
ROOT
ATOM      1  N   UNL     1       2.243   5.451  20.094  0.00  0.00    +0.000 NA
ENDROOT
BRANCH   1   2
ATOM      2  C   UNL     1       3.545   5.966  19.560  0.00  0.00    +0.000 C 
BRANCH   2   3
ATOM      3  C   UNL     1       4.576   4.969  18.999  0.00  0.00    +0.000 C 
BRANCH   3   4
ATOM      4  N   UNL     1       4.498   4.848  17.534  0.00  0.00    +0.000 NA
BRANCH   4   5
ATOM      5  C   UNL     1       4.372   3.420  17.105  0.00  0.00    +0.000 C 
BRANCH   5   6
ATOM      6  C   UNL     1       3.012   2.799  17.553  0.00  0.00    +0.000 C 
ATOM      7  O   UNL     1       1.982   3.394  17.102  0.00  0.00    +0.000 OA
ATOM      8  O   UNL     1       3.081   1.777  18.295  0.00  0.00    +0.000 OA
ENDBRANCH   5   6
ENDBRANCH   4   5
BRANCH   4   9
ATOM      9  C   UNL     1       5.537   5.521  16.726  0.00  0.00    +0.000 C 
BRANCH   9  10
ATOM     10  C   UNL     1       6.930   5.652  17.385  0.00  0.00    +0.000 C 
ATOM     11  O   UNL     1       7.191   6.599  18.150  0.00  0.00    +0.000 OA
ATOM     12  O   UNL     1       7.653   4.588  17.194  0.00  0.00    +0.000 OA
ENDBRANCH   9  10
ENDBRANCH   4   9
ENDBRANCH   3   4
ENDBRANCH   2   3
ENDBRANCH   1   2
BRANCH   1  13
ATOM     13  C   UNL     1       1.528   6.610  20.688  0.00  0.00    +0.000 C 
BRANCH  13  14
ATOM     14  C   UNL     1       1.726   8.014  20.071  0.00  0.00    +0.000 C 
BRANCH  14  15
ATOM     15  N   UNL     1       1.129   9.111  20.838  0.00  0.00    +0.000 NA
BRANCH  15  16
ATOM     16  C   UNL     1      -0.037   8.788  21.696  0.00  0.00    +0.000 C 
BRANCH  16  17
ATOM     17  C   UNL     1      -0.115   9.542  23.030  0.00  0.00    +0.000 C 
ATOM     18  O   UNL     1       0.865   9.597  23.797  0.00  0.00    +0.000 OA
ATOM     19  O   UNL     1      -1.222  10.188  23.198  0.00  0.00    +0.000 OA
ENDBRANCH  16  17
ENDBRANCH  15  16
BRANCH  15  20
ATOM     20  C   UNL     1       0.930  10.383  20.091  0.00  0.00    +0.000 C 
BRANCH  20  21
ATOM     21  C   UNL     1      -0.458  10.564  19.431  0.00  0.00    +0.000 C 
ATOM     22  O   UNL     1      -0.743  10.054  18.298  0.00  0.00    +0.000 OA
ATOM     23  O   UNL     1      -1.259  11.375  20.021  0.00  0.00    +0.000 OA
ENDBRANCH  20  21
ENDBRANCH  15  20
ENDBRANCH  14  15
ENDBRANCH  13  14
ENDBRANCH   1  13
BRANCH   1  24
ATOM     24  C   UNL     1       2.522   4.453  21.184  0.00  0.00    +0.000 C 
BRANCH  24  26
ATOM     25  O   UNL     1       0.730   3.284  20.142  0.00  0.00    +0.000 OA
ATOM     26  C   UNL     1       1.491   3.304  21.170  0.00  0.00    +0.000 C 
ATOM     27  O   UNL     1       1.435   2.519  22.152  0.00  0.00    +0.000 OA
ENDBRANCH  24  26
ENDBRANCH   1  24
TORSDOF 16
ENDMDL
MODEL 7
REMARK VINA RESULT:      -5.9      1.510      3.253
REMARK  Name = 
REMARK  16 active torsions:
REMARK  status: ('A' for Active; 'I' for Inactive)
REMARK    1  A    between atoms: C_2  and  C_4
REMARK    2  A    between atoms: C_4  and  N_5
REMARK    3  A    between atoms: N_5  and  C_6
REMARK    4  A    between atoms: N_5  and  C_17
REMARK    5  A    between atoms: C_6  and  C_7
REMARK    6  A    between atoms: C_7  and  N_8
REMARK    7  A    between atoms: N_8  and  C_9
REMARK    8  A    between atoms: N_8  and  C_13
REMARK    9  A    between atoms: C_9  and  C_10
REMARK   10  A    between atoms: C_13  and  C_14
REMARK   11  A    between atoms: C_17  and  C_18
REMARK   12  A    between atoms: C_18  and  N_19
REMARK   13  A    between atoms: N_19  and  C_20
REMARK   14  A    between atoms: N_19  and  C_24
REMARK   15  A    between atoms: C_20  and  C_21
REMARK   16  A    between atoms: C_24  and  C_25
REMARK                            x       y       z     vdW  Elec       q    Type
REMARK                         _______ _______ _______ _____ _____    ______ ____
ROOT
ATOM      1  N   UNL     1       2.189   5.854  19.069  0.00  0.00    +0.000 NA
ENDROOT
BRANCH   1   2
ATOM      2  C   UNL     1       3.166   5.579  17.967  0.00  0.00    +0.000 C 
BRANCH   2   3
ATOM      3  C   UNL     1       4.324   6.565  17.724  0.00  0.00    +0.000 C 
BRANCH   3   4
ATOM      4  N   UNL     1       5.499   5.910  17.125  0.00  0.00    +0.000 NA
BRANCH   4   5
ATOM      5  C   UNL     1       6.773   6.388  17.749  0.00  0.00    +0.000 C 
BRANCH   5   6
ATOM      6  C   UNL     1       7.407   5.302  18.672  0.00  0.00    +0.000 C 
ATOM      7  O   UNL     1       7.246   5.503  19.918  0.00  0.00    +0.000 OA
ATOM      8  O   UNL     1       7.995   4.345  18.089  0.00  0.00    +0.000 OA
ENDBRANCH   5   6
ENDBRANCH   4   5
BRANCH   4   9
ATOM      9  C   UNL     1       5.628   5.929  15.652  0.00  0.00    +0.000 C 
BRANCH   9  10
ATOM     10  C   UNL     1       6.537   4.840  15.036  0.00  0.00    +0.000 C 
ATOM     11  O   UNL     1       6.127   3.675  14.880  0.00  0.00    +0.000 OA
ATOM     12  O   UNL     1       7.632   5.347  14.552  0.00  0.00    +0.000 OA
ENDBRANCH   9  10
ENDBRANCH   4   9
ENDBRANCH   3   4
ENDBRANCH   2   3
ENDBRANCH   1   2
BRANCH   1  13
ATOM     13  C   UNL     1       2.192   7.323  19.296  0.00  0.00    +0.000 C 
BRANCH  13  14
ATOM     14  C   UNL     1       1.795   7.872  20.686  0.00  0.00    +0.000 C 
BRANCH  14  15
ATOM     15  N   UNL     1       0.897   9.029  20.654  0.00  0.00    +0.000 NA
BRANCH  15  16
ATOM     16  C   UNL     1      -0.263   9.019  21.580  0.00  0.00    +0.000 C 
BRANCH  16  17
ATOM     17  C   UNL     1      -0.223  10.051  22.713  0.00  0.00    +0.000 C 
ATOM     18  O   UNL     1      -0.803  11.149  22.605  0.00  0.00    +0.000 OA
ATOM     19  O   UNL     1       0.346   9.619  23.790  0.00  0.00    +0.000 OA
ENDBRANCH  16  17
ENDBRANCH  15  16
BRANCH  15  20
ATOM     20  C   UNL     1       0.517   9.510  19.298  0.00  0.00    +0.000 C 
BRANCH  20  21
ATOM     21  C   UNL     1       0.480  11.046  19.115  0.00  0.00    +0.000 C 
ATOM     22  O   UNL     1      -0.426  11.628  18.433  0.00  0.00    +0.000 OA
ATOM     23  O   UNL     1       1.493  11.691  19.570  0.00  0.00    +0.000 OA
ENDBRANCH  20  21
ENDBRANCH  15  20
ENDBRANCH  14  15
ENDBRANCH  13  14
ENDBRANCH   1  13
BRANCH   1  24
ATOM     24  C   UNL     1       2.665   5.177  20.325  0.00  0.00    +0.000 C 
BRANCH  24  26
ATOM     25  O   UNL     1       2.657   2.888  20.976  0.00  0.00    +0.000 OA
ATOM     26  C   UNL     1       1.918   3.848  20.564  0.00  0.00    +0.000 C 
ATOM     27  O   UNL     1       0.689   3.781  20.304  0.00  0.00    +0.000 OA
ENDBRANCH  24  26
ENDBRANCH   1  24
TORSDOF 16
ENDMDL
MODEL 8
REMARK VINA RESULT:      -5.9      1.321      3.199
REMARK  Name = 
REMARK  16 active torsions:
REMARK  status: ('A' for Active; 'I' for Inactive)
REMARK    1  A    between atoms: C_2  and  C_4
REMARK    2  A    between atoms: C_4  and  N_5
REMARK    3  A    between atoms: N_5  and  C_6
REMARK    4  A    between atoms: N_5  and  C_17
REMARK    5  A    between atoms: C_6  and  C_7
REMARK    6  A    between atoms: C_7  and  N_8
REMARK    7  A    between atoms: N_8  and  C_9
REMARK    8  A    between atoms: N_8  and  C_13
REMARK    9  A    between atoms: C_9  and  C_10
REMARK   10  A    between atoms: C_13  and  C_14
REMARK   11  A    between atoms: C_17  and  C_18
REMARK   12  A    between atoms: C_18  and  N_19
REMARK   13  A    between atoms: N_19  and  C_20
REMARK   14  A    between atoms: N_19  and  C_24
REMARK   15  A    between atoms: C_20  and  C_21
REMARK   16  A    between atoms: C_24  and  C_25
REMARK                            x       y       z     vdW  Elec       q    Type
REMARK                         _______ _______ _______ _____ _____    ______ ____
ROOT
ATOM      1  N   UNL     1       2.044   5.358  20.210  0.00  0.00    +0.000 NA
ENDROOT
BRANCH   1   2
ATOM      2  C   UNL     1       3.247   5.820  19.445  0.00  0.00    +0.000 C 
BRANCH   2   3
ATOM      3  C   UNL     1       3.345   5.514  17.939  0.00  0.00    +0.000 C 
BRANCH   3   4
ATOM      4  N   UNL     1       4.686   5.049  17.549  0.00  0.00    +0.000 NA
BRANCH   4   5
ATOM      5  C   UNL     1       4.637   4.196  16.320  0.00  0.00    +0.000 C 
BRANCH   5   6
ATOM      6  C   UNL     1       5.630   4.700  15.226  0.00  0.00    +0.000 C 
ATOM      7  O   UNL     1       6.277   3.780  14.631  0.00  0.00    +0.000 OA
ATOM      8  O   UNL     1       5.674   5.951  15.044  0.00  0.00    +0.000 OA
ENDBRANCH   5   6
ENDBRANCH   4   5
BRANCH   4   9
ATOM      9  C   UNL     1       5.519   4.391  18.578  0.00  0.00    +0.000 C 
BRANCH   9  10
ATOM     10  C   UNL     1       6.883   5.056  18.875  0.00  0.00    +0.000 C 
ATOM     11  O   UNL     1       7.156   5.480  20.014  0.00  0.00    +0.000 OA
ATOM     12  O   UNL     1       7.710   4.920  17.880  0.00  0.00    +0.000 OA
ENDBRANCH   9  10
ENDBRANCH   4   9
ENDBRANCH   3   4
ENDBRANCH   2   3
ENDBRANCH   1   2
BRANCH   1  13
ATOM     13  C   UNL     1       1.436   6.563  20.831  0.00  0.00    +0.000 C 
BRANCH  13  14
ATOM     14  C   UNL     1       1.690   7.949  20.194  0.00  0.00    +0.000 C 
BRANCH  14  15
ATOM     15  N   UNL     1       1.104   9.077  20.923  0.00  0.00    +0.000 NA
BRANCH  15  16
ATOM     16  C   UNL     1      -0.072   8.796  21.784  0.00  0.00    +0.000 C 
BRANCH  16  17
ATOM     17  C   UNL     1      -0.282   9.754  22.962  0.00  0.00    +0.000 C 
ATOM     18  O   UNL     1      -1.272  10.509  23.010  0.00  0.00    +0.000 OA
ATOM     19  O   UNL     1       0.578   9.603  23.916  0.00  0.00    +0.000 OA
ENDBRANCH  16  17
ENDBRANCH  15  16
BRANCH  15  20
ATOM     20  C   UNL     1       0.926  10.328  20.137  0.00  0.00    +0.000 C 
BRANCH  20  21
ATOM     21  C   UNL     1      -0.179  10.291  19.055  0.00  0.00    +0.000 C 
ATOM     22  O   UNL     1      -1.403  10.526  19.326  0.00  0.00    +0.000 OA
ATOM     23  O   UNL     1       0.182   9.873  17.897  0.00  0.00    +0.000 OA
ENDBRANCH  20  21
ENDBRANCH  15  20
ENDBRANCH  14  15
ENDBRANCH  13  14
ENDBRANCH   1  13
BRANCH   1  24
ATOM     24  C   UNL     1       2.489   4.430  21.306  0.00  0.00    +0.000 C 
BRANCH  24  26
ATOM     25  O   UNL     1       1.663   2.639  19.973  0.00  0.00    +0.000 OA
ATOM     26  C   UNL     1       1.816   3.046  21.176  0.00  0.00    +0.000 C 
ATOM     27  O   UNL     1       1.434   2.450  22.216  0.00  0.00    +0.000 OA
ENDBRANCH  24  26
ENDBRANCH   1  24
TORSDOF 16
ENDMDL
MODEL 9
REMARK VINA RESULT:      -5.9      1.494      7.782
REMARK  Name = 
REMARK  16 active torsions:
REMARK  status: ('A' for Active; 'I' for Inactive)
REMARK    1  A    between atoms: C_2  and  C_4
REMARK    2  A    between atoms: C_4  and  N_5
REMARK    3  A    between atoms: N_5  and  C_6
REMARK    4  A    between atoms: N_5  and  C_17
REMARK    5  A    between atoms: C_6  and  C_7
REMARK    6  A    between atoms: C_7  and  N_8
REMARK    7  A    between atoms: N_8  and  C_9
REMARK    8  A    between atoms: N_8  and  C_13
REMARK    9  A    between atoms: C_9  and  C_10
REMARK   10  A    between atoms: C_13  and  C_14
REMARK   11  A    between atoms: C_17  and  C_18
REMARK   12  A    between atoms: C_18  and  N_19
REMARK   13  A    between atoms: N_19  and  C_20
REMARK   14  A    between atoms: N_19  and  C_24
REMARK   15  A    between atoms: C_20  and  C_21
REMARK   16  A    between atoms: C_24  and  C_25
REMARK                            x       y       z     vdW  Elec       q    Type
REMARK                         _______ _______ _______ _____ _____    ______ ____
ROOT
ATOM      1  N   UNL     1       2.658   5.143  20.409  0.00  0.00    +0.000 NA
ENDROOT
BRANCH   1   2
ATOM      2  C   UNL     1       2.348   6.572  20.080  0.00  0.00    +0.000 C 
BRANCH   2   3
ATOM      3  C   UNL     1       1.414   7.372  21.008  0.00  0.00    +0.000 C 
BRANCH   3   4
ATOM      4  N   UNL     1       1.238   8.763  20.559  0.00  0.00    +0.000 NA
BRANCH   4   5
ATOM      5  C   UNL     1      -0.040   9.349  21.071  0.00  0.00    +0.000 C 
BRANCH   5   6
ATOM      6  C   UNL     1       0.208  10.329  22.260  0.00  0.00    +0.000 C 
ATOM      7  O   UNL     1       0.322   9.769  23.397  0.00  0.00    +0.000 OA
ATOM      8  O   UNL     1       0.283  11.557  21.966  0.00  0.00    +0.000 OA
ENDBRANCH   5   6
ENDBRANCH   4   5
BRANCH   4   9
ATOM      9  C   UNL     1       1.372   9.048  19.114  0.00  0.00    +0.000 C 
BRANCH   9  10
ATOM     10  C   UNL     1       0.650  10.316  18.602  0.00  0.00    +0.000 C 
ATOM     11  O   UNL     1       1.167  11.443  18.724  0.00  0.00    +0.000 OA
ATOM     12  O   UNL     1      -0.398  10.018  17.892  0.00  0.00    +0.000 OA
ENDBRANCH   9  10
ENDBRANCH   4   9
ENDBRANCH   3   4
ENDBRANCH   2   3
ENDBRANCH   1   2
BRANCH   1  13
ATOM     13  C   UNL     1       3.740   4.711  19.486  0.00  0.00    +0.000 C 
BRANCH  13  14
ATOM     14  C   UNL     1       4.295   5.717  18.451  0.00  0.00    +0.000 C 
BRANCH  14  15
ATOM     15  N   UNL     1       5.241   5.148  17.487  0.00  0.00    +0.000 NA
BRANCH  15  16
ATOM     16  C   UNL     1       6.541   4.662  18.012  0.00  0.00    +0.000 C 
BRANCH  16  17
ATOM     17  C   UNL     1       7.345   5.670  18.843  0.00  0.00    +0.000 C 
ATOM     18  O   UNL     1       7.817   6.700  18.325  0.00  0.00    +0.000 OA
ATOM     19  O   UNL     1       7.366   5.402  20.108  0.00  0.00    +0.000 OA
ENDBRANCH  16  17
ENDBRANCH  15  16
BRANCH  15  20
ATOM     20  C   UNL     1       5.407   5.913  16.222  0.00  0.00    +0.000 C 
BRANCH  20  21
ATOM     21  C   UNL     1       6.177   5.187  15.093  0.00  0.00    +0.000 C 
ATOM     22  O   UNL     1       5.693   4.178  14.481  0.00  0.00    +0.000 OA
ATOM     23  O   UNL     1       7.388   5.568  14.903  0.00  0.00    +0.000 OA
ENDBRANCH  20  21
ENDBRANCH  15  20
ENDBRANCH  14  15
ENDBRANCH  13  14
ENDBRANCH   1  13
BRANCH   1  24
ATOM     24  C   UNL     1       1.440   4.305  20.141  0.00  0.00    +0.000 C 
BRANCH  24  26
ATOM     25  O   UNL     1       1.600   1.943  19.896  0.00  0.00    +0.000 OA
ATOM     26  C   UNL     1       1.585   2.893  20.751  0.00  0.00    +0.000 C 
ATOM     27  O   UNL     1       1.630   2.769  22.002  0.00  0.00    +0.000 OA
ENDBRANCH  24  26
ENDBRANCH   1  24
TORSDOF 16
ENDMDL
