MODEL 1
REMARK VINA RESULT:      -6.9      0.000      0.000
REMARK  Name = 
REMARK  7 active torsions:
REMARK  status: ('A' for Active; 'I' for Inactive)
REMARK    1  A    between atoms: C_1  and  O_2
REMARK    2  A    between atoms: O_2  and  C_3
REMARK    3  A    between atoms: C_5  and  C_6
REMARK    4  A    between atoms: C_6  and  N_7
REMARK    5  A    between atoms: N_7  and  C_8
REMARK    6  A    between atoms: C_19  and  O_20
REMARK    7  A    between atoms: O_20  and  C_21
REMARK                            x       y       z     vdW  Elec       q    Type
REMARK                         _______ _______ _______ _____ _____    ______ ____
ROOT
ATOM      1  C   UNL     1       6.220   5.140  15.854  0.00  0.00    +0.000 A 
ATOM      2  C   UNL     1       5.272   4.116  16.012  0.00  0.00    +0.000 A 
ATOM      3  C   UNL     1       4.969   3.605  17.268  0.00  0.00    +0.000 A 
ATOM      4  C   UNL     1       5.614   4.112  18.402  0.00  0.00    +0.000 A 
ATOM      5  C   UNL     1       6.559   5.126  18.274  0.00  0.00    +0.000 A 
ATOM      6 CL   UNL     1       7.357   5.713  19.722  0.00  0.00    +0.000 Cl
ATOM      7  C   UNL     1       6.874   5.659  17.009  0.00  0.00    +0.000 A 
ENDROOT
BRANCH   1   9
ATOM      8  C   UNL     1       6.989   4.892  13.551  0.00  0.00    +0.000 C 
ATOM      9  O   UNL     1       6.505   5.625  14.618  0.00  0.00    +0.000 OA
ENDBRANCH   1   9
BRANCH   7  10
ATOM     10  O   UNL     1       7.805   6.652  16.962  0.00  0.00    +0.000 OA
ATOM     11  C   UNL     1       7.653   7.956  17.369  0.00  0.00    +0.000 C 
ENDBRANCH   7  10
BRANCH   3  12
ATOM     12  C   UNL     1       3.971   2.501  17.383  0.00  0.00    +0.000 C 
BRANCH  12  13
ATOM     13  N   UNL     1       2.702   2.949  16.791  0.00  0.00    +0.000 NA
ATOM     14  H   UNL     1       2.360   2.227  16.116  0.00  0.00    +0.000 HD
BRANCH  13  15
ATOM     15  C   UNL     1       1.657   3.333  17.763  0.00  0.00    +0.000 C 
ATOM     16  C   UNL     1       2.126   2.818  19.135  0.00  0.00    +0.000 C 
ATOM     17  C   UNL     1       1.211   3.025  20.345  0.00  0.00    +0.000 C 
ATOM     18  C   UNL     1       0.962   4.469  20.822  0.00  0.00    +0.000 C 
ATOM     19  C   UNL     1       2.209   5.380  20.835  0.00  0.00    +0.000 C 
ATOM     20  C   UNL     1       2.338   6.316  19.610  0.00  0.00    +0.000 C 
ATOM     21  C   UNL     1       2.529   5.740  18.197  0.00  0.00    +0.000 C 
ATOM     22  C   UNL     1       1.362   4.855  17.719  0.00  0.00    +0.000 C 
ENDBRANCH  13  15
ENDBRANCH  12  13
ENDBRANCH   3  12
TORSDOF 5
ENDMDL
MODEL 2
REMARK VINA RESULT:      -6.7      4.458      6.042
REMARK  Name = 
REMARK  7 active torsions:
REMARK  status: ('A' for Active; 'I' for Inactive)
REMARK    1  A    between atoms: C_1  and  O_2
REMARK    2  A    between atoms: O_2  and  C_3
REMARK    3  A    between atoms: C_5  and  C_6
REMARK    4  A    between atoms: C_6  and  N_7
REMARK    5  A    between atoms: N_7  and  C_8
REMARK    6  A    between atoms: C_19  and  O_20
REMARK    7  A    between atoms: O_20  and  C_21
REMARK                            x       y       z     vdW  Elec       q    Type
REMARK                         _______ _______ _______ _____ _____    ______ ____
ROOT
ATOM      1  C   UNL     1       4.122   4.733  18.981  0.00  0.00    +0.000 A 
ATOM      2  C   UNL     1       3.627   6.047  19.041  0.00  0.00    +0.000 A 
ATOM      3  C   UNL     1       2.487   6.351  19.775  0.00  0.00    +0.000 A 
ATOM      4  C   UNL     1       1.813   5.341  20.469  0.00  0.00    +0.000 A 
ATOM      5  C   UNL     1       2.280   4.030  20.425  0.00  0.00    +0.000 A 
ATOM      6 CL   UNL     1       1.387   2.795  21.294  0.00  0.00    +0.000 Cl
ATOM      7  C   UNL     1       3.437   3.705  19.691  0.00  0.00    +0.000 A 
ENDROOT
BRANCH   1   9
ATOM      8  C   UNL     1       5.285   4.255  16.890  0.00  0.00    +0.000 C 
ATOM      9  O   UNL     1       5.236   4.453  18.257  0.00  0.00    +0.000 OA
ENDBRANCH   1   9
BRANCH   7  10
ATOM     10  O   UNL     1       3.838   2.403  19.699  0.00  0.00    +0.000 OA
ATOM     11  C   UNL     1       3.552   1.438  18.764  0.00  0.00    +0.000 C 
ENDBRANCH   7  10
BRANCH   3  12
ATOM     12  C   UNL     1       1.986   7.758  19.791  0.00  0.00    +0.000 C 
BRANCH  12  13
ATOM     13  N   UNL     1       1.678   8.133  21.178  0.00  0.00    +0.000 NA
ATOM     14  H   UNL     1       2.446   8.737  21.554  0.00  0.00    +0.000 HD
BRANCH  13  15
ATOM     15  C   UNL     1       0.348   8.745  21.382  0.00  0.00    +0.000 C 
ATOM     16  C   UNL     1       0.398   9.457  22.745  0.00  0.00    +0.000 C 
ATOM     17  C   UNL     1      -0.870  10.146  23.256  0.00  0.00    +0.000 C 
ATOM     18  C   UNL     1      -1.384  11.375  22.481  0.00  0.00    +0.000 C 
ATOM     19  C   UNL     1      -0.292  12.366  22.022  0.00  0.00    +0.000 C 
ATOM     20  C   UNL     1       0.138  12.213  20.544  0.00  0.00    +0.000 C 
ATOM     21  C   UNL     1       0.820  10.925  20.053  0.00  0.00    +0.000 C 
ATOM     22  C   UNL     1      -0.051   9.662  20.197  0.00  0.00    +0.000 C 
ENDBRANCH  13  15
ENDBRANCH  12  13
ENDBRANCH   3  12
TORSDOF 5
ENDMDL
MODEL 3
REMARK VINA RESULT:      -6.7      2.159      3.188
REMARK  Name = 
REMARK  7 active torsions:
REMARK  status: ('A' for Active; 'I' for Inactive)
REMARK    1  A    between atoms: C_1  and  O_2
REMARK    2  A    between atoms: O_2  and  C_3
REMARK    3  A    between atoms: C_5  and  C_6
REMARK    4  A    between atoms: C_6  and  N_7
REMARK    5  A    between atoms: N_7  and  C_8
REMARK    6  A    between atoms: C_19  and  O_20
REMARK    7  A    between atoms: O_20  and  C_21
REMARK                            x       y       z     vdW  Elec       q    Type
REMARK                         _______ _______ _______ _____ _____    ______ ____
ROOT
ATOM      1  C   UNL     1       6.881   5.663  15.958  0.00  0.00    +0.000 A 
ATOM      2  C   UNL     1       5.786   5.229  16.725  0.00  0.00    +0.000 A 
ATOM      3  C   UNL     1       4.935   4.234  16.261  0.00  0.00    +0.000 A 
ATOM      4  C   UNL     1       5.161   3.647  15.012  0.00  0.00    +0.000 A 
ATOM      5  C   UNL     1       6.237   4.059  14.230  0.00  0.00    +0.000 A 
ATOM      6 CL   UNL     1       6.466   3.308  12.661  0.00  0.00    +0.000 Cl
ATOM      7  C   UNL     1       7.113   5.062  14.687  0.00  0.00    +0.000 A 
ENDROOT
BRANCH   1   9
ATOM      8  C   UNL     1       7.523   7.357  17.592  0.00  0.00    +0.000 C 
ATOM      9  O   UNL     1       7.702   6.638  16.425  0.00  0.00    +0.000 OA
ENDBRANCH   1   9
BRANCH   7  10
ATOM     10  O   UNL     1       8.147   5.410  13.870  0.00  0.00    +0.000 OA
ATOM     11  C   UNL     1       8.071   5.841  12.568  0.00  0.00    +0.000 C 
ENDBRANCH   7  10
BRANCH   3  12
ATOM     12  C   UNL     1       3.772   3.823  17.103  0.00  0.00    +0.000 C 
BRANCH  12  13
ATOM     13  N   UNL     1       3.834   2.369  17.314  0.00  0.00    +0.000 NA
ATOM     14  H   UNL     1       4.820   2.042  17.193  0.00  0.00    +0.000 HD
BRANCH  13  15
ATOM     15  C   UNL     1       3.250   1.895  18.587  0.00  0.00    +0.000 C 
ATOM     16  C   UNL     1       4.042   2.581  19.714  0.00  0.00    +0.000 C 
ATOM     17  C   UNL     1       3.693   2.240  21.165  0.00  0.00    +0.000 C 
ATOM     18  C   UNL     1       2.310   2.666  21.694  0.00  0.00    +0.000 C 
ATOM     19  C   UNL     1       1.854   4.080  21.272  0.00  0.00    +0.000 C 
ATOM     20  C   UNL     1       0.875   4.113  20.076  0.00  0.00    +0.000 C 
ATOM     21  C   UNL     1       1.315   3.624  18.685  0.00  0.00    +0.000 C 
ATOM     22  C   UNL     1       1.719   2.138  18.643  0.00  0.00    +0.000 C 
ENDBRANCH  13  15
ENDBRANCH  12  13
ENDBRANCH   3  12
TORSDOF 5
ENDMDL
MODEL 4
REMARK VINA RESULT:      -6.5      4.791      6.859
REMARK  Name = 
REMARK  7 active torsions:
REMARK  status: ('A' for Active; 'I' for Inactive)
REMARK    1  A    between atoms: C_1  and  O_2
REMARK    2  A    between atoms: O_2  and  C_3
REMARK    3  A    between atoms: C_5  and  C_6
REMARK    4  A    between atoms: C_6  and  N_7
REMARK    5  A    between atoms: N_7  and  C_8
REMARK    6  A    between atoms: C_19  and  O_20
REMARK    7  A    between atoms: O_20  and  C_21
REMARK                            x       y       z     vdW  Elec       q    Type
REMARK                         _______ _______ _______ _____ _____    ______ ____
ROOT
ATOM      1  C   UNL     1       0.237  10.055  19.355  0.00  0.00    +0.000 A 
ATOM      2  C   UNL     1       1.163   9.062  18.991  0.00  0.00    +0.000 A 
ATOM      3  C   UNL     1       1.696   8.196  19.937  0.00  0.00    +0.000 A 
ATOM      4  C   UNL     1       1.314   8.305  21.278  0.00  0.00    +0.000 A 
ATOM      5  C   UNL     1       0.399   9.281  21.668  0.00  0.00    +0.000 A 
ATOM      6 CL   UNL     1      -0.033   9.392  23.365  0.00  0.00    +0.000 Cl
ATOM      7  C   UNL     1      -0.155  10.163  20.721  0.00  0.00    +0.000 A 
ENDROOT
BRANCH   1   9
ATOM      8  C   UNL     1      -1.538  10.823  17.868  0.00  0.00    +0.000 C 
ATOM      9  O   UNL     1      -0.272  10.894  18.418  0.00  0.00    +0.000 OA
ENDBRANCH   1   9
BRANCH   7  10
ATOM     10  O   UNL     1      -1.047  11.088  21.174  0.00  0.00    +0.000 OA
ATOM     11  C   UNL     1      -0.785  12.382  21.553  0.00  0.00    +0.000 C 
ENDBRANCH   7  10
BRANCH   3  12
ATOM     12  C   UNL     1       2.694   7.172  19.505  0.00  0.00    +0.000 C 
BRANCH  12  13
ATOM     13  N   UNL     1       2.111   6.377  18.414  0.00  0.00    +0.000 NA
ATOM     14  H   UNL     1       2.255   6.876  17.506  0.00  0.00    +0.000 HD
BRANCH  13  15
ATOM     15  C   UNL     1       2.566   4.972  18.349  0.00  0.00    +0.000 C 
ATOM     16  C   UNL     1       3.781   4.863  19.288  0.00  0.00    +0.000 C 
ATOM     17  C   UNL     1       4.508   3.519  19.389  0.00  0.00    +0.000 C 
ATOM     18  C   UNL     1       3.747   2.334  20.014  0.00  0.00    +0.000 C 
ATOM     19  C   UNL     1       2.917   2.676  21.270  0.00  0.00    +0.000 C 
ATOM     20  C   UNL     1       1.407   2.886  21.009  0.00  0.00    +0.000 C 
ATOM     21  C   UNL     1       0.916   4.046  20.126  0.00  0.00    +0.000 C 
ATOM     22  C   UNL     1       1.419   3.980  18.672  0.00  0.00    +0.000 C 
ENDBRANCH  13  15
ENDBRANCH  12  13
ENDBRANCH   3  12
TORSDOF 5
ENDMDL
MODEL 5
REMARK VINA RESULT:      -6.4      1.528      2.465
REMARK  Name = 
REMARK  7 active torsions:
REMARK  status: ('A' for Active; 'I' for Inactive)
REMARK    1  A    between atoms: C_1  and  O_2
REMARK    2  A    between atoms: O_2  and  C_3
REMARK    3  A    between atoms: C_5  and  C_6
REMARK    4  A    between atoms: C_6  and  N_7
REMARK    5  A    between atoms: N_7  and  C_8
REMARK    6  A    between atoms: C_19  and  O_20
REMARK    7  A    between atoms: O_20  and  C_21
REMARK                            x       y       z     vdW  Elec       q    Type
REMARK                         _______ _______ _______ _____ _____    ______ ____
ROOT
ATOM      1  C   UNL     1       6.293   4.926  18.605  0.00  0.00    +0.000 A 
ATOM      2  C   UNL     1       5.334   3.910  18.761  0.00  0.00    +0.000 A 
ATOM      3  C   UNL     1       4.762   3.288  17.658  0.00  0.00    +0.000 A 
ATOM      4  C   UNL     1       5.138   3.672  16.366  0.00  0.00    +0.000 A 
ATOM      5  C   UNL     1       6.084   4.676  16.183  0.00  0.00    +0.000 A 
ATOM      6 CL   UNL     1       6.506   5.137  14.543  0.00  0.00    +0.000 Cl
ATOM      7  C   UNL     1       6.678   5.313  17.289  0.00  0.00    +0.000 A 
ENDROOT
BRANCH   1   9
ATOM      8  C   UNL     1       8.140   5.369  20.136  0.00  0.00    +0.000 C 
ATOM      9  O   UNL     1       6.840   5.525  19.693  0.00  0.00    +0.000 OA
ENDBRANCH   1   9
BRANCH   7  10
ATOM     10  O   UNL     1       7.599   6.284  17.032  0.00  0.00    +0.000 OA
ATOM     11  C   UNL     1       7.511   7.619  17.340  0.00  0.00    +0.000 C 
ENDBRANCH   7  10
BRANCH   3  12
ATOM     12  C   UNL     1       3.731   2.229  17.874  0.00  0.00    +0.000 C 
BRANCH  12  13
ATOM     13  N   UNL     1       2.483   2.645  17.217  0.00  0.00    +0.000 NA
ATOM     14  H   UNL     1       2.054   1.822  16.735  0.00  0.00    +0.000 HD
BRANCH  13  15
ATOM     15  C   UNL     1       1.514   3.337  18.093  0.00  0.00    +0.000 C 
ATOM     16  C   UNL     1       2.024   3.160  19.534  0.00  0.00    +0.000 C 
ATOM     17  C   UNL     1       1.186   3.733  20.681  0.00  0.00    +0.000 C 
ATOM     18  C   UNL     1       1.046   5.265  20.775  0.00  0.00    +0.000 C 
ATOM     19  C   UNL     1       2.342   6.060  20.508  0.00  0.00    +0.000 C 
ATOM     20  C   UNL     1       2.461   6.640  19.078  0.00  0.00    +0.000 C 
ATOM     21  C   UNL     1       2.545   5.708  17.857  0.00  0.00    +0.000 C 
ATOM     22  C   UNL     1       1.305   4.813  17.667  0.00  0.00    +0.000 C 
ENDBRANCH  13  15
ENDBRANCH  12  13
ENDBRANCH   3  12
TORSDOF 5
ENDMDL
MODEL 6
REMARK VINA RESULT:      -6.4      4.438      6.332
REMARK  Name = 
REMARK  7 active torsions:
REMARK  status: ('A' for Active; 'I' for Inactive)
REMARK    1  A    between atoms: C_1  and  O_2
REMARK    2  A    between atoms: O_2  and  C_3
REMARK    3  A    between atoms: C_5  and  C_6
REMARK    4  A    between atoms: C_6  and  N_7
REMARK    5  A    between atoms: N_7  and  C_8
REMARK    6  A    between atoms: C_19  and  O_20
REMARK    7  A    between atoms: O_20  and  C_21
REMARK                            x       y       z     vdW  Elec       q    Type
REMARK                         _______ _______ _______ _____ _____    ______ ____
ROOT
ATOM      1  C   UNL     1       2.219   4.024  19.979  0.00  0.00    +0.000 A 
ATOM      2  C   UNL     1       1.791   5.362  20.021  0.00  0.00    +0.000 A 
ATOM      3  C   UNL     1       2.559   6.378  19.464  0.00  0.00    +0.000 A 
ATOM      4  C   UNL     1       3.780   6.075  18.851  0.00  0.00    +0.000 A 
ATOM      5  C   UNL     1       4.228   4.758  18.798  0.00  0.00    +0.000 A 
ATOM      6 CL   UNL     1       5.775   4.432  18.038  0.00  0.00    +0.000 Cl
ATOM      7  C   UNL     1       3.460   3.716  19.351  0.00  0.00    +0.000 A 
ENDROOT
BRANCH   1   9
ATOM      8  C   UNL     1       1.545   2.584  21.831  0.00  0.00    +0.000 C 
ATOM      9  O   UNL     1       1.457   3.044  20.530  0.00  0.00    +0.000 OA
ENDBRANCH   1   9
BRANCH   7  10
ATOM     10  O   UNL     1       3.960   2.452  19.257  0.00  0.00    +0.000 OA
ATOM     11  C   UNL     1       3.604   1.481  18.353  0.00  0.00    +0.000 C 
ENDBRANCH   7  10
BRANCH   3  12
ATOM     12  C   UNL     1       2.074   7.787  19.553  0.00  0.00    +0.000 C 
BRANCH  12  13
ATOM     13  N   UNL     1       1.840   8.117  20.966  0.00  0.00    +0.000 NA
ATOM     14  H   UNL     1       2.603   8.746  21.307  0.00  0.00    +0.000 HD
BRANCH  13  15
ATOM     15  C   UNL     1       0.500   8.663  21.269  0.00  0.00    +0.000 C 
ATOM     16  C   UNL     1       0.607   9.344  22.645  0.00  0.00    +0.000 C 
ATOM     17  C   UNL     1      -0.654   9.964  23.253  0.00  0.00    +0.000 C 
ATOM     18  C   UNL     1      -1.271  11.186  22.545  0.00  0.00    +0.000 C 
ATOM     19  C   UNL     1      -0.254  12.235  22.045  0.00  0.00    +0.000 C 
ATOM     20  C   UNL     1       0.087  12.138  20.539  0.00  0.00    +0.000 C 
ATOM     21  C   UNL     1       0.791  10.893  19.972  0.00  0.00    +0.000 C 
ATOM     22  C   UNL     1      -0.013   9.590  20.137  0.00  0.00    +0.000 C 
ENDBRANCH  13  15
ENDBRANCH  12  13
ENDBRANCH   3  12
TORSDOF 5
ENDMDL
MODEL 7
REMARK VINA RESULT:      -6.4      5.090      7.304
REMARK  Name = 
REMARK  7 active torsions:
REMARK  status: ('A' for Active; 'I' for Inactive)
REMARK    1  A    between atoms: C_1  and  O_2
REMARK    2  A    between atoms: O_2  and  C_3
REMARK    3  A    between atoms: C_5  and  C_6
REMARK    4  A    between atoms: C_6  and  N_7
REMARK    5  A    between atoms: N_7  and  C_8
REMARK    6  A    between atoms: C_19  and  O_20
REMARK    7  A    between atoms: O_20  and  C_21
REMARK                            x       y       z     vdW  Elec       q    Type
REMARK                         _______ _______ _______ _____ _____    ______ ____
ROOT
ATOM      1  C   UNL     1       0.129  10.703  19.525  0.00  0.00    +0.000 A 
ATOM      2  C   UNL     1       0.956   9.694  19.003  0.00  0.00    +0.000 A 
ATOM      3  C   UNL     1       1.418   8.659  19.806  0.00  0.00    +0.000 A 
ATOM      4  C   UNL     1       1.061   8.610  21.158  0.00  0.00    +0.000 A 
ATOM      5  C   UNL     1       0.244   9.598  21.701  0.00  0.00    +0.000 A 
ATOM      6 CL   UNL     1      -0.159   9.505  23.406  0.00  0.00    +0.000 Cl
ATOM      7  C   UNL     1      -0.238  10.651  20.900  0.00  0.00    +0.000 A 
ENDROOT
BRANCH   1   9
ATOM      8  C   UNL     1      -1.530  11.752  18.075  0.00  0.00    +0.000 C 
ATOM      9  O   UNL     1      -0.312  11.709  18.726  0.00  0.00    +0.000 OA
ENDBRANCH   1   9
BRANCH   7  10
ATOM     10  O   UNL     1      -1.037  11.578  21.500  0.00  0.00    +0.000 OA
ATOM     11  C   UNL     1      -0.654  12.776  22.050  0.00  0.00    +0.000 C 
ENDBRANCH   7  10
BRANCH   3  12
ATOM     12  C   UNL     1       2.314   7.622  19.212  0.00  0.00    +0.000 C 
BRANCH  12  13
ATOM     13  N   UNL     1       2.603   6.606  20.235  0.00  0.00    +0.000 NA
ATOM     14  H   UNL     1       1.933   6.715  21.031  0.00  0.00    +0.000 HD
BRANCH  13  15
ATOM     15  C   UNL     1       2.650   5.214  19.740  0.00  0.00    +0.000 C 
ATOM     16  C   UNL     1       2.097   5.241  18.305  0.00  0.00    +0.000 C 
ATOM     17  C   UNL     1       1.973   3.918  17.544  0.00  0.00    +0.000 C 
ATOM     18  C   UNL     1       3.271   3.175  17.174  0.00  0.00    +0.000 C 
ATOM     19  C   UNL     1       4.416   4.073  16.657  0.00  0.00    +0.000 C 
ATOM     20  C   UNL     1       5.487   4.427  17.715  0.00  0.00    +0.000 C 
ATOM     21  C   UNL     1       5.123   5.264  18.953  0.00  0.00    +0.000 C 
ATOM     22  C   UNL     1       4.071   4.606  19.866  0.00  0.00    +0.000 C 
ENDBRANCH  13  15
ENDBRANCH  12  13
ENDBRANCH   3  12
TORSDOF 5
ENDMDL
MODEL 8
REMARK VINA RESULT:      -6.2      5.579      7.749
REMARK  Name = 
REMARK  7 active torsions:
REMARK  status: ('A' for Active; 'I' for Inactive)
REMARK    1  A    between atoms: C_1  and  O_2
REMARK    2  A    between atoms: O_2  and  C_3
REMARK    3  A    between atoms: C_5  and  C_6
REMARK    4  A    between atoms: C_6  and  N_7
REMARK    5  A    between atoms: N_7  and  C_8
REMARK    6  A    between atoms: C_19  and  O_20
REMARK    7  A    between atoms: O_20  and  C_21
REMARK                            x       y       z     vdW  Elec       q    Type
REMARK                         _______ _______ _______ _____ _____    ______ ____
ROOT
ATOM      1  C   UNL     1      -0.452  10.545  19.432  0.00  0.00    +0.000 A 
ATOM      2  C   UNL     1       0.355   9.456  19.805  0.00  0.00    +0.000 A 
ATOM      3  C   UNL     1       0.651   9.207  21.139  0.00  0.00    +0.000 A 
ATOM      4  C   UNL     1       0.143  10.046  22.137  0.00  0.00    +0.000 A 
ATOM      5  C   UNL     1      -0.659  11.132  21.795  0.00  0.00    +0.000 A 
ATOM      6 CL   UNL     1      -1.254  12.168  23.080  0.00  0.00    +0.000 Cl
ATOM      7  C   UNL     1      -0.973  11.396  20.448  0.00  0.00    +0.000 A 
ENDROOT
BRANCH   1   9
ATOM      8  C   UNL     1      -1.640  10.078  17.352  0.00  0.00    +0.000 C 
ATOM      9  O   UNL     1      -0.729  10.775  18.123  0.00  0.00    +0.000 OA
ENDBRANCH   1   9
BRANCH   7  10
ATOM     10  O   UNL     1      -1.767  12.474  20.191  0.00  0.00    +0.000 OA
ATOM     11  C   UNL     1      -3.113  12.471  19.919  0.00  0.00    +0.000 C 
ENDBRANCH   7  10
BRANCH   3  12
ATOM     12  C   UNL     1       1.532   8.051  21.485  0.00  0.00    +0.000 C 
BRANCH  12  13
ATOM     13  N   UNL     1       1.860   7.324  20.250  0.00  0.00    +0.000 NA
ATOM     14  H   UNL     1       2.522   7.895  19.676  0.00  0.00    +0.000 HD
BRANCH  13  15
ATOM     15  C   UNL     1       2.352   5.944  20.448  0.00  0.00    +0.000 C 
ATOM     16  C   UNL     1       1.106   5.048  20.558  0.00  0.00    +0.000 C 
ATOM     17  C   UNL     1       1.303   3.552  20.822  0.00  0.00    +0.000 C 
ATOM     18  C   UNL     1       1.978   2.709  19.723  0.00  0.00    +0.000 C 
ATOM     19  C   UNL     1       1.518   3.021  18.282  0.00  0.00    +0.000 C 
ATOM     20  C   UNL     1       2.469   3.946  17.487  0.00  0.00    +0.000 C 
ATOM     21  C   UNL     1       2.711   5.397  17.935  0.00  0.00    +0.000 C 
ATOM     22  C   UNL     1       3.345   5.522  19.334  0.00  0.00    +0.000 C 
ENDBRANCH  13  15
ENDBRANCH  12  13
ENDBRANCH   3  12
TORSDOF 5
ENDMDL
MODEL 9
REMARK VINA RESULT:      -6.2      4.972      7.040
REMARK  Name = 
REMARK  7 active torsions:
REMARK  status: ('A' for Active; 'I' for Inactive)
REMARK    1  A    between atoms: C_1  and  O_2
REMARK    2  A    between atoms: O_2  and  C_3
REMARK    3  A    between atoms: C_5  and  C_6
REMARK    4  A    between atoms: C_6  and  N_7
REMARK    5  A    between atoms: N_7  and  C_8
REMARK    6  A    between atoms: C_19  and  O_20
REMARK    7  A    between atoms: O_20  and  C_21
REMARK                            x       y       z     vdW  Elec       q    Type
REMARK                         _______ _______ _______ _____ _____    ______ ____
ROOT
ATOM      1  C   UNL     1       0.053  10.752  18.964  0.00  0.00    +0.000 A 
ATOM      2  C   UNL     1       0.875   9.874  18.236  0.00  0.00    +0.000 A 
ATOM      3  C   UNL     1       1.538   8.826  18.862  0.00  0.00    +0.000 A 
ATOM      4  C   UNL     1       1.395   8.633  20.240  0.00  0.00    +0.000 A 
ATOM      5  C   UNL     1       0.589   9.488  20.987  0.00  0.00    +0.000 A 
ATOM      6 CL   UNL     1       0.458   9.218  22.715  0.00  0.00    +0.000 Cl
ATOM      7  C   UNL     1      -0.095  10.552  20.367  0.00  0.00    +0.000 A 
ENDROOT
BRANCH   1   9
ATOM      8  C   UNL     1      -1.875  11.737  17.840  0.00  0.00    +0.000 C 
ATOM      9  O   UNL     1      -0.586  11.772  18.337  0.00  0.00    +0.000 OA
ENDBRANCH   1   9
BRANCH   7  10
ATOM     10  O   UNL     1      -0.870  11.344  21.160  0.00  0.00    +0.000 OA
ATOM     11  C   UNL     1      -0.515  12.533  21.749  0.00  0.00    +0.000 C 
ENDBRANCH   7  10
BRANCH   3  12
ATOM     12  C   UNL     1       2.418   7.934  18.050  0.00  0.00    +0.000 C 
BRANCH  12  13
ATOM     13  N   UNL     1       2.852   6.809  18.890  0.00  0.00    +0.000 NA
ATOM     14  H   UNL     1       2.487   6.939  19.862  0.00  0.00    +0.000 HD
BRANCH  13  15
ATOM     15  C   UNL     1       2.532   5.467  18.357  0.00  0.00    +0.000 C 
ATOM     16  C   UNL     1       3.873   4.819  17.971  0.00  0.00    +0.000 C 
ATOM     17  C   UNL     1       3.855   3.427  17.333  0.00  0.00    +0.000 C 
ATOM     18  C   UNL     1       3.377   2.244  18.198  0.00  0.00    +0.000 C 
ATOM     19  C   UNL     1       3.895   2.244  19.652  0.00  0.00    +0.000 C 
ATOM     20  C   UNL     1       2.892   2.789  20.696  0.00  0.00    +0.000 C 
ATOM     21  C   UNL     1       2.431   4.256  20.651  0.00  0.00    +0.000 C 
ATOM     22  C   UNL     1       1.686   4.638  19.358  0.00  0.00    +0.000 C 
ENDBRANCH  13  15
ENDBRANCH  12  13
ENDBRANCH   3  12
TORSDOF 5
ENDMDL
