MODEL 1
REMARK VINA RESULT:      -7.2      0.000      0.000
REMARK  Name = 
REMARK  6 active torsions:
REMARK  status: ('A' for Active; 'I' for Inactive)
REMARK    1  A    between atoms: C_1  and  C_2
REMARK    2  A    between atoms: C_4  and  C_5
REMARK    3  A    between atoms: C_5  and  N_6
REMARK    4  A    between atoms: C_8  and  S_9
REMARK    5  A    between atoms: S_9  and  N_12
REMARK    6  A    between atoms: N_12  and  C_13
REMARK                            x       y       z     vdW  Elec       q    Type
REMARK                         _______ _______ _______ _____ _____    ______ ____
ROOT
ATOM      1  N   UNL     1       4.206   3.941  18.710  0.00  0.00    +0.000 NA
ATOM      2  C   UNL     1       2.956   3.249  18.312  0.00  0.00    +0.000 C 
ATOM      3  C   UNL     1       2.892   2.711  19.764  0.00  0.00    +0.000 C 
ATOM      4  C   UNL     1       4.422   2.873  19.717  0.00  0.00    +0.000 C 
ENDROOT
BRANCH   3   5
ATOM      5  S   UNL     1       1.976   3.808  20.845  0.00  0.00    +0.000 S 
ATOM      6  O   UNL     1       0.643   4.069  20.337  0.00  0.00    +0.000 OA
ATOM      7  O   UNL     1       2.148   3.311  22.194  0.00  0.00    +0.000 OA
BRANCH   5   8
ATOM      8  N   UNL     1       2.735   5.355  20.802  0.00  0.00    +0.000 NA
ATOM      9  H   UNL     1       3.640   5.261  20.339  0.00  0.00    +0.000 HD
BRANCH   8  10
ATOM     10  C   UNL     1       1.919   6.390  20.094  0.00  0.00    +0.000 C 
ATOM     11  C   UNL     1       1.673   7.650  20.913  0.00  0.00    +0.000 C 
ATOM     12  C   UNL     1       1.267   8.681  19.874  0.00  0.00    +0.000 C 
ATOM     13  C   UNL     1       2.029   8.301  18.607  0.00  0.00    +0.000 C 
ATOM     14  C   UNL     1       2.666   6.938  18.880  0.00  0.00    +0.000 C 
ENDBRANCH   8  10
ENDBRANCH   5   8
ENDBRANCH   3   5
BRANCH   1  15
ATOM     15  C   UNL     1       5.201   3.945  17.633  0.00  0.00    +0.000 C 
BRANCH  15  19
ATOM     16  C   UNL     1       7.840   8.147  17.563  0.00  0.00    +0.000 C 
ATOM     17  C   UNL     1       7.294   6.797  17.788  0.00  0.00    +0.000 A 
ATOM     18  N   UNL     1       6.221   6.228  17.289  0.00  0.00    +0.000 NA
ATOM     19  C   UNL     1       6.248   4.986  17.887  0.00  0.00    +0.000 A 
ATOM     20  N   UNL     1       7.312   4.772  18.678  0.00  0.00    +0.000 NA
ATOM     21  O   UNL     1       8.000   5.986  18.628  0.00  0.00    +0.000 OA
ENDBRANCH  15  19
ENDBRANCH   1  15
TORSDOF 5
ENDMDL
MODEL 2
REMARK VINA RESULT:      -7.1      0.946      1.182
REMARK  Name = 
REMARK  6 active torsions:
REMARK  status: ('A' for Active; 'I' for Inactive)
REMARK    1  A    between atoms: C_1  and  C_2
REMARK    2  A    between atoms: C_4  and  C_5
REMARK    3  A    between atoms: C_5  and  N_6
REMARK    4  A    between atoms: C_8  and  S_9
REMARK    5  A    between atoms: S_9  and  N_12
REMARK    6  A    between atoms: N_12  and  C_13
REMARK                            x       y       z     vdW  Elec       q    Type
REMARK                         _______ _______ _______ _____ _____    ______ ____
ROOT
ATOM      1  N   UNL     1       3.997   3.807  18.439  0.00  0.00    +0.000 NA
ATOM      2  C   UNL     1       2.794   2.954  18.287  0.00  0.00    +0.000 C 
ATOM      3  C   UNL     1       2.919   2.654  19.802  0.00  0.00    +0.000 C 
ATOM      4  C   UNL     1       4.413   2.939  19.567  0.00  0.00    +0.000 C 
ENDROOT
BRANCH   3   5
ATOM      5  S   UNL     1       1.998   3.827  20.795  0.00  0.00    +0.000 S 
ATOM      6  O   UNL     1       0.687   4.090  20.233  0.00  0.00    +0.000 OA
ATOM      7  O   UNL     1       2.119   3.399  22.173  0.00  0.00    +0.000 OA
BRANCH   5   8
ATOM      8  N   UNL     1       2.794   5.353  20.693  0.00  0.00    +0.000 NA
ATOM      9  H   UNL     1       3.692   5.221  20.226  0.00  0.00    +0.000 HD
BRANCH   8  10
ATOM     10  C   UNL     1       1.998   6.383  19.957  0.00  0.00    +0.000 C 
ATOM     11  C   UNL     1       1.762   7.663  20.747  0.00  0.00    +0.000 C 
ATOM     12  C   UNL     1       1.378   8.677  19.684  0.00  0.00    +0.000 C 
ATOM     13  C   UNL     1       2.144   8.261  18.432  0.00  0.00    +0.000 C 
ATOM     14  C   UNL     1       2.761   6.896  18.738  0.00  0.00    +0.000 C 
ENDBRANCH   8  10
ENDBRANCH   5   8
ENDBRANCH   3   5
BRANCH   1  15
ATOM     15  C   UNL     1       4.884   3.724  17.274  0.00  0.00    +0.000 C 
BRANCH  15  19
ATOM     16  C   UNL     1       7.695   7.801  17.593  0.00  0.00    +0.000 C 
ATOM     17  C   UNL     1       6.745   6.736  17.226  0.00  0.00    +0.000 A 
ATOM     18  N   UNL     1       6.467   5.607  17.837  0.00  0.00    +0.000 NA
ATOM     19  C   UNL     1       5.522   5.051  17.002  0.00  0.00    +0.000 A 
ATOM     20  N   UNL     1       5.187   5.819  15.952  0.00  0.00    +0.000 NA
ATOM     21  O   UNL     1       6.017   6.933  16.090  0.00  0.00    +0.000 OA
ENDBRANCH  15  19
ENDBRANCH   1  15
TORSDOF 5
ENDMDL
MODEL 3
REMARK VINA RESULT:      -7.0      3.156      6.755
REMARK  Name = 
REMARK  6 active torsions:
REMARK  status: ('A' for Active; 'I' for Inactive)
REMARK    1  A    between atoms: C_1  and  C_2
REMARK    2  A    between atoms: C_4  and  C_5
REMARK    3  A    between atoms: C_5  and  N_6
REMARK    4  A    between atoms: C_8  and  S_9
REMARK    5  A    between atoms: S_9  and  N_12
REMARK    6  A    between atoms: N_12  and  C_13
REMARK                            x       y       z     vdW  Elec       q    Type
REMARK                         _______ _______ _______ _____ _____    ______ ____
ROOT
ATOM      1  N   UNL     1       3.988   5.596  17.540  0.00  0.00    +0.000 NA
ATOM      2  C   UNL     1       4.839   5.544  18.753  0.00  0.00    +0.000 C 
ATOM      3  C   UNL     1       5.681   4.474  18.012  0.00  0.00    +0.000 C 
ATOM      4  C   UNL     1       4.362   4.186  17.272  0.00  0.00    +0.000 C 
ENDROOT
BRANCH   3   5
ATOM      5  S   UNL     1       7.016   5.207  17.068  0.00  0.00    +0.000 S 
ATOM      6  O   UNL     1       7.416   6.490  17.616  0.00  0.00    +0.000 OA
ATOM      7  O   UNL     1       8.006   4.171  16.864  0.00  0.00    +0.000 OA
BRANCH   5   8
ATOM      8  N   UNL     1       6.408   5.607  15.505  0.00  0.00    +0.000 NA
ATOM      9  H   UNL     1       6.821   6.493  15.213  0.00  0.00    +0.000 HD
BRANCH   8  10
ATOM     10  C   UNL     1       6.698   4.561  14.476  0.00  0.00    +0.000 C 
ATOM     11  C   UNL     1       5.460   4.028  13.770  0.00  0.00    +0.000 C 
ATOM     12  C   UNL     1       6.013   3.377  12.514  0.00  0.00    +0.000 C 
ATOM     13  C   UNL     1       7.247   4.195  12.144  0.00  0.00    +0.000 C 
ATOM     14  C   UNL     1       7.504   5.143  13.317  0.00  0.00    +0.000 C 
ENDBRANCH   8  10
ENDBRANCH   5   8
ENDBRANCH   3   5
BRANCH   1  15
ATOM     15  C   UNL     1       2.570   5.777  17.869  0.00  0.00    +0.000 C 
BRANCH  15  19
ATOM     16  C   UNL     1       1.404   2.622  21.517  0.00  0.00    +0.000 C 
ATOM     17  C   UNL     1       1.608   3.331  20.242  0.00  0.00    +0.000 A 
ATOM     18  N   UNL     1       2.197   4.481  20.001  0.00  0.00    +0.000 NA
ATOM     19  C   UNL     1       2.052   4.599  18.636  0.00  0.00    +0.000 A 
ATOM     20  N   UNL     1       1.451   3.553  18.046  0.00  0.00    +0.000 NA
ATOM     21  O   UNL     1       1.137   2.716  19.119  0.00  0.00    +0.000 OA
ENDBRANCH  15  19
ENDBRANCH   1  15
TORSDOF 5
ENDMDL
MODEL 4
REMARK VINA RESULT:      -6.9      3.241      6.750
REMARK  Name = 
REMARK  6 active torsions:
REMARK  status: ('A' for Active; 'I' for Inactive)
REMARK    1  A    between atoms: C_1  and  C_2
REMARK    2  A    between atoms: C_4  and  C_5
REMARK    3  A    between atoms: C_5  and  N_6
REMARK    4  A    between atoms: C_8  and  S_9
REMARK    5  A    between atoms: S_9  and  N_12
REMARK    6  A    between atoms: N_12  and  C_13
REMARK                            x       y       z     vdW  Elec       q    Type
REMARK                         _______ _______ _______ _____ _____    ______ ____
ROOT
ATOM      1  N   UNL     1       4.104   4.870  17.170  0.00  0.00    +0.000 NA
ATOM      2  C   UNL     1       4.466   6.251  17.571  0.00  0.00    +0.000 C 
ATOM      3  C   UNL     1       5.831   5.671  18.022  0.00  0.00    +0.000 C 
ATOM      4  C   UNL     1       5.028   4.372  18.218  0.00  0.00    +0.000 C 
ENDROOT
BRANCH   3   5
ATOM      5  S   UNL     1       7.042   5.704  16.701  0.00  0.00    +0.000 S 
ATOM      6  O   UNL     1       7.793   6.945  16.696  0.00  0.00    +0.000 OA
ATOM      7  O   UNL     1       7.743   4.439  16.740  0.00  0.00    +0.000 OA
BRANCH   5   8
ATOM      8  N   UNL     1       6.193   5.739  15.200  0.00  0.00    +0.000 NA
ATOM      9  H   UNL     1       6.396   6.623  14.732  0.00  0.00    +0.000 HD
BRANCH   8  10
ATOM     10  C   UNL     1       6.553   4.603  14.296  0.00  0.00    +0.000 C 
ATOM     11  C   UNL     1       5.367   4.003  13.554  0.00  0.00    +0.000 C 
ATOM     12  C   UNL     1       6.007   3.242  12.406  0.00  0.00    +0.000 C 
ATOM     13  C   UNL     1       7.266   4.027  12.052  0.00  0.00    +0.000 C 
ATOM     14  C   UNL     1       7.441   5.079  13.148  0.00  0.00    +0.000 C 
ENDBRANCH   8  10
ENDBRANCH   5   8
ENDBRANCH   3   5
BRANCH   1  15
ATOM     15  C   UNL     1       2.694   4.569  17.438  0.00  0.00    +0.000 C 
BRANCH  15  19
ATOM     16  C   UNL     1       1.940   2.563  21.913  0.00  0.00    +0.000 C 
ATOM     17  C   UNL     1       2.144   3.443  20.750  0.00  0.00    +0.000 A 
ATOM     18  N   UNL     1       2.315   3.140  19.483  0.00  0.00    +0.000 NA
ATOM     19  C   UNL     1       2.464   4.383  18.906  0.00  0.00    +0.000 A 
ATOM     20  N   UNL     1       2.339   5.412  19.760  0.00  0.00    +0.000 NA
ATOM     21  O   UNL     1       2.145   4.785  20.993  0.00  0.00    +0.000 OA
ENDBRANCH  15  19
ENDBRANCH   1  15
TORSDOF 5
ENDMDL
MODEL 5
REMARK VINA RESULT:      -6.7      3.190      4.888
REMARK  Name = 
REMARK  6 active torsions:
REMARK  status: ('A' for Active; 'I' for Inactive)
REMARK    1  A    between atoms: C_1  and  C_2
REMARK    2  A    between atoms: C_4  and  C_5
REMARK    3  A    between atoms: C_5  and  N_6
REMARK    4  A    between atoms: C_8  and  S_9
REMARK    5  A    between atoms: S_9  and  N_12
REMARK    6  A    between atoms: N_12  and  C_13
REMARK                            x       y       z     vdW  Elec       q    Type
REMARK                         _______ _______ _______ _____ _____    ______ ____
ROOT
ATOM      1  N   UNL     1       5.761   5.361  17.037  0.00  0.00    +0.000 NA
ATOM      2  C   UNL     1       5.959   6.283  18.182  0.00  0.00    +0.000 C 
ATOM      3  C   UNL     1       4.767   7.099  17.621  0.00  0.00    +0.000 C 
ATOM      4  C   UNL     1       5.208   6.504  16.271  0.00  0.00    +0.000 C 
ENDROOT
BRANCH   3   5
ATOM      5  S   UNL     1       3.201   6.547  18.296  0.00  0.00    +0.000 S 
ATOM      6  O   UNL     1       3.327   6.155  19.687  0.00  0.00    +0.000 OA
ATOM      7  O   UNL     1       2.208   7.528  17.912  0.00  0.00    +0.000 OA
BRANCH   5   8
ATOM      8  N   UNL     1       2.764   5.081  17.501  0.00  0.00    +0.000 NA
ATOM      9  H   UNL     1       3.427   4.911  16.744  0.00  0.00    +0.000 HD
BRANCH   8  10
ATOM     10  C   UNL     1       2.742   3.900  18.418  0.00  0.00    +0.000 C 
ATOM     11  C   UNL     1       1.390   3.204  18.498  0.00  0.00    +0.000 C 
ATOM     12  C   UNL     1       1.721   1.837  19.071  0.00  0.00    +0.000 C 
ATOM     13  C   UNL     1       3.118   1.509  18.553  0.00  0.00    +0.000 C 
ATOM     14  C   UNL     1       3.644   2.785  17.894  0.00  0.00    +0.000 C 
ENDBRANCH   8  10
ENDBRANCH   5   8
ENDBRANCH   3   5
BRANCH   1  15
ATOM     15  C   UNL     1       7.033   4.858  16.507  0.00  0.00    +0.000 C 
BRANCH  15  19
ATOM     16  C   UNL     1       5.750   3.132  12.035  0.00  0.00    +0.000 C 
ATOM     17  C   UNL     1       6.333   3.838  13.189  0.00  0.00    +0.000 A 
ATOM     18  N   UNL     1       6.105   3.686  14.474  0.00  0.00    +0.000 NA
ATOM     19  C   UNL     1       6.937   4.635  15.029  0.00  0.00    +0.000 A 
ATOM     20  N   UNL     1       7.685   5.308  14.141  0.00  0.00    +0.000 NA
ATOM     21  O   UNL     1       7.269   4.791  12.912  0.00  0.00    +0.000 OA
ENDBRANCH  15  19
ENDBRANCH   1  15
TORSDOF 5
ENDMDL
MODEL 6
REMARK VINA RESULT:      -6.6      1.458      1.817
REMARK  Name = 
REMARK  6 active torsions:
REMARK  status: ('A' for Active; 'I' for Inactive)
REMARK    1  A    between atoms: C_1  and  C_2
REMARK    2  A    between atoms: C_4  and  C_5
REMARK    3  A    between atoms: C_5  and  N_6
REMARK    4  A    between atoms: C_8  and  S_9
REMARK    5  A    between atoms: S_9  and  N_12
REMARK    6  A    between atoms: N_12  and  C_13
REMARK                            x       y       z     vdW  Elec       q    Type
REMARK                         _______ _______ _______ _____ _____    ______ ____
ROOT
ATOM      1  N   UNL     1       5.312   4.480  18.301  0.00  0.00    +0.000 NA
ATOM      2  C   UNL     1       4.491   3.836  17.247  0.00  0.00    +0.000 C 
ATOM      3  C   UNL     1       3.584   3.317  18.391  0.00  0.00    +0.000 C 
ATOM      4  C   UNL     1       4.868   3.416  19.233  0.00  0.00    +0.000 C 
ENDROOT
BRANCH   3   5
ATOM      5  S   UNL     1       2.258   4.463  18.765  0.00  0.00    +0.000 S 
ATOM      6  O   UNL     1       1.422   4.712  17.606  0.00  0.00    +0.000 OA
ATOM      7  O   UNL     1       1.656   4.020  20.005  0.00  0.00    +0.000 OA
BRANCH   5   8
ATOM      8  N   UNL     1       2.960   6.003  19.094  0.00  0.00    +0.000 NA
ATOM      9  H   UNL     1       3.831   6.082  18.568  0.00  0.00    +0.000 HD
BRANCH   8  10
ATOM     10  C   UNL     1       2.062   7.146  18.743  0.00  0.00    +0.000 C 
ATOM     11  C   UNL     1       1.763   8.079  19.909  0.00  0.00    +0.000 C 
ATOM     12  C   UNL     1       1.264   9.346  19.237  0.00  0.00    +0.000 C 
ATOM     13  C   UNL     1       2.009   9.421  17.908  0.00  0.00    +0.000 C 
ATOM     14  C   UNL     1       2.736   8.085  17.746  0.00  0.00    +0.000 C 
ENDBRANCH   8  10
ENDBRANCH   5   8
ENDBRANCH   3   5
BRANCH   1  15
ATOM     15  C   UNL     1       6.745   4.432  17.991  0.00  0.00    +0.000 C 
BRANCH  15  19
ATOM     16  C   UNL     1       8.568   9.026  18.423  0.00  0.00    +0.000 C 
ATOM     17  C   UNL     1       8.031   7.731  17.972  0.00  0.00    +0.000 A 
ATOM     18  N   UNL     1       7.649   6.687  18.672  0.00  0.00    +0.000 NA
ATOM     19  C   UNL     1       7.265   5.803  17.687  0.00  0.00    +0.000 A 
ATOM     20  N   UNL     1       7.353   6.288  16.438  0.00  0.00    +0.000 NA
ATOM     21  O   UNL     1       7.882   7.567  16.626  0.00  0.00    +0.000 OA
ENDBRANCH  15  19
ENDBRANCH   1  15
TORSDOF 5
ENDMDL
MODEL 7
REMARK VINA RESULT:      -6.5      2.681      3.457
REMARK  Name = 
REMARK  6 active torsions:
REMARK  status: ('A' for Active; 'I' for Inactive)
REMARK    1  A    between atoms: C_1  and  C_2
REMARK    2  A    between atoms: C_4  and  C_5
REMARK    3  A    between atoms: C_5  and  N_6
REMARK    4  A    between atoms: C_8  and  S_9
REMARK    5  A    between atoms: S_9  and  N_12
REMARK    6  A    between atoms: N_12  and  C_13
REMARK                            x       y       z     vdW  Elec       q    Type
REMARK                         _______ _______ _______ _____ _____    ______ ____
ROOT
ATOM      1  N   UNL     1       5.876   4.740  17.602  0.00  0.00    +0.000 NA
ATOM      2  C   UNL     1       5.985   4.612  19.076  0.00  0.00    +0.000 C 
ATOM      3  C   UNL     1       4.797   5.604  19.164  0.00  0.00    +0.000 C 
ATOM      4  C   UNL     1       5.326   6.102  17.807  0.00  0.00    +0.000 C 
ENDROOT
BRANCH   3   5
ATOM      5  S   UNL     1       3.218   4.758  19.178  0.00  0.00    +0.000 S 
ATOM      6  O   UNL     1       2.770   4.440  17.835  0.00  0.00    +0.000 OA
ATOM      7  O   UNL     1       3.309   3.711  20.173  0.00  0.00    +0.000 OA
BRANCH   5   8
ATOM      8  N   UNL     1       2.025   5.864  19.750  0.00  0.00    +0.000 NA
ATOM      9  H   UNL     1       1.955   5.771  20.764  0.00  0.00    +0.000 HD
BRANCH   8  10
ATOM     10  C   UNL     1       2.327   7.286  19.401  0.00  0.00    +0.000 C 
ATOM     11  C   UNL     1       1.972   7.660  17.968  0.00  0.00    +0.000 C 
ATOM     12  C   UNL     1       1.918   9.178  17.995  0.00  0.00    +0.000 C 
ATOM     13  C   UNL     1       1.438   9.541  19.397  0.00  0.00    +0.000 C 
ATOM     14  C   UNL     1       1.454   8.244  20.208  0.00  0.00    +0.000 C 
ENDBRANCH   8  10
ENDBRANCH   5   8
ENDBRANCH   3   5
BRANCH   1  15
ATOM     15  C   UNL     1       7.188   4.728  16.948  0.00  0.00    +0.000 C 
BRANCH  15  19
ATOM     16  C   UNL     1       5.786   3.412  12.374  0.00  0.00    +0.000 C 
ATOM     17  C   UNL     1       6.387   4.024  13.571  0.00  0.00    +0.000 A 
ATOM     18  N   UNL     1       6.227   3.726  14.841  0.00  0.00    +0.000 NA
ATOM     19  C   UNL     1       7.035   4.656  15.460  0.00  0.00    +0.000 A 
ATOM     20  N   UNL     1       7.706   5.458  14.619  0.00  0.00    +0.000 NA
ATOM     21  O   UNL     1       7.260   5.050  13.360  0.00  0.00    +0.000 OA
ENDBRANCH  15  19
ENDBRANCH   1  15
TORSDOF 5
ENDMDL
MODEL 8
REMARK VINA RESULT:      -6.5      3.306      6.580
REMARK  Name = 
REMARK  6 active torsions:
REMARK  status: ('A' for Active; 'I' for Inactive)
REMARK    1  A    between atoms: C_1  and  C_2
REMARK    2  A    between atoms: C_4  and  C_5
REMARK    3  A    between atoms: C_5  and  N_6
REMARK    4  A    between atoms: C_8  and  S_9
REMARK    5  A    between atoms: S_9  and  N_12
REMARK    6  A    between atoms: N_12  and  C_13
REMARK                            x       y       z     vdW  Elec       q    Type
REMARK                         _______ _______ _______ _____ _____    ______ ____
ROOT
ATOM      1  N   UNL     1       4.789   3.828  17.181  0.00  0.00    +0.000 NA
ATOM      2  C   UNL     1       3.967   5.045  17.388  0.00  0.00    +0.000 C 
ATOM      3  C   UNL     1       5.271   5.743  17.851  0.00  0.00    +0.000 C 
ATOM      4  C   UNL     1       5.701   4.318  18.243  0.00  0.00    +0.000 C 
ENDROOT
BRANCH   3   5
ATOM      5  S   UNL     1       6.134   6.521  16.486  0.00  0.00    +0.000 S 
ATOM      6  O   UNL     1       5.213   6.981  15.464  0.00  0.00    +0.000 OA
ATOM      7  O   UNL     1       7.089   7.444  17.063  0.00  0.00    +0.000 OA
BRANCH   5   8
ATOM      8  N   UNL     1       7.060   5.311  15.681  0.00  0.00    +0.000 NA
ATOM      9  H   UNL     1       6.945   4.428  16.179  0.00  0.00    +0.000 HD
BRANCH   8  10
ATOM     10  C   UNL     1       6.670   5.128  14.248  0.00  0.00    +0.000 C 
ATOM     11  C   UNL     1       7.841   5.172  13.277  0.00  0.00    +0.000 C 
ATOM     12  C   UNL     1       7.292   4.519  12.020  0.00  0.00    +0.000 C 
ATOM     13  C   UNL     1       6.283   3.484  12.510  0.00  0.00    +0.000 C 
ATOM     14  C   UNL     1       6.108   3.729  14.010  0.00  0.00    +0.000 C 
ENDBRANCH   8  10
ENDBRANCH   5   8
ENDBRANCH   3   5
BRANCH   1  15
ATOM     15  C   UNL     1       4.066   2.605  17.544  0.00  0.00    +0.000 C 
BRANCH  15  19
ATOM     16  C   UNL     1       1.806   3.042  21.939  0.00  0.00    +0.000 C 
ATOM     17  C   UNL     1       2.731   2.808  20.817  0.00  0.00    +0.000 A 
ATOM     18  N   UNL     1       2.558   2.997  19.529  0.00  0.00    +0.000 NA
ATOM     19  C   UNL     1       3.767   2.584  19.011  0.00  0.00    +0.000 A 
ATOM     20  N   UNL     1       4.668   2.207  19.933  0.00  0.00    +0.000 NA
ATOM     21  O   UNL     1       3.971   2.338  21.136  0.00  0.00    +0.000 OA
ENDBRANCH  15  19
ENDBRANCH   1  15
TORSDOF 5
ENDMDL
MODEL 9
REMARK VINA RESULT:      -6.5      1.067      1.136
REMARK  Name = 
REMARK  6 active torsions:
REMARK  status: ('A' for Active; 'I' for Inactive)
REMARK    1  A    between atoms: C_1  and  C_2
REMARK    2  A    between atoms: C_4  and  C_5
REMARK    3  A    between atoms: C_5  and  N_6
REMARK    4  A    between atoms: C_8  and  S_9
REMARK    5  A    between atoms: S_9  and  N_12
REMARK    6  A    between atoms: N_12  and  C_13
REMARK                            x       y       z     vdW  Elec       q    Type
REMARK                         _______ _______ _______ _____ _____    ______ ____
ROOT
ATOM      1  N   UNL     1       4.852   4.332  17.963  0.00  0.00    +0.000 NA
ATOM      2  C   UNL     1       3.953   3.303  17.388  0.00  0.00    +0.000 C 
ATOM      3  C   UNL     1       3.538   2.974  18.845  0.00  0.00    +0.000 C 
ATOM      4  C   UNL     1       4.942   3.504  19.189  0.00  0.00    +0.000 C 
ENDROOT
BRANCH   3   5
ATOM      5  S   UNL     1       2.132   3.949  19.376  0.00  0.00    +0.000 S 
ATOM      6  O   UNL     1       1.249   4.262  18.269  0.00  0.00    +0.000 OA
ATOM      7  O   UNL     1       1.601   3.311  20.562  0.00  0.00    +0.000 OA
BRANCH   5   8
ATOM      8  N   UNL     1       2.712   5.493  19.879  0.00  0.00    +0.000 NA
ATOM      9  H   UNL     1       3.716   5.537  19.701  0.00  0.00    +0.000 HD
BRANCH   8  10
ATOM     10  C   UNL     1       2.034   6.630  19.183  0.00  0.00    +0.000 C 
ATOM     11  C   UNL     1       1.766   7.832  20.079  0.00  0.00    +0.000 C 
ATOM     12  C   UNL     1       1.531   8.967  19.099  0.00  0.00    +0.000 C 
ATOM     13  C   UNL     1       2.406   8.647  17.890  0.00  0.00    +0.000 C 
ATOM     14  C   UNL     1       2.937   7.229  18.107  0.00  0.00    +0.000 C 
ENDBRANCH   8  10
ENDBRANCH   5   8
ENDBRANCH   3   5
BRANCH   1  15
ATOM     15  C   UNL     1       6.117   4.433  17.227  0.00  0.00    +0.000 C 
BRANCH  15  19
ATOM     16  C   UNL     1       8.180   8.911  17.784  0.00  0.00    +0.000 C 
ATOM     17  C   UNL     1       7.751   7.506  17.882  0.00  0.00    +0.000 A 
ATOM     18  N   UNL     1       6.925   6.822  17.123  0.00  0.00    +0.000 NA
ATOM     19  C   UNL     1       6.930   5.585  17.732  0.00  0.00    +0.000 A 
ATOM     20  N   UNL     1       7.757   5.486  18.786  0.00  0.00    +0.000 NA
ATOM     21  O   UNL     1       8.290   6.772  18.898  0.00  0.00    +0.000 OA
ENDBRANCH  15  19
ENDBRANCH   1  15
TORSDOF 5
ENDMDL
