MODEL 1
REMARK VINA RESULT:      -6.7      0.000      0.000
REMARK  Name = 
REMARK  7 active torsions:
REMARK  status: ('A' for Active; 'I' for Inactive)
REMARK    1  A    between atoms: C_1  and  C_2
REMARK    2  A    between atoms: C_5  and  C_6
REMARK    3  A    between atoms: C_6  and  N_7
REMARK    4  A    between atoms: N_14  and  C_15
REMARK    5  A    between atoms: C_15  and  C_16
REMARK    6  A    between atoms: C_16  and  C_17
REMARK    7  A    between atoms: C_16  and  C_18
REMARK                            x       y       z     vdW  Elec       q    Type
REMARK                         _______ _______ _______ _____ _____    ______ ____
ROOT
ATOM      1  N   UNL     1       7.502   8.312  18.143  0.00  0.00    +0.000 NA
ATOM      2  C   UNL     1       8.385   7.239  18.598  0.00  0.00    +0.000 C 
ATOM      3  C   UNL     1       7.646   5.919  18.419  0.00  0.00    +0.000 C 
ATOM      4  C   UNL     1       6.458   6.222  17.517  0.00  0.00    +0.000 C 
ATOM      5  C   UNL     1       6.488   7.730  17.252  0.00  0.00    +0.000 C 
ATOM      6  C   UNL     1       5.126   5.828  18.193  0.00  0.00    +0.000 C 
ATOM      7  O   UNL     1       4.756   6.147  19.313  0.00  0.00    +0.000 OA
ATOM      8  N   UNL     1       4.416   5.024  17.287  0.00  0.00    +0.000 N 
ATOM      9  C   UNL     1       5.148   4.818  16.115  0.00  0.00    +0.000 A 
ATOM     10  C   UNL     1       4.791   4.113  14.978  0.00  0.00    +0.000 A 
ATOM     11  C   UNL     1       5.753   3.935  13.983  0.00  0.00    +0.000 A 
ATOM     12  C   UNL     1       7.040   4.472  14.134  0.00  0.00    +0.000 A 
ATOM     13  C   UNL     1       7.369   5.236  15.258  0.00  0.00    +0.000 A 
ATOM     14  C   UNL     1       6.402   5.420  16.235  0.00  0.00    +0.000 A 
ENDROOT
BRANCH   1  15
ATOM     15  C   UNL     1       8.235   9.417  17.503  0.00  0.00    +0.000 C 
BRANCH  15  20
ATOM     16  C   UNL     1      11.582  12.894  19.841  0.00  0.00    +0.000 C 
ATOM     17  C   UNL     1      10.564  11.839  19.576  0.00  0.00    +0.000 A 
ATOM     18  C   UNL     1       9.840  11.104  20.493  0.00  0.00    +0.000 A 
ATOM     19  C   UNL     1       8.951  10.186  19.874  0.00  0.00    +0.000 A 
ATOM     20  C   UNL     1       9.022  10.231  18.495  0.00  0.00    +0.000 A 
ATOM     21  S   UNL     1      10.157  11.407  17.970  0.00  0.00    +0.000 S 
ENDBRANCH  15  20
ENDBRANCH   1  15
BRANCH   8  22
ATOM     22  C   UNL     1       3.178   4.355  17.628  0.00  0.00    +0.000 C 
BRANCH  22  23
ATOM     23  C   UNL     1       3.315   2.872  18.050  0.00  0.00    +0.000 C 
ATOM     24  C   UNL     1       4.161   2.668  19.308  0.00  0.00    +0.000 C 
ATOM     25  C   UNL     1       1.970   2.162  18.218  0.00  0.00    +0.000 C 
ENDBRANCH  22  23
ENDBRANCH   8  22
TORSDOF 4
ENDMDL
MODEL 2
REMARK VINA RESULT:      -6.7      4.792      6.770
REMARK  Name = 
REMARK  7 active torsions:
REMARK  status: ('A' for Active; 'I' for Inactive)
REMARK    1  A    between atoms: C_1  and  C_2
REMARK    2  A    between atoms: C_5  and  C_6
REMARK    3  A    between atoms: C_6  and  N_7
REMARK    4  A    between atoms: N_14  and  C_15
REMARK    5  A    between atoms: C_15  and  C_16
REMARK    6  A    between atoms: C_16  and  C_17
REMARK    7  A    between atoms: C_16  and  C_18
REMARK                            x       y       z     vdW  Elec       q    Type
REMARK                         _______ _______ _______ _____ _____    ______ ____
ROOT
ATOM      1  N   UNL     1       2.097   7.935  19.860  0.00  0.00    +0.000 NA
ATOM      2  C   UNL     1       1.315   8.066  18.632  0.00  0.00    +0.000 C 
ATOM      3  C   UNL     1       1.937   7.154  17.583  0.00  0.00    +0.000 C 
ATOM      4  C   UNL     1       2.877   6.225  18.338  0.00  0.00    +0.000 C 
ATOM      5  C   UNL     1       2.838   6.667  19.804  0.00  0.00    +0.000 C 
ATOM      6  C   UNL     1       4.318   6.320  17.792  0.00  0.00    +0.000 C 
ATOM      7  O   UNL     1       4.964   7.343  17.618  0.00  0.00    +0.000 OA
ATOM      8  N   UNL     1       4.753   5.014  17.520  0.00  0.00    +0.000 N 
ATOM      9  C   UNL     1       3.747   4.081  17.790  0.00  0.00    +0.000 A 
ATOM     10  C   UNL     1       3.787   2.702  17.680  0.00  0.00    +0.000 A 
ATOM     11  C   UNL     1       2.604   1.990  17.880  0.00  0.00    +0.000 A 
ATOM     12  C   UNL     1       1.414   2.663  18.197  0.00  0.00    +0.000 A 
ATOM     13  C   UNL     1       1.401   4.050  18.369  0.00  0.00    +0.000 A 
ATOM     14  C   UNL     1       2.585   4.748  18.181  0.00  0.00    +0.000 A 
ENDROOT
BRANCH   1  15
ATOM     15  C   UNL     1       1.271   8.042  21.074  0.00  0.00    +0.000 C 
BRANCH  15  20
ATOM     16  C   UNL     1      -1.269  12.381  22.939  0.00  0.00    +0.000 C 
ATOM     17  C   UNL     1      -0.440  11.437  22.138  0.00  0.00    +0.000 A 
ATOM     18  C   UNL     1       0.294  11.703  21.000  0.00  0.00    +0.000 A 
ATOM     19  C   UNL     1       0.969  10.555  20.508  0.00  0.00    +0.000 A 
ATOM     20  C   UNL     1       0.729   9.432  21.277  0.00  0.00    +0.000 A 
ATOM     21  S   UNL     1      -0.300   9.794  22.601  0.00  0.00    +0.000 S 
ENDBRANCH  15  20
ENDBRANCH   1  15
BRANCH   8  22
ATOM     22  C   UNL     1       6.011   4.720  16.865  0.00  0.00    +0.000 C 
BRANCH  22  23
ATOM     23  C   UNL     1       6.060   5.021  15.347  0.00  0.00    +0.000 C 
ATOM     24  C   UNL     1       7.479   5.188  14.802  0.00  0.00    +0.000 C 
ATOM     25  C   UNL     1       5.304   3.995  14.501  0.00  0.00    +0.000 C 
ENDBRANCH  22  23
ENDBRANCH   8  22
TORSDOF 4
ENDMDL
MODEL 3
REMARK VINA RESULT:      -6.6      4.544      6.677
REMARK  Name = 
REMARK  7 active torsions:
REMARK  status: ('A' for Active; 'I' for Inactive)
REMARK    1  A    between atoms: C_1  and  C_2
REMARK    2  A    between atoms: C_5  and  C_6
REMARK    3  A    between atoms: C_6  and  N_7
REMARK    4  A    between atoms: N_14  and  C_15
REMARK    5  A    between atoms: C_15  and  C_16
REMARK    6  A    between atoms: C_16  and  C_17
REMARK    7  A    between atoms: C_16  and  C_18
REMARK                            x       y       z     vdW  Elec       q    Type
REMARK                         _______ _______ _______ _____ _____    ______ ____
ROOT
ATOM      1  N   UNL     1       2.168   8.410  19.261  0.00  0.00    +0.000 NA
ATOM      2  C   UNL     1       1.660   8.374  17.891  0.00  0.00    +0.000 C 
ATOM      3  C   UNL     1       2.361   7.235  17.163  0.00  0.00    +0.000 C 
ATOM      4  C   UNL     1       3.020   6.388  18.243  0.00  0.00    +0.000 C 
ATOM      5  C   UNL     1       2.750   7.097  19.574  0.00  0.00    +0.000 C 
ATOM      6  C   UNL     1       4.541   6.262  18.007  0.00  0.00    +0.000 C 
ATOM      7  O   UNL     1       5.324   7.178  17.808  0.00  0.00    +0.000 OA
ATOM      8  N   UNL     1       4.862   4.896  18.053  0.00  0.00    +0.000 N 
ATOM      9  C   UNL     1       3.720   4.116  18.254  0.00  0.00    +0.000 A 
ATOM     10  C   UNL     1       3.617   2.742  18.385  0.00  0.00    +0.000 A 
ATOM     11  C   UNL     1       2.341   2.179  18.445  0.00  0.00    +0.000 A 
ATOM     12  C   UNL     1       1.201   2.995  18.387  0.00  0.00    +0.000 A 
ATOM     13  C   UNL     1       1.319   4.386  18.320  0.00  0.00    +0.000 A 
ATOM     14  C   UNL     1       2.591   4.937  18.275  0.00  0.00    +0.000 A 
ENDROOT
BRANCH   1  15
ATOM     15  C   UNL     1       1.140   8.808  20.238  0.00  0.00    +0.000 C 
BRANCH  15  20
ATOM     16  C   UNL     1      -0.265  13.765  18.750  0.00  0.00    +0.000 C 
ATOM     17  C   UNL     1      -0.269  12.319  19.110  0.00  0.00    +0.000 A 
ATOM     18  C   UNL     1      -1.341  11.450  19.128  0.00  0.00    +0.000 A 
ATOM     19  C   UNL     1      -0.968  10.137  19.519  0.00  0.00    +0.000 A 
ATOM     20  C   UNL     1       0.380  10.032  19.801  0.00  0.00    +0.000 A 
ATOM     21  S   UNL     1       1.181  11.532  19.567  0.00  0.00    +0.000 S 
ENDBRANCH  15  20
ENDBRANCH   1  15
BRANCH   8  22
ATOM     22  C   UNL     1       6.179   4.384  17.739  0.00  0.00    +0.000 C 
BRANCH  22  23
ATOM     23  C   UNL     1       6.490   4.224  16.230  0.00  0.00    +0.000 C 
ATOM     24  C   UNL     1       5.241   4.148  15.351  0.00  0.00    +0.000 C 
ATOM     25  C   UNL     1       7.432   5.302  15.688  0.00  0.00    +0.000 C 
ENDBRANCH  22  23
ENDBRANCH   8  22
TORSDOF 4
ENDMDL
MODEL 4
REMARK VINA RESULT:      -6.6      4.821      6.467
REMARK  Name = 
REMARK  7 active torsions:
REMARK  status: ('A' for Active; 'I' for Inactive)
REMARK    1  A    between atoms: C_1  and  C_2
REMARK    2  A    between atoms: C_5  and  C_6
REMARK    3  A    between atoms: C_6  and  N_7
REMARK    4  A    between atoms: N_14  and  C_15
REMARK    5  A    between atoms: C_15  and  C_16
REMARK    6  A    between atoms: C_16  and  C_17
REMARK    7  A    between atoms: C_16  and  C_18
REMARK                            x       y       z     vdW  Elec       q    Type
REMARK                         _______ _______ _______ _____ _____    ______ ____
ROOT
ATOM      1  N   UNL     1       1.449   8.269  18.421  0.00  0.00    +0.000 NA
ATOM      2  C   UNL     1       2.096   8.110  19.722  0.00  0.00    +0.000 C 
ATOM      3  C   UNL     1       2.851   6.788  19.709  0.00  0.00    +0.000 C 
ATOM      4  C   UNL     1       2.922   6.359  18.251  0.00  0.00    +0.000 C 
ATOM      5  C   UNL     1       2.139   7.405  17.452  0.00  0.00    +0.000 C 
ATOM      6  C   UNL     1       2.301   4.960  18.046  0.00  0.00    +0.000 C 
ATOM      7  O   UNL     1       1.200   4.591  18.426  0.00  0.00    +0.000 OA
ATOM      8  N   UNL     1       3.237   4.180  17.349  0.00  0.00    +0.000 N 
ATOM      9  C   UNL     1       4.412   4.898  17.109  0.00  0.00    +0.000 A 
ATOM     10  C   UNL     1       5.553   4.500  16.435  0.00  0.00    +0.000 A 
ATOM     11  C   UNL     1       6.656   5.355  16.442  0.00  0.00    +0.000 A 
ATOM     12  C   UNL     1       6.595   6.589  17.108  0.00  0.00    +0.000 A 
ATOM     13  C   UNL     1       5.415   7.008  17.731  0.00  0.00    +0.000 A 
ATOM     14  C   UNL     1       4.320   6.157  17.706  0.00  0.00    +0.000 A 
ENDROOT
BRANCH   1  15
ATOM     15  C   UNL     1       1.403   9.673  17.978  0.00  0.00    +0.000 C 
BRANCH  15  20
ATOM     16  C   UNL     1      -2.394  12.793  20.125  0.00  0.00    +0.000 C 
ATOM     17  C   UNL     1      -1.654  11.783  19.318  0.00  0.00    +0.000 A 
ATOM     18  C   UNL     1      -2.155  10.924  18.361  0.00  0.00    +0.000 A 
ATOM     19  C   UNL     1      -1.149  10.100  17.790  0.00  0.00    +0.000 A 
ATOM     20  C   UNL     1       0.100  10.340  18.331  0.00  0.00    +0.000 A 
ATOM     21  S   UNL     1       0.035  11.582  19.514  0.00  0.00    +0.000 S 
ENDBRANCH  15  20
ENDBRANCH   1  15
BRANCH   8  22
ATOM     22  C   UNL     1       3.056   2.766  17.097  0.00  0.00    +0.000 C 
BRANCH  22  23
ATOM     23  C   UNL     1       3.187   1.845  18.335  0.00  0.00    +0.000 C 
ATOM     24  C   UNL     1       4.196   2.347  19.368  0.00  0.00    +0.000 C 
ATOM     25  C   UNL     1       1.850   1.561  19.023  0.00  0.00    +0.000 C 
ENDBRANCH  22  23
ENDBRANCH   8  22
TORSDOF 4
ENDMDL
MODEL 5
REMARK VINA RESULT:      -6.5      5.029      6.900
REMARK  Name = 
REMARK  7 active torsions:
REMARK  status: ('A' for Active; 'I' for Inactive)
REMARK    1  A    between atoms: C_1  and  C_2
REMARK    2  A    between atoms: C_5  and  C_6
REMARK    3  A    between atoms: C_6  and  N_7
REMARK    4  A    between atoms: N_14  and  C_15
REMARK    5  A    between atoms: C_15  and  C_16
REMARK    6  A    between atoms: C_16  and  C_17
REMARK    7  A    between atoms: C_16  and  C_18
REMARK                            x       y       z     vdW  Elec       q    Type
REMARK                         _______ _______ _______ _____ _____    ______ ____
ROOT
ATOM      1  N   UNL     1       1.826   8.325  19.781  0.00  0.00    +0.000 NA
ATOM      2  C   UNL     1       1.033   8.391  18.555  0.00  0.00    +0.000 C 
ATOM      3  C   UNL     1       1.726   7.533  17.504  0.00  0.00    +0.000 C 
ATOM      4  C   UNL     1       2.741   6.684  18.257  0.00  0.00    +0.000 C 
ATOM      5  C   UNL     1       2.669   7.122  19.723  0.00  0.00    +0.000 C 
ATOM      6  C   UNL     1       4.168   6.898  17.707  0.00  0.00    +0.000 C 
ATOM      7  O   UNL     1       4.727   7.970  17.533  0.00  0.00    +0.000 OA
ATOM      8  N   UNL     1       4.708   5.632  17.434  0.00  0.00    +0.000 N 
ATOM      9  C   UNL     1       3.784   4.620  17.706  0.00  0.00    +0.000 A 
ATOM     10  C   UNL     1       3.936   3.248  17.596  0.00  0.00    +0.000 A 
ATOM     11  C   UNL     1       2.816   2.442  17.799  0.00  0.00    +0.000 A 
ATOM     12  C   UNL     1       1.576   3.014  18.118  0.00  0.00    +0.000 A 
ATOM     13  C   UNL     1       1.449   4.396  18.290  0.00  0.00    +0.000 A 
ATOM     14  C   UNL     1       2.571   5.189  18.101  0.00  0.00    +0.000 A 
ENDROOT
BRANCH   1  15
ATOM     15  C   UNL     1       0.996   8.363  20.997  0.00  0.00    +0.000 C 
BRANCH  15  20
ATOM     16  C   UNL     1      -1.424  12.621  23.179  0.00  0.00    +0.000 C 
ATOM     17  C   UNL     1      -0.612  11.718  22.317  0.00  0.00    +0.000 A 
ATOM     18  C   UNL     1       0.155  12.052  21.219  0.00  0.00    +0.000 A 
ATOM     19  C   UNL     1       0.799  10.924  20.643  0.00  0.00    +0.000 A 
ATOM     20  C   UNL     1       0.501   9.750  21.308  0.00  0.00    +0.000 A 
ATOM     21  S   UNL     1      -0.543  10.037  22.639  0.00  0.00    +0.000 S 
ENDBRANCH  15  20
ENDBRANCH   1  15
BRANCH   8  22
ATOM     22  C   UNL     1       5.985   5.443  16.777  0.00  0.00    +0.000 C 
BRANCH  22  23
ATOM     23  C   UNL     1       7.232   5.751  17.641  0.00  0.00    +0.000 C 
ATOM     24  C   UNL     1       7.740   7.186  17.494  0.00  0.00    +0.000 C 
ATOM     25  C   UNL     1       7.039   5.426  19.123  0.00  0.00    +0.000 C 
ENDBRANCH  22  23
ENDBRANCH   8  22
TORSDOF 4
ENDMDL
MODEL 6
REMARK VINA RESULT:      -6.4      4.811      6.181
REMARK  Name = 
REMARK  7 active torsions:
REMARK  status: ('A' for Active; 'I' for Inactive)
REMARK    1  A    between atoms: C_1  and  C_2
REMARK    2  A    between atoms: C_5  and  C_6
REMARK    3  A    between atoms: C_6  and  N_7
REMARK    4  A    between atoms: N_14  and  C_15
REMARK    5  A    between atoms: C_15  and  C_16
REMARK    6  A    between atoms: C_16  and  C_17
REMARK    7  A    between atoms: C_16  and  C_18
REMARK                            x       y       z     vdW  Elec       q    Type
REMARK                         _______ _______ _______ _____ _____    ______ ____
ROOT
ATOM      1  N   UNL     1       1.646   8.335  18.316  0.00  0.00    +0.000 NA
ATOM      2  C   UNL     1       2.166   8.128  19.666  0.00  0.00    +0.000 C 
ATOM      3  C   UNL     1       2.827   6.756  19.707  0.00  0.00    +0.000 C 
ATOM      4  C   UNL     1       2.993   6.326  18.256  0.00  0.00    +0.000 C 
ATOM      5  C   UNL     1       2.354   7.427  17.402  0.00  0.00    +0.000 C 
ATOM      6  C   UNL     1       2.296   4.974  17.988  0.00  0.00    +0.000 C 
ATOM      7  O   UNL     1       1.143   4.682  18.270  0.00  0.00    +0.000 OA
ATOM      8  N   UNL     1       3.232   4.133  17.367  0.00  0.00    +0.000 N 
ATOM      9  C   UNL     1       4.470   4.768  17.234  0.00  0.00    +0.000 A 
ATOM     10  C   UNL     1       5.634   4.293  16.656  0.00  0.00    +0.000 A 
ATOM     11  C   UNL     1       6.789   5.069  16.764  0.00  0.00    +0.000 A 
ATOM     12  C   UNL     1       6.756   6.303  17.432  0.00  0.00    +0.000 A 
ATOM     13  C   UNL     1       5.560   6.801  17.955  0.00  0.00    +0.000 A 
ATOM     14  C   UNL     1       4.414   6.029  17.831  0.00  0.00    +0.000 A 
ENDROOT
BRANCH   1  15
ATOM     15  C   UNL     1       1.735   9.739  17.882  0.00  0.00    +0.000 C 
BRANCH  15  20
ATOM     16  C   UNL     1      -2.664  12.186  19.731  0.00  0.00    +0.000 C 
ATOM     17  C   UNL     1      -1.260  11.756  19.478  0.00  0.00    +0.000 A 
ATOM     18  C   UNL     1      -0.106  12.224  20.073  0.00  0.00    +0.000 A 
ATOM     19  C   UNL     1       1.058  11.573  19.586  0.00  0.00    +0.000 A 
ATOM     20  C   UNL     1       0.770  10.627  18.620  0.00  0.00    +0.000 A 
ATOM     21  S   UNL     1      -0.919  10.528  18.334  0.00  0.00    +0.000 S 
ENDBRANCH  15  20
ENDBRANCH   1  15
BRANCH   8  22
ATOM     22  C   UNL     1       2.976   2.735  17.090  0.00  0.00    +0.000 C 
BRANCH  22  23
ATOM     23  C   UNL     1       3.014   1.793  18.317  0.00  0.00    +0.000 C 
ATOM     24  C   UNL     1       4.106   2.147  19.328  0.00  0.00    +0.000 C 
ATOM     25  C   UNL     1       1.668   1.680  19.037  0.00  0.00    +0.000 C 
ENDBRANCH  22  23
ENDBRANCH   8  22
TORSDOF 4
ENDMDL
MODEL 7
REMARK VINA RESULT:      -6.4      0.788      1.107
REMARK  Name = 
REMARK  7 active torsions:
REMARK  status: ('A' for Active; 'I' for Inactive)
REMARK    1  A    between atoms: C_1  and  C_2
REMARK    2  A    between atoms: C_5  and  C_6
REMARK    3  A    between atoms: C_6  and  N_7
REMARK    4  A    between atoms: N_14  and  C_15
REMARK    5  A    between atoms: C_15  and  C_16
REMARK    6  A    between atoms: C_16  and  C_17
REMARK    7  A    between atoms: C_16  and  C_18
REMARK                            x       y       z     vdW  Elec       q    Type
REMARK                         _______ _______ _______ _____ _____    ______ ____
ROOT
ATOM      1  N   UNL     1       7.525   8.207  18.317  0.00  0.00    +0.000 NA
ATOM      2  C   UNL     1       8.555   7.217  18.628  0.00  0.00    +0.000 C 
ATOM      3  C   UNL     1       7.933   5.834  18.479  0.00  0.00    +0.000 C 
ATOM      4  C   UNL     1       6.625   6.040  17.728  0.00  0.00    +0.000 C 
ATOM      5  C   UNL     1       6.477   7.551  17.522  0.00  0.00    +0.000 C 
ATOM      6  C   UNL     1       5.425   5.493  18.531  0.00  0.00    +0.000 C 
ATOM      7  O   UNL     1       5.157   5.741  19.698  0.00  0.00    +0.000 OA
ATOM      8  N   UNL     1       4.698   4.648  17.679  0.00  0.00    +0.000 N 
ATOM      9  C   UNL     1       5.307   4.551  16.425  0.00  0.00    +0.000 A 
ATOM     10  C   UNL     1       4.892   3.847  15.308  0.00  0.00    +0.000 A 
ATOM     11  C   UNL     1       5.746   3.797  14.205  0.00  0.00    +0.000 A 
ATOM     12  C   UNL     1       6.983   4.457  14.234  0.00  0.00    +0.000 A 
ATOM     13  C   UNL     1       7.363   5.219  15.343  0.00  0.00    +0.000 A 
ATOM     14  C   UNL     1       6.501   5.274  16.429  0.00  0.00    +0.000 A 
ENDROOT
BRANCH   1  15
ATOM     15  C   UNL     1       8.068   9.399  17.645  0.00  0.00    +0.000 C 
BRANCH  15  20
ATOM     16  C   UNL     1      11.704  12.809  19.621  0.00  0.00    +0.000 C 
ATOM     17  C   UNL     1      10.629  11.789  19.464  0.00  0.00    +0.000 A 
ATOM     18  C   UNL     1       9.941  11.119  20.455  0.00  0.00    +0.000 A 
ATOM     19  C   UNL     1       8.976  10.218  19.932  0.00  0.00    +0.000 A 
ATOM     20  C   UNL     1       8.954  10.212  18.550  0.00  0.00    +0.000 A 
ATOM     21  S   UNL     1      10.096  11.320  17.907  0.00  0.00    +0.000 S 
ENDBRANCH  15  20
ENDBRANCH   1  15
BRANCH   8  22
ATOM     22  C   UNL     1       3.578   3.847  18.128  0.00  0.00    +0.000 C 
BRANCH  22  23
ATOM     23  C   UNL     1       2.259   4.619  18.370  0.00  0.00    +0.000 C 
ATOM     24  C   UNL     1       1.118   4.188  17.447  0.00  0.00    +0.000 C 
ATOM     25  C   UNL     1       1.786   4.570  19.825  0.00  0.00    +0.000 C 
ENDBRANCH  22  23
ENDBRANCH   8  22
TORSDOF 4
ENDMDL
MODEL 8
REMARK VINA RESULT:      -6.4      4.731      6.703
REMARK  Name = 
REMARK  7 active torsions:
REMARK  status: ('A' for Active; 'I' for Inactive)
REMARK    1  A    between atoms: C_1  and  C_2
REMARK    2  A    between atoms: C_5  and  C_6
REMARK    3  A    between atoms: C_6  and  N_7
REMARK    4  A    between atoms: N_14  and  C_15
REMARK    5  A    between atoms: C_15  and  C_16
REMARK    6  A    between atoms: C_16  and  C_17
REMARK    7  A    between atoms: C_16  and  C_18
REMARK                            x       y       z     vdW  Elec       q    Type
REMARK                         _______ _______ _______ _____ _____    ______ ____
ROOT
ATOM      1  N   UNL     1       2.150   8.153  19.496  0.00  0.00    +0.000 NA
ATOM      2  C   UNL     1       1.594   8.175  18.144  0.00  0.00    +0.000 C 
ATOM      3  C   UNL     1       2.301   7.098  17.332  0.00  0.00    +0.000 C 
ATOM      4  C   UNL     1       3.021   6.215  18.341  0.00  0.00    +0.000 C 
ATOM      5  C   UNL     1       2.779   6.843  19.717  0.00  0.00    +0.000 C 
ATOM      6  C   UNL     1       4.536   6.146  18.047  0.00  0.00    +0.000 C 
ATOM      7  O   UNL     1       5.286   7.095  17.872  0.00  0.00    +0.000 OA
ATOM      8  N   UNL     1       4.897   4.791  18.008  0.00  0.00    +0.000 N 
ATOM      9  C   UNL     1       3.785   3.967  18.205  0.00  0.00    +0.000 A 
ATOM     10  C   UNL     1       3.725   2.585  18.264  0.00  0.00    +0.000 A 
ATOM     11  C   UNL     1       2.468   1.983  18.337  0.00  0.00    +0.000 A 
ATOM     12  C   UNL     1       1.304   2.765  18.362  0.00  0.00    +0.000 A 
ATOM     13  C   UNL     1       1.381   4.161  18.366  0.00  0.00    +0.000 A 
ATOM     14  C   UNL     1       2.635   4.752  18.309  0.00  0.00    +0.000 A 
ENDROOT
BRANCH   1  15
ATOM     15  C   UNL     1       1.147   8.467  20.527  0.00  0.00    +0.000 C 
BRANCH  15  20
ATOM     16  C   UNL     1      -1.727  12.900  19.605  0.00  0.00    +0.000 C 
ATOM     17  C   UNL     1      -0.667  11.937  20.015  0.00  0.00    +0.000 A 
ATOM     18  C   UNL     1       0.538  12.207  20.631  0.00  0.00    +0.000 A 
ATOM     19  C   UNL     1       1.297  11.033  20.878  0.00  0.00    +0.000 A 
ATOM     20  C   UNL     1       0.660   9.889  20.436  0.00  0.00    +0.000 A 
ATOM     21  S   UNL     1      -0.866  10.258  19.743  0.00  0.00    +0.000 S 
ENDBRANCH  15  20
ENDBRANCH   1  15
BRANCH   8  22
ATOM     22  C   UNL     1       6.216   4.335  17.621  0.00  0.00    +0.000 C 
BRANCH  22  23
ATOM     23  C   UNL     1       6.466   4.231  16.097  0.00  0.00    +0.000 C 
ATOM     24  C   UNL     1       5.182   4.196  15.267  0.00  0.00    +0.000 C 
ATOM     25  C   UNL     1       7.394   5.321  15.559  0.00  0.00    +0.000 C 
ENDBRANCH  22  23
ENDBRANCH   8  22
TORSDOF 4
ENDMDL
MODEL 9
REMARK VINA RESULT:      -6.3      3.997      6.113
REMARK  Name = 
REMARK  7 active torsions:
REMARK  status: ('A' for Active; 'I' for Inactive)
REMARK    1  A    between atoms: C_1  and  C_2
REMARK    2  A    between atoms: C_5  and  C_6
REMARK    3  A    between atoms: C_6  and  N_7
REMARK    4  A    between atoms: N_14  and  C_15
REMARK    5  A    between atoms: C_15  and  C_16
REMARK    6  A    between atoms: C_16  and  C_17
REMARK    7  A    between atoms: C_16  and  C_18
REMARK                            x       y       z     vdW  Elec       q    Type
REMARK                         _______ _______ _______ _____ _____    ______ ____
ROOT
ATOM      1  N   UNL     1       2.156   5.703  19.666  0.00  0.00    +0.000 NA
ATOM      2  C   UNL     1       2.452   4.533  20.491  0.00  0.00    +0.000 C 
ATOM      3  C   UNL     1       3.519   3.715  19.775  0.00  0.00    +0.000 C 
ATOM      4  C   UNL     1       4.090   4.622  18.695  0.00  0.00    +0.000 C 
ATOM      5  C   UNL     1       3.288   5.927  18.757  0.00  0.00    +0.000 C 
ATOM      6  C   UNL     1       3.956   3.982  17.296  0.00  0.00    +0.000 C 
ATOM      7  O   UNL     1       2.940   3.514  16.805  0.00  0.00    +0.000 OA
ATOM      8  N   UNL     1       5.221   4.026  16.690  0.00  0.00    +0.000 N 
ATOM      9  C   UNL     1       6.172   4.587  17.547  0.00  0.00    +0.000 A 
ATOM     10  C   UNL     1       7.515   4.831  17.318  0.00  0.00    +0.000 A 
ATOM     11  C   UNL     1       8.296   5.279  18.384  0.00  0.00    +0.000 A 
ATOM     12  C   UNL     1       7.722   5.487  19.647  0.00  0.00    +0.000 A 
ATOM     13  C   UNL     1       6.351   5.299  19.850  0.00  0.00    +0.000 A 
ATOM     14  C   UNL     1       5.581   4.867  18.781  0.00  0.00    +0.000 A 
ENDROOT
BRANCH   1  15
ATOM     15  C   UNL     1       1.843   6.898  20.467  0.00  0.00    +0.000 C 
BRANCH  15  20
ATOM     16  C   UNL     1       0.574  11.773  18.629  0.00  0.00    +0.000 C 
ATOM     17  C   UNL     1       1.073  10.376  18.765  0.00  0.00    +0.000 A 
ATOM     18  C   UNL     1       1.712   9.604  17.816  0.00  0.00    +0.000 A 
ATOM     19  C   UNL     1       2.051   8.314  18.304  0.00  0.00    +0.000 A 
ATOM     20  C   UNL     1       1.654   8.124  19.614  0.00  0.00    +0.000 A 
ATOM     21  S   UNL     1       0.891   9.528  20.241  0.00  0.00    +0.000 S 
ENDBRANCH  15  20
ENDBRANCH   1  15
BRANCH   8  22
ATOM     22  C   UNL     1       5.512   3.393  15.421  0.00  0.00    +0.000 C 
BRANCH  22  23
ATOM     23  C   UNL     1       5.610   4.346  14.205  0.00  0.00    +0.000 C 
ATOM     24  C   UNL     1       7.020   4.886  13.962  0.00  0.00    +0.000 C 
ATOM     25  C   UNL     1       5.066   3.737  12.911  0.00  0.00    +0.000 C 
ENDBRANCH  22  23
ENDBRANCH   8  22
TORSDOF 4
ENDMDL
