MODEL 1
REMARK VINA RESULT:      -8.1      0.000      0.000
REMARK  Name = 
REMARK  8 active torsions:
REMARK  status: ('A' for Active; 'I' for Inactive)
REMARK    1  A    between atoms: CG1_1  and  CB_2
REMARK    2  A    between atoms: CB_2  and  CG2_3
REMARK    3  A    between atoms: CB_2  and  CA_4
REMARK    4  A    between atoms: CA_4  and  C_5
REMARK    5  A    between atoms: CA_4  and  N_7
REMARK    6  A    between atoms: C_5  and  O_6
REMARK    7  A    between atoms: N_7  and  C_8
REMARK    8  A    between atoms: C_8  and  C_9
REMARK                            x       y       z     vdW  Elec       q    Type
REMARK                         _______ _______ _______ _____ _____    ______ ____
ROOT
ATOM      1  C   UNK A   0       4.336   6.500  16.622  0.00  0.00    +0.000 A 
ATOM      2  C   UNK A   0       3.845   7.773  16.971  0.00  0.00    +0.000 A 
ATOM      3  C   UNK A   0       3.084   7.955  18.120  0.00  0.00    +0.000 A 
ATOM      4  C   UNK A   0       2.688   6.856  18.878  0.00  0.00    +0.000 A 
ATOM      5  C   UNK A   0       1.940   7.043  20.048  0.00  0.00    +0.000 A 
ATOM      6  C   UNK A   0       1.468   5.951  20.770  0.00  0.00    +0.000 A 
ATOM      7  C   UNK A   0       1.742   4.644  20.349  0.00  0.00    +0.000 A 
ATOM      8  C   UNK A   0       1.234   3.539  21.041  0.00  0.00    +0.000 A 
ATOM      9  C   UNK A   0       1.530   2.243  20.626  0.00  0.00    +0.000 A 
ATOM     10  C   UNK A   0       2.356   2.036  19.524  0.00  0.00    +0.000 A 
ATOM     11  C   UNK A   0       2.879   3.120  18.807  0.00  0.00    +0.000 A 
ATOM     12  C   UNK A   0       3.712   2.932  17.704  0.00  0.00    +0.000 A 
ATOM     13  C   UNK A   0       4.197   4.023  16.985  0.00  0.00    +0.000 A 
ATOM     14  C   UNK A   0       3.865   5.353  17.323  0.00  0.00    +0.000 A 
ATOM     15  C   UNK A   0       3.038   5.547  18.458  0.00  0.00    +0.000 A 
ATOM     16  C   UNK A   0       2.552   4.437  19.205  0.00  0.00    +0.000 A 
ENDROOT
BRANCH   1  17
ATOM     17  C   UNK A   0       5.432   6.417  15.576  0.00  0.00    +0.000 C 
BRANCH  17  18
ATOM     18  N   VAL A   1       6.804   6.419  16.116  0.00  0.00    +0.000 NA
ATOM     19  H   VAL A   1       7.123   5.453  16.086  0.00  0.00    +0.000 HD
BRANCH  18  20
ATOM     20  CA  VAL A   1       6.993   6.930  17.505  0.00  0.00    +0.000 C 
BRANCH  20  22
ATOM     21  CG1 VAL A   1       6.607   5.369  19.549  0.00  0.00    +0.000 C 
ATOM     22  CB  VAL A   1       7.529   5.737  18.377  0.00  0.00    +0.000 C 
ATOM     23  CG2 VAL A   1       7.760   4.454  17.560  0.00  0.00    +0.000 C 
ENDBRANCH  20  22
BRANCH  20  24
ATOM     24  C   VAL A   1       7.943   8.166  17.614  0.00  0.00    +0.000 C 
BRANCH  24  25
ATOM     25  O   VAL A   1       8.681   8.242  18.827  0.00  0.00    +0.000 OA
ATOM     26  H   VAL A   1       8.491   7.426  19.322  0.00  0.00    +0.000 HD
ENDBRANCH  24  25
ENDBRANCH  20  24
ENDBRANCH  18  20
ENDBRANCH  17  18
ENDBRANCH   1  17
TORSDOF 6
ENDMDL
MODEL 2
REMARK VINA RESULT:      -7.9      2.872      3.747
REMARK  Name = 
REMARK  8 active torsions:
REMARK  status: ('A' for Active; 'I' for Inactive)
REMARK    1  A    between atoms: CG1_1  and  CB_2
REMARK    2  A    between atoms: CB_2  and  CG2_3
REMARK    3  A    between atoms: CB_2  and  CA_4
REMARK    4  A    between atoms: CA_4  and  C_5
REMARK    5  A    between atoms: CA_4  and  N_7
REMARK    6  A    between atoms: C_5  and  O_6
REMARK    7  A    between atoms: N_7  and  C_8
REMARK    8  A    between atoms: C_8  and  C_9
REMARK                            x       y       z     vdW  Elec       q    Type
REMARK                         _______ _______ _______ _____ _____    ______ ____
ROOT
ATOM      1  C   UNK A   0       5.285   4.780  16.058  0.00  0.00    +0.000 A 
ATOM      2  C   UNK A   0       5.237   6.184  15.951  0.00  0.00    +0.000 A 
ATOM      3  C   UNK A   0       4.527   6.946  16.872  0.00  0.00    +0.000 A 
ATOM      4  C   UNK A   0       3.746   6.323  17.843  0.00  0.00    +0.000 A 
ATOM      5  C   UNK A   0       3.050   7.092  18.783  0.00  0.00    +0.000 A 
ATOM      6  C   UNK A   0       2.202   6.487  19.706  0.00  0.00    +0.000 A 
ATOM      7  C   UNK A   0       2.039   5.097  19.721  0.00  0.00    +0.000 A 
ATOM      8  C   UNK A   0       1.154   4.482  20.614  0.00  0.00    +0.000 A 
ATOM      9  C   UNK A   0       1.013   3.096  20.635  0.00  0.00    +0.000 A 
ATOM     10  C   UNK A   0       1.774   2.306  19.775  0.00  0.00    +0.000 A 
ATOM     11  C   UNK A   0       2.667   2.890  18.867  0.00  0.00    +0.000 A 
ATOM     12  C   UNK A   0       3.440   2.115  18.003  0.00  0.00    +0.000 A 
ATOM     13  C   UNK A   0       4.299   2.716  17.085  0.00  0.00    +0.000 A 
ATOM     14  C   UNK A   0       4.420   4.119  16.976  0.00  0.00    +0.000 A 
ATOM     15  C   UNK A   0       3.654   4.907  17.871  0.00  0.00    +0.000 A 
ATOM     16  C   UNK A   0       2.785   4.299  18.820  0.00  0.00    +0.000 A 
ENDROOT
BRANCH   1  17
ATOM     17  C   UNK A   0       6.338   4.036  15.257  0.00  0.00    +0.000 C 
BRANCH  17  18
ATOM     18  N   VAL A   1       5.948   3.711  13.873  0.00  0.00    +0.000 NA
ATOM     19  H   VAL A   1       5.590   2.759  13.895  0.00  0.00    +0.000 HD
BRANCH  18  20
ATOM     20  CA  VAL A   1       7.010   3.787  12.827  0.00  0.00    +0.000 C 
BRANCH  20  22
ATOM     21  CG1 VAL A   1       7.086   1.743  11.220  0.00  0.00    +0.000 C 
ATOM     22  CB  VAL A   1       6.442   3.103  11.530  0.00  0.00    +0.000 C 
ATOM     23  CG2 VAL A   1       4.921   2.882  11.586  0.00  0.00    +0.000 C 
ENDBRANCH  20  22
BRANCH  20  24
ATOM     24  C   VAL A   1       7.507   5.236  12.516  0.00  0.00    +0.000 C 
BRANCH  24  25
ATOM     25  O   VAL A   1       8.524   5.713  13.388  0.00  0.00    +0.000 OA
ATOM     26  H   VAL A   1       8.626   5.049  14.091  0.00  0.00    +0.000 HD
ENDBRANCH  24  25
ENDBRANCH  20  24
ENDBRANCH  18  20
ENDBRANCH  17  18
ENDBRANCH   1  17
TORSDOF 6
ENDMDL
MODEL 3
REMARK VINA RESULT:      -7.0      3.281      4.165
REMARK  Name = 
REMARK  8 active torsions:
REMARK  status: ('A' for Active; 'I' for Inactive)
REMARK    1  A    between atoms: CG1_1  and  CB_2
REMARK    2  A    between atoms: CB_2  and  CG2_3
REMARK    3  A    between atoms: CB_2  and  CA_4
REMARK    4  A    between atoms: CA_4  and  C_5
REMARK    5  A    between atoms: CA_4  and  N_7
REMARK    6  A    between atoms: C_5  and  O_6
REMARK    7  A    between atoms: N_7  and  C_8
REMARK    8  A    between atoms: C_8  and  C_9
REMARK                            x       y       z     vdW  Elec       q    Type
REMARK                         _______ _______ _______ _____ _____    ______ ____
ROOT
ATOM      1  C   UNK A   0       5.234   4.861  16.033  0.00  0.00    +0.000 A 
ATOM      2  C   UNK A   0       5.184   6.266  15.938  0.00  0.00    +0.000 A 
ATOM      3  C   UNK A   0       4.485   7.020  16.874  0.00  0.00    +0.000 A 
ATOM      4  C   UNK A   0       3.716   6.388  17.849  0.00  0.00    +0.000 A 
ATOM      5  C   UNK A   0       3.031   7.149  18.804  0.00  0.00    +0.000 A 
ATOM      6  C   UNK A   0       2.194   6.535  19.732  0.00  0.00    +0.000 A 
ATOM      7  C   UNK A   0       2.032   5.145  19.737  0.00  0.00    +0.000 A 
ATOM      8  C   UNK A   0       1.158   4.521  20.635  0.00  0.00    +0.000 A 
ATOM      9  C   UNK A   0       1.019   3.135  20.646  0.00  0.00    +0.000 A 
ATOM     10  C   UNK A   0       1.770   2.353  19.771  0.00  0.00    +0.000 A 
ATOM     11  C   UNK A   0       2.652   2.946  18.857  0.00  0.00    +0.000 A 
ATOM     12  C   UNK A   0       3.415   2.178  17.977  0.00  0.00    +0.000 A 
ATOM     13  C   UNK A   0       4.263   2.788  17.054  0.00  0.00    +0.000 A 
ATOM     14  C   UNK A   0       4.381   4.192  16.956  0.00  0.00    +0.000 A 
ATOM     15  C   UNK A   0       3.625   4.972  17.866  0.00  0.00    +0.000 A 
ATOM     16  C   UNK A   0       2.768   4.355  18.820  0.00  0.00    +0.000 A 
ENDROOT
BRANCH   1  17
ATOM     17  C   UNK A   0       6.279   4.125  15.213  0.00  0.00    +0.000 C 
BRANCH  17  18
ATOM     18  N   VAL A   1       5.733   3.218  14.187  0.00  0.00    +0.000 NA
ATOM     19  H   VAL A   1       6.313   2.382  14.210  0.00  0.00    +0.000 HD
BRANCH  18  20
ATOM     20  CA  VAL A   1       5.691   3.719  12.782  0.00  0.00    +0.000 C 
BRANCH  20  22
ATOM     21  CG1 VAL A   1       7.400   2.636  11.148  0.00  0.00    +0.000 C 
ATOM     22  CB  VAL A   1       7.163   3.700  12.231  0.00  0.00    +0.000 C 
ATOM     23  CG2 VAL A   1       7.600   5.052  11.642  0.00  0.00    +0.000 C 
ENDBRANCH  20  22
BRANCH  20  24
ATOM     24  C   VAL A   1       4.737   2.917  11.839  0.00  0.00    +0.000 C 
BRANCH  24  25
ATOM     25  O   VAL A   1       3.923   3.722  10.996  0.00  0.00    +0.000 OA
ATOM     26  H   VAL A   1       4.428   4.531  10.807  0.00  0.00    +0.000 HD
ENDBRANCH  24  25
ENDBRANCH  20  24
ENDBRANCH  18  20
ENDBRANCH  17  18
ENDBRANCH   1  17
TORSDOF 6
ENDMDL
MODEL 4
REMARK VINA RESULT:      -7.0      3.664      5.964
REMARK  Name = 
REMARK  8 active torsions:
REMARK  status: ('A' for Active; 'I' for Inactive)
REMARK    1  A    between atoms: CG1_1  and  CB_2
REMARK    2  A    between atoms: CB_2  and  CG2_3
REMARK    3  A    between atoms: CB_2  and  CA_4
REMARK    4  A    between atoms: CA_4  and  C_5
REMARK    5  A    between atoms: CA_4  and  N_7
REMARK    6  A    between atoms: C_5  and  O_6
REMARK    7  A    between atoms: N_7  and  C_8
REMARK    8  A    between atoms: C_8  and  C_9
REMARK                            x       y       z     vdW  Elec       q    Type
REMARK                         _______ _______ _______ _____ _____    ______ ____
ROOT
ATOM      1  C   UNK A   0       2.075   7.899  19.064  0.00  0.00    +0.000 A 
ATOM      2  C   UNK A   0       2.287   8.586  17.852  0.00  0.00    +0.000 A 
ATOM      3  C   UNK A   0       1.972   9.934  17.732  0.00  0.00    +0.000 A 
ATOM      4  C   UNK A   0       1.322  10.597  18.771  0.00  0.00    +0.000 A 
ATOM      5  C   UNK A   0       1.026  11.961  18.656  0.00  0.00    +0.000 A 
ATOM      6  C   UNK A   0       0.305  12.616  19.650  0.00  0.00    +0.000 A 
ATOM      7  C   UNK A   0      -0.126  11.928  20.790  0.00  0.00    +0.000 A 
ATOM      8  C   UNK A   0      -0.891  12.565  21.774  0.00  0.00    +0.000 A 
ATOM      9  C   UNK A   0      -1.298  11.877  22.915  0.00  0.00    +0.000 A 
ATOM     10  C   UNK A   0      -0.926  10.546  23.095  0.00  0.00    +0.000 A 
ATOM     11  C   UNK A   0      -0.163   9.878  22.128  0.00  0.00    +0.000 A 
ATOM     12  C   UNK A   0       0.222   8.548  22.294  0.00  0.00    +0.000 A 
ATOM     13  C   UNK A   0       0.955   7.891  21.306  0.00  0.00    +0.000 A 
ATOM     14  C   UNK A   0       1.327   8.525  20.101  0.00  0.00    +0.000 A 
ATOM     15  C   UNK A   0       0.956   9.884  19.942  0.00  0.00    +0.000 A 
ATOM     16  C   UNK A   0       0.221  10.565  20.953  0.00  0.00    +0.000 A 
ENDROOT
BRANCH   1  17
ATOM     17  C   UNK A   0       2.749   6.552  19.251  0.00  0.00    +0.000 C 
BRANCH  17  18
ATOM     18  N   VAL A   1       2.931   5.774  18.012  0.00  0.00    +0.000 NA
ATOM     19  H   VAL A   1       2.317   4.966  18.091  0.00  0.00    +0.000 HD
BRANCH  18  20
ATOM     20  CA  VAL A   1       4.307   5.286  17.704  0.00  0.00    +0.000 C 
BRANCH  20  22
ATOM     21  CG1 VAL A   1       6.205   7.012  17.276  0.00  0.00    +0.000 C 
ATOM     22  CB  VAL A   1       4.960   6.314  16.710  0.00  0.00    +0.000 C 
ATOM     23  CG2 VAL A   1       5.366   5.676  15.370  0.00  0.00    +0.000 C 
ENDBRANCH  20  22
BRANCH  20  24
ATOM     24  C   VAL A   1       5.214   5.080  18.961  0.00  0.00    +0.000 C 
BRANCH  24  25
ATOM     25  O   VAL A   1       5.858   3.814  19.025  0.00  0.00    +0.000 OA
ATOM     26  H   VAL A   1       6.798   3.985  19.206  0.00  0.00    +0.000 HD
ENDBRANCH  24  25
ENDBRANCH  20  24
ENDBRANCH  18  20
ENDBRANCH  17  18
ENDBRANCH   1  17
TORSDOF 6
ENDMDL
MODEL 5
REMARK VINA RESULT:      -6.9      3.797      6.546
REMARK  Name = 
REMARK  8 active torsions:
REMARK  status: ('A' for Active; 'I' for Inactive)
REMARK    1  A    between atoms: CG1_1  and  CB_2
REMARK    2  A    between atoms: CB_2  and  CG2_3
REMARK    3  A    between atoms: CB_2  and  CA_4
REMARK    4  A    between atoms: CA_4  and  C_5
REMARK    5  A    between atoms: CA_4  and  N_7
REMARK    6  A    between atoms: C_5  and  O_6
REMARK    7  A    between atoms: N_7  and  C_8
REMARK    8  A    between atoms: C_8  and  C_9
REMARK                            x       y       z     vdW  Elec       q    Type
REMARK                         _______ _______ _______ _____ _____    ______ ____
ROOT
ATOM      1  C   UNK A   0       2.185   7.947  19.082  0.00  0.00    +0.000 A 
ATOM      2  C   UNK A   0       2.293   8.611  17.845  0.00  0.00    +0.000 A 
ATOM      3  C   UNK A   0       1.840   9.916  17.694  0.00  0.00    +0.000 A 
ATOM      4  C   UNK A   0       1.155  10.544  18.732  0.00  0.00    +0.000 A 
ATOM      5  C   UNK A   0       0.718  11.867  18.585  0.00  0.00    +0.000 A 
ATOM      6  C   UNK A   0      -0.038  12.478  19.581  0.00  0.00    +0.000 A 
ATOM      7  C   UNK A   0      -0.366  11.788  20.754  0.00  0.00    +0.000 A 
ATOM      8  C   UNK A   0      -1.164  12.377  21.741  0.00  0.00    +0.000 A 
ATOM      9  C   UNK A   0      -1.468  11.689  22.914  0.00  0.00    +0.000 A 
ATOM     10  C   UNK A   0      -0.957  10.410  23.122  0.00  0.00    +0.000 A 
ATOM     11  C   UNK A   0      -0.157   9.790  22.153  0.00  0.00    +0.000 A 
ATOM     12  C   UNK A   0       0.365   8.512  22.347  0.00  0.00    +0.000 A 
ATOM     13  C   UNK A   0       1.133   7.900  21.357  0.00  0.00    +0.000 A 
ATOM     14  C   UNK A   0       1.406   8.528  20.123  0.00  0.00    +0.000 A 
ATOM     15  C   UNK A   0       0.895   9.837  19.934  0.00  0.00    +0.000 A 
ATOM     16  C   UNK A   0       0.123  10.473  20.946  0.00  0.00    +0.000 A 
ENDROOT
BRANCH   1  17
ATOM     17  C   UNK A   0       2.997   6.681  19.289  0.00  0.00    +0.000 C 
BRANCH  17  18
ATOM     18  N   VAL A   1       2.272   5.428  19.011  0.00  0.00    +0.000 NA
ATOM     19  H   VAL A   1       1.293   5.614  19.220  0.00  0.00    +0.000 HD
BRANCH  18  20
ATOM     20  CA  VAL A   1       2.689   4.212  19.769  0.00  0.00    +0.000 C 
BRANCH  20  22
ATOM     21  CG1 VAL A   1       0.770   2.554  19.196  0.00  0.00    +0.000 C 
ATOM     22  CB  VAL A   1       1.382   3.486  20.252  0.00  0.00    +0.000 C 
ATOM     23  CG2 VAL A   1       1.597   2.650  21.526  0.00  0.00    +0.000 C 
ENDBRANCH  20  22
BRANCH  20  24
ATOM     24  C   VAL A   1       3.601   3.231  18.963  0.00  0.00    +0.000 C 
BRANCH  24  25
ATOM     25  O   VAL A   1       4.909   3.064  19.497  0.00  0.00    +0.000 OA
ATOM     26  H   VAL A   1       5.098   3.855  20.029  0.00  0.00    +0.000 HD
ENDBRANCH  24  25
ENDBRANCH  20  24
ENDBRANCH  18  20
ENDBRANCH  17  18
ENDBRANCH   1  17
TORSDOF 6
ENDMDL
MODEL 6
REMARK VINA RESULT:      -6.9      3.368      6.460
REMARK  Name = 
REMARK  8 active torsions:
REMARK  status: ('A' for Active; 'I' for Inactive)
REMARK    1  A    between atoms: CG1_1  and  CB_2
REMARK    2  A    between atoms: CB_2  and  CG2_3
REMARK    3  A    between atoms: CB_2  and  CA_4
REMARK    4  A    between atoms: CA_4  and  C_5
REMARK    5  A    between atoms: CA_4  and  N_7
REMARK    6  A    between atoms: C_5  and  O_6
REMARK    7  A    between atoms: N_7  and  C_8
REMARK    8  A    between atoms: C_8  and  C_9
REMARK                            x       y       z     vdW  Elec       q    Type
REMARK                         _______ _______ _______ _____ _____    ______ ____
ROOT
ATOM      1  C   UNK A   0       1.888   6.489  20.256  0.00  0.00    +0.000 A 
ATOM      2  C   UNK A   0       1.326   5.295  20.749  0.00  0.00    +0.000 A 
ATOM      3  C   UNK A   0       1.747   4.059  20.274  0.00  0.00    +0.000 A 
ATOM      4  C   UNK A   0       2.644   3.986  19.211  0.00  0.00    +0.000 A 
ATOM      5  C   UNK A   0       3.085   2.739  18.749  0.00  0.00    +0.000 A 
ATOM      6  C   UNK A   0       3.916   2.649  17.635  0.00  0.00    +0.000 A 
ATOM      7  C   UNK A   0       4.338   3.803  16.964  0.00  0.00    +0.000 A 
ATOM      8  C   UNK A   0       5.135   3.722  15.817  0.00  0.00    +0.000 A 
ATOM      9  C   UNK A   0       5.567   4.876  15.168  0.00  0.00    +0.000 A 
ATOM     10  C   UNK A   0       5.223   6.128  15.673  0.00  0.00    +0.000 A 
ATOM     11  C   UNK A   0       4.424   6.245  16.817  0.00  0.00    +0.000 A 
ATOM     12  C   UNK A   0       4.073   7.490  17.339  0.00  0.00    +0.000 A 
ATOM     13  C   UNK A   0       3.251   7.586  18.461  0.00  0.00    +0.000 A 
ATOM     14  C   UNK A   0       2.729   6.445  19.108  0.00  0.00    +0.000 A 
ATOM     15  C   UNK A   0       3.104   5.178  18.594  0.00  0.00    +0.000 A 
ATOM     16  C   UNK A   0       3.954   5.074  17.458  0.00  0.00    +0.000 A 
ENDROOT
BRANCH   1  17
ATOM     17  C   UNK A   0       1.655   7.768  21.041  0.00  0.00    +0.000 C 
BRANCH  17  18
ATOM     18  N   VAL A   1       0.288   8.312  20.945  0.00  0.00    +0.000 NA
ATOM     19  H   VAL A   1      -0.092   7.974  20.064  0.00  0.00    +0.000 HD
BRANCH  18  20
ATOM     20  CA  VAL A   1       0.137   9.796  20.981  0.00  0.00    +0.000 C 
BRANCH  20  22
ATOM     21  CG1 VAL A   1      -1.173  11.671  19.744  0.00  0.00    +0.000 C 
ATOM     22  CB  VAL A   1      -0.677  10.218  19.705  0.00  0.00    +0.000 C 
ATOM     23  CG2 VAL A   1       0.121  10.045  18.401  0.00  0.00    +0.000 C 
ENDBRANCH  20  22
BRANCH  20  24
ATOM     24  C   VAL A   1      -0.543  10.344  22.278  0.00  0.00    +0.000 C 
BRANCH  24  25
ATOM     25  O   VAL A   1       0.119   9.994  23.487  0.00  0.00    +0.000 OA
ATOM     26  H   VAL A   1       0.710  10.734  23.708  0.00  0.00    +0.000 HD
ENDBRANCH  24  25
ENDBRANCH  20  24
ENDBRANCH  18  20
ENDBRANCH  17  18
ENDBRANCH   1  17
TORSDOF 6
ENDMDL
MODEL 7
REMARK VINA RESULT:      -6.9      1.971      4.331
REMARK  Name = 
REMARK  8 active torsions:
REMARK  status: ('A' for Active; 'I' for Inactive)
REMARK    1  A    between atoms: CG1_1  and  CB_2
REMARK    2  A    between atoms: CB_2  and  CG2_3
REMARK    3  A    between atoms: CB_2  and  CA_4
REMARK    4  A    between atoms: CA_4  and  C_5
REMARK    5  A    between atoms: CA_4  and  N_7
REMARK    6  A    between atoms: C_5  and  O_6
REMARK    7  A    between atoms: N_7  and  C_8
REMARK    8  A    between atoms: C_8  and  C_9
REMARK                            x       y       z     vdW  Elec       q    Type
REMARK                         _______ _______ _______ _____ _____    ______ ____
ROOT
ATOM      1  C   UNK A   0       3.580   4.843  18.793  0.00  0.00    +0.000 A 
ATOM      2  C   UNK A   0       3.193   4.261  20.016  0.00  0.00    +0.000 A 
ATOM      3  C   UNK A   0       2.297   4.906  20.861  0.00  0.00    +0.000 A 
ATOM      4  C   UNK A   0       1.866   6.198  20.570  0.00  0.00    +0.000 A 
ATOM      5  C   UNK A   0       0.946   6.837  21.411  0.00  0.00    +0.000 A 
ATOM      6  C   UNK A   0       0.570   8.157  21.177  0.00  0.00    +0.000 A 
ATOM      7  C   UNK A   0       1.093   8.866  20.090  0.00  0.00    +0.000 A 
ATOM      8  C   UNK A   0       0.757  10.207  19.871  0.00  0.00    +0.000 A 
ATOM      9  C   UNK A   0       1.267  10.899  18.775  0.00  0.00    +0.000 A 
ATOM     10  C   UNK A   0       2.103  10.249  17.870  0.00  0.00    +0.000 A 
ATOM     11  C   UNK A   0       2.461   8.908  18.060  0.00  0.00    +0.000 A 
ATOM     12  C   UNK A   0       3.294   8.240  17.162  0.00  0.00    +0.000 A 
ATOM     13  C   UNK A   0       3.664   6.915  17.385  0.00  0.00    +0.000 A 
ATOM     14  C   UNK A   0       3.232   6.196  18.521  0.00  0.00    +0.000 A 
ATOM     15  C   UNK A   0       2.366   6.866  19.423  0.00  0.00    +0.000 A 
ATOM     16  C   UNK A   0       1.973   8.214  19.192  0.00  0.00    +0.000 A 
ENDROOT
BRANCH   1  17
ATOM     17  C   UNK A   0       4.267   3.960  17.766  0.00  0.00    +0.000 C 
BRANCH  17  18
ATOM     18  N   VAL A   1       5.740   4.004  17.799  0.00  0.00    +0.000 NA
ATOM     19  H   VAL A   1       5.997   4.199  18.764  0.00  0.00    +0.000 HD
BRANCH  18  20
ATOM     20  CA  VAL A   1       6.415   5.007  16.924  0.00  0.00    +0.000 C 
BRANCH  20  22
ATOM     21  CG1 VAL A   1       7.449   7.309  17.551  0.00  0.00    +0.000 C 
ATOM     22  CB  VAL A   1       7.440   5.796  17.816  0.00  0.00    +0.000 C 
ATOM     23  CG2 VAL A   1       7.198   5.601  19.323  0.00  0.00    +0.000 C 
ENDBRANCH  20  22
BRANCH  20  24
ATOM     24  C   VAL A   1       7.125   4.396  15.672  0.00  0.00    +0.000 C 
BRANCH  24  25
ATOM     25  O   VAL A   1       7.562   5.352  14.714  0.00  0.00    +0.000 OA
ATOM     26  H   VAL A   1       6.792   5.908  14.501  0.00  0.00    +0.000 HD
ENDBRANCH  24  25
ENDBRANCH  20  24
ENDBRANCH  18  20
ENDBRANCH  17  18
ENDBRANCH   1  17
TORSDOF 6
ENDMDL
MODEL 8
REMARK VINA RESULT:      -6.8      4.238      6.811
REMARK  Name = 
REMARK  8 active torsions:
REMARK  status: ('A' for Active; 'I' for Inactive)
REMARK    1  A    between atoms: CG1_1  and  CB_2
REMARK    2  A    between atoms: CB_2  and  CG2_3
REMARK    3  A    between atoms: CB_2  and  CA_4
REMARK    4  A    between atoms: CA_4  and  C_5
REMARK    5  A    between atoms: CA_4  and  N_7
REMARK    6  A    between atoms: C_5  and  O_6
REMARK    7  A    between atoms: N_7  and  C_8
REMARK    8  A    between atoms: C_8  and  C_9
REMARK                            x       y       z     vdW  Elec       q    Type
REMARK                         _______ _______ _______ _____ _____    ______ ____
ROOT
ATOM      1  C   UNK A   0       1.884   8.081  19.309  0.00  0.00    +0.000 A 
ATOM      2  C   UNK A   0       2.172   8.710  18.082  0.00  0.00    +0.000 A 
ATOM      3  C   UNK A   0       1.913  10.063  17.894  0.00  0.00    +0.000 A 
ATOM      4  C   UNK A   0       1.246  10.791  18.877  0.00  0.00    +0.000 A 
ATOM      5  C   UNK A   0       1.005  12.158  18.696  0.00  0.00    +0.000 A 
ATOM      6  C   UNK A   0       0.268  12.879  19.632  0.00  0.00    +0.000 A 
ATOM      7  C   UNK A   0      -0.236  12.253  20.778  0.00  0.00    +0.000 A 
ATOM      8  C   UNK A   0      -1.017  12.957  21.702  0.00  0.00    +0.000 A 
ATOM      9  C   UNK A   0      -1.497  12.331  22.850  0.00  0.00    +0.000 A 
ATOM     10  C   UNK A   0      -1.183  10.997  23.098  0.00  0.00    +0.000 A 
ATOM     11  C   UNK A   0      -0.406  10.263  22.192  0.00  0.00    +0.000 A 
ATOM     12  C   UNK A   0      -0.078   8.927  22.427  0.00  0.00    +0.000 A 
ATOM     13  C   UNK A   0       0.670   8.205  21.499  0.00  0.00    +0.000 A 
ATOM     14  C   UNK A   0       1.116   8.776  20.287  0.00  0.00    +0.000 A 
ATOM     15  C   UNK A   0       0.804  10.140  20.058  0.00  0.00    +0.000 A 
ATOM     16  C   UNK A   0       0.053  10.886  21.009  0.00  0.00    +0.000 A 
ENDROOT
BRANCH   1  17
ATOM     17  C   UNK A   0       2.498   6.720  19.577  0.00  0.00    +0.000 C 
BRANCH  17  18
ATOM     18  N   VAL A   1       2.636   5.857  18.389  0.00  0.00    +0.000 NA
ATOM     19  H   VAL A   1       2.321   6.413  17.597  0.00  0.00    +0.000 HD
BRANCH  18  20
ATOM     20  CA  VAL A   1       1.882   4.570  18.387  0.00  0.00    +0.000 C 
BRANCH  20  22
ATOM     21  CG1 VAL A   1       4.008   4.053  16.980  0.00  0.00    +0.000 C 
ATOM     22  CB  VAL A   1       2.583   3.616  17.353  0.00  0.00    +0.000 C 
ATOM     23  CG2 VAL A   1       2.668   2.160  17.843  0.00  0.00    +0.000 C 
ENDBRANCH  20  22
BRANCH  20  24
ATOM     24  C   VAL A   1       1.772   3.884  19.787  0.00  0.00    +0.000 C 
BRANCH  24  25
ATOM     25  O   VAL A   1       0.441   3.707  20.257  0.00  0.00    +0.000 OA
ATOM     26  H   VAL A   1       0.485   3.700  21.229  0.00  0.00    +0.000 HD
ENDBRANCH  24  25
ENDBRANCH  20  24
ENDBRANCH  18  20
ENDBRANCH  17  18
ENDBRANCH   1  17
TORSDOF 6
ENDMDL
MODEL 9
REMARK VINA RESULT:      -6.8      4.236      7.051
REMARK  Name = 
REMARK  8 active torsions:
REMARK  status: ('A' for Active; 'I' for Inactive)
REMARK    1  A    between atoms: CG1_1  and  CB_2
REMARK    2  A    between atoms: CB_2  and  CG2_3
REMARK    3  A    between atoms: CB_2  and  CA_4
REMARK    4  A    between atoms: CA_4  and  C_5
REMARK    5  A    between atoms: CA_4  and  N_7
REMARK    6  A    between atoms: C_5  and  O_6
REMARK    7  A    between atoms: N_7  and  C_8
REMARK    8  A    between atoms: C_8  and  C_9
REMARK                            x       y       z     vdW  Elec       q    Type
REMARK                         _______ _______ _______ _____ _____    ______ ____
ROOT
ATOM      1  C   UNK A   0       1.526   8.014  20.030  0.00  0.00    +0.000 A 
ATOM      2  C   UNK A   0       1.934   8.340  18.722  0.00  0.00    +0.000 A 
ATOM      3  C   UNK A   0       1.861   9.647  18.256  0.00  0.00    +0.000 A 
ATOM      4  C   UNK A   0       1.261  10.635  19.034  0.00  0.00    +0.000 A 
ATOM      5  C   UNK A   0       1.208  11.956  18.572  0.00  0.00    +0.000 A 
ATOM      6  C   UNK A   0       0.540  12.936  19.302  0.00  0.00    +0.000 A 
ATOM      7  C   UNK A   0      -0.079  12.623  20.517  0.00  0.00    +0.000 A 
ATOM      8  C   UNK A   0      -0.793  13.589  21.236  0.00  0.00    +0.000 A 
ATOM      9  C   UNK A   0      -1.389  13.273  22.455  0.00  0.00    +0.000 A 
ATOM     10  C   UNK A   0      -1.260  11.989  22.980  0.00  0.00    +0.000 A 
ATOM     11  C   UNK A   0      -0.555  10.998  22.285  0.00  0.00    +0.000 A 
ATOM     12  C   UNK A   0      -0.412   9.709  22.798  0.00  0.00    +0.000 A 
ATOM     13  C   UNK A   0       0.266   8.727  22.077  0.00  0.00    +0.000 A 
ATOM     14  C   UNK A   0       0.823   8.981  20.805  0.00  0.00    +0.000 A 
ATOM     15  C   UNK A   0       0.699  10.297  20.293  0.00  0.00    +0.000 A 
ATOM     16  C   UNK A   0       0.021  11.307  21.031  0.00  0.00    +0.000 A 
ENDROOT
BRANCH   1  17
ATOM     17  C   UNK A   0       1.948   6.671  20.599  0.00  0.00    +0.000 C 
BRANCH  17  18
ATOM     18  N   VAL A   1       3.182   6.113  20.016  0.00  0.00    +0.000 NA
ATOM     19  H   VAL A   1       3.339   6.617  19.147  0.00  0.00    +0.000 HD
BRANCH  18  20
ATOM     20  CA  VAL A   1       3.197   4.651  19.718  0.00  0.00    +0.000 C 
BRANCH  20  22
ATOM     21  CG1 VAL A   1       1.628   4.194  17.695  0.00  0.00    +0.000 C 
ATOM     22  CB  VAL A   1       1.758   4.256  19.224  0.00  0.00    +0.000 C 
ATOM     23  CG2 VAL A   1       1.287   2.899  19.775  0.00  0.00    +0.000 C 
ENDBRANCH  20  22
BRANCH  20  24
ATOM     24  C   VAL A   1       4.278   4.217  18.676  0.00  0.00    +0.000 C 
BRANCH  24  25
ATOM     25  O   VAL A   1       5.137   3.171  19.114  0.00  0.00    +0.000 OA
ATOM     26  H   VAL A   1       5.908   3.173  18.521  0.00  0.00    +0.000 HD
ENDBRANCH  24  25
ENDBRANCH  20  24
ENDBRANCH  18  20
ENDBRANCH  17  18
ENDBRANCH   1  17
TORSDOF 6
ENDMDL
