MODEL 1
REMARK VINA RESULT:      -7.2      0.000      0.000
REMARK  Name = 
REMARK  4 active torsions:
REMARK  status: ('A' for Active; 'I' for Inactive)
REMARK    1  A    between atoms: C_1  and  S_2
REMARK    2  A    between atoms: S_2  and  N_5
REMARK    3  A    between atoms: C_6  and  C_8
REMARK    4  A    between atoms: N_11  and  C_12
REMARK                            x       y       z     vdW  Elec       q    Type
REMARK                         _______ _______ _______ _____ _____    ______ ____
ROOT
ATOM      1  C   UNL     1       6.275   4.419  16.085  0.00  0.00    +0.000 A 
ATOM      2  C   UNL     1       7.144   4.584  17.189  0.00  0.00    +0.000 A 
ATOM      3  C   UNL     1       6.326   4.585  18.290  0.00  0.00    +0.000 A 
ATOM      4  N   UNL     1       5.046   4.340  17.840  0.00  0.00    +0.000 N 
ATOM      5  N   UNL     1       5.001   4.275  16.486  0.00  0.00    +0.000 NA
ENDROOT
BRANCH   4   6
ATOM      6  C   UNL     1       3.869   4.273  18.623  0.00  0.00    +0.000 A 
ATOM      7  C   UNL     1       3.456   5.430  19.311  0.00  0.00    +0.000 A 
ATOM      8  C   UNL     1       2.275   5.421  20.057  0.00  0.00    +0.000 A 
ATOM      9  C   UNL     1       1.516   4.257  20.143  0.00  0.00    +0.000 A 
ATOM     10  C   UNL     1       1.933   3.102  19.481  0.00  0.00    +0.000 A 
ATOM     11  C   UNL     1       3.103   3.101  18.713  0.00  0.00    +0.000 A 
ATOM     12 CL   UNL     1       3.567   1.570  18.049  0.00  0.00    +0.000 Cl
ENDBRANCH   4   6
BRANCH   1  14
ATOM     13  N   UNL     1       5.961   3.549  13.865  0.00  0.00    +0.000 N 
ATOM     14  C   UNL     1       6.663   4.440  14.675  0.00  0.00    +0.000 C 
ATOM     15  O   UNL     1       7.481   5.241  14.242  0.00  0.00    +0.000 OA
ATOM     16  H   UNL     1       5.196   3.005  14.261  0.00  0.00    +0.000 HD
BRANCH  13  18
ATOM     17  C   UNL     1       4.629   3.530  11.555  0.00  0.00    +0.000 C 
ATOM     18  S   UNL     1       6.265   3.380  12.245  0.00  0.00    +0.000 S 
ATOM     19  O   UNL     1       6.697   2.011  12.046  0.00  0.00    +0.000 OA
ATOM     20  O   UNL     1       7.076   4.486  11.793  0.00  0.00    +0.000 OA
ENDBRANCH  13  18
ENDBRANCH   1  14
TORSDOF 3
ENDMDL
MODEL 2
REMARK VINA RESULT:      -7.1      3.827      5.367
REMARK  Name = 
REMARK  4 active torsions:
REMARK  status: ('A' for Active; 'I' for Inactive)
REMARK    1  A    between atoms: C_1  and  S_2
REMARK    2  A    between atoms: S_2  and  N_5
REMARK    3  A    between atoms: C_6  and  C_8
REMARK    4  A    between atoms: N_11  and  C_12
REMARK                            x       y       z     vdW  Elec       q    Type
REMARK                         _______ _______ _______ _____ _____    ______ ____
ROOT
ATOM      1  C   UNL     1       3.724   5.312  19.441  0.00  0.00    +0.000 A 
ATOM      2  C   UNL     1       2.753   4.580  20.163  0.00  0.00    +0.000 A 
ATOM      3  C   UNL     1       1.847   5.515  20.595  0.00  0.00    +0.000 A 
ATOM      4  N   UNL     1       2.238   6.726  20.065  0.00  0.00    +0.000 N 
ATOM      5  N   UNL     1       3.408   6.617  19.388  0.00  0.00    +0.000 NA
ENDROOT
BRANCH   4   6
ATOM      6  C   UNL     1       1.611   7.980  20.263  0.00  0.00    +0.000 A 
ATOM      7  C   UNL     1       1.114   8.287  21.544  0.00  0.00    +0.000 A 
ATOM      8  C   UNL     1       0.532   9.531  21.793  0.00  0.00    +0.000 A 
ATOM      9  C   UNL     1       0.418  10.464  20.767  0.00  0.00    +0.000 A 
ATOM     10  C   UNL     1       0.889  10.157  19.490  0.00  0.00    +0.000 A 
ATOM     11  C   UNL     1       1.493   8.921  19.229  0.00  0.00    +0.000 A 
ATOM     12 CL   UNL     1       1.919   8.626  17.576  0.00  0.00    +0.000 Cl
ENDBRANCH   4   6
BRANCH   1  14
ATOM     13  N   UNL     1       5.627   5.650  18.011  0.00  0.00    +0.000 N 
ATOM     14  C   UNL     1       4.948   4.770  18.852  0.00  0.00    +0.000 C 
ATOM     15  O   UNL     1       5.372   3.661  19.150  0.00  0.00    +0.000 OA
ATOM     16  H   UNL     1       5.295   6.608  17.911  0.00  0.00    +0.000 HD
BRANCH  13  18
ATOM     17  C   UNL     1       6.396   4.080  15.997  0.00  0.00    +0.000 C 
ATOM     18  S   UNL     1       7.014   5.231  17.208  0.00  0.00    +0.000 S 
ATOM     19  O   UNL     1       7.824   4.480  18.147  0.00  0.00    +0.000 OA
ATOM     20  O   UNL     1       7.546   6.392  16.534  0.00  0.00    +0.000 OA
ENDBRANCH  13  18
ENDBRANCH   1  14
TORSDOF 3
ENDMDL
MODEL 3
REMARK VINA RESULT:      -7.1      1.238      1.617
REMARK  Name = 
REMARK  4 active torsions:
REMARK  status: ('A' for Active; 'I' for Inactive)
REMARK    1  A    between atoms: C_1  and  S_2
REMARK    2  A    between atoms: S_2  and  N_5
REMARK    3  A    between atoms: C_6  and  C_8
REMARK    4  A    between atoms: N_11  and  C_12
REMARK                            x       y       z     vdW  Elec       q    Type
REMARK                         _______ _______ _______ _____ _____    ______ ____
ROOT
ATOM      1  C   UNL     1       6.280   4.337  16.028  0.00  0.00    +0.000 A 
ATOM      2  C   UNL     1       7.103   4.624  17.142  0.00  0.00    +0.000 A 
ATOM      3  C   UNL     1       6.272   4.548  18.230  0.00  0.00    +0.000 A 
ATOM      4  N   UNL     1       5.038   4.146  17.766  0.00  0.00    +0.000 N 
ATOM      5  N   UNL     1       5.025   4.052  16.413  0.00  0.00    +0.000 NA
ENDROOT
BRANCH   4   6
ATOM      6  C   UNL     1       3.863   3.957  18.533  0.00  0.00    +0.000 A 
ATOM      7  C   UNL     1       3.585   2.668  19.025  0.00  0.00    +0.000 A 
ATOM      8  C   UNL     1       2.463   2.447  19.826  0.00  0.00    +0.000 A 
ATOM      9  C   UNL     1       1.599   3.499  20.118  0.00  0.00    +0.000 A 
ATOM     10  C   UNL     1       1.858   4.774  19.614  0.00  0.00    +0.000 A 
ATOM     11  C   UNL     1       2.990   5.015  18.826  0.00  0.00    +0.000 A 
ATOM     12 CL   UNL     1       3.122   6.611  18.166  0.00  0.00    +0.000 Cl
ENDBRANCH   4   6
BRANCH   1  14
ATOM     13  N   UNL     1       5.994   3.501  13.792  0.00  0.00    +0.000 N 
ATOM     14  C   UNL     1       6.687   4.378  14.624  0.00  0.00    +0.000 C 
ATOM     15  O   UNL     1       7.514   5.182  14.214  0.00  0.00    +0.000 OA
ATOM     16  H   UNL     1       5.221   2.954  14.170  0.00  0.00    +0.000 HD
BRANCH  13  18
ATOM     17  C   UNL     1       4.690   3.495  11.466  0.00  0.00    +0.000 C 
ATOM     18  S   UNL     1       6.319   3.355  12.174  0.00  0.00    +0.000 S 
ATOM     19  O   UNL     1       6.768   1.993  11.964  0.00  0.00    +0.000 OA
ATOM     20  O   UNL     1       7.123   4.474  11.745  0.00  0.00    +0.000 OA
ENDBRANCH  13  18
ENDBRANCH   1  14
TORSDOF 3
ENDMDL
MODEL 4
REMARK VINA RESULT:      -6.8      3.819      5.104
REMARK  Name = 
REMARK  4 active torsions:
REMARK  status: ('A' for Active; 'I' for Inactive)
REMARK    1  A    between atoms: C_1  and  S_2
REMARK    2  A    between atoms: S_2  and  N_5
REMARK    3  A    between atoms: C_6  and  C_8
REMARK    4  A    between atoms: N_11  and  C_12
REMARK                            x       y       z     vdW  Elec       q    Type
REMARK                         _______ _______ _______ _____ _____    ______ ____
ROOT
ATOM      1  C   UNL     1       3.760   6.313  18.226  0.00  0.00    +0.000 A 
ATOM      2  C   UNL     1       3.249   5.277  19.043  0.00  0.00    +0.000 A 
ATOM      3  C   UNL     1       2.381   5.896  19.905  0.00  0.00    +0.000 A 
ATOM      4  N   UNL     1       2.330   7.225  19.538  0.00  0.00    +0.000 N 
ATOM      5  N   UNL     1       3.201   7.495  18.535  0.00  0.00    +0.000 NA
ENDROOT
BRANCH   4   6
ATOM      6  C   UNL     1       1.579   8.249  20.163  0.00  0.00    +0.000 A 
ATOM      7  C   UNL     1       1.411   8.200  21.560  0.00  0.00    +0.000 A 
ATOM      8  C   UNL     1       0.718   9.216  22.221  0.00  0.00    +0.000 A 
ATOM      9  C   UNL     1       0.168  10.270  21.495  0.00  0.00    +0.000 A 
ATOM     10  C   UNL     1       0.313  10.311  20.109  0.00  0.00    +0.000 A 
ATOM     11  C   UNL     1       1.022   9.311  19.433  0.00  0.00    +0.000 A 
ATOM     12 CL   UNL     1       1.018   9.421  17.705  0.00  0.00    +0.000 Cl
ENDBRANCH   4   6
BRANCH   1  14
ATOM     13  N   UNL     1       5.831   5.305  17.538  0.00  0.00    +0.000 N 
ATOM     14  C   UNL     1       4.792   6.170  17.201  0.00  0.00    +0.000 C 
ATOM     15  O   UNL     1       4.694   6.708  16.105  0.00  0.00    +0.000 OA
ATOM     16  H   UNL     1       5.786   4.780  18.411  0.00  0.00    +0.000 HD
BRANCH  13  18
ATOM     17  C   UNL     1       6.389   4.014  15.273  0.00  0.00    +0.000 C 
ATOM     18  S   UNL     1       7.125   5.025  16.541  0.00  0.00    +0.000 S 
ATOM     19  O   UNL     1       8.046   4.189  17.284  0.00  0.00    +0.000 OA
ATOM     20  O   UNL     1       7.560   6.274  15.962  0.00  0.00    +0.000 OA
ENDBRANCH  13  18
ENDBRANCH   1  14
TORSDOF 3
ENDMDL
MODEL 5
REMARK VINA RESULT:      -6.8      5.498      7.657
REMARK  Name = 
REMARK  4 active torsions:
REMARK  status: ('A' for Active; 'I' for Inactive)
REMARK    1  A    between atoms: C_1  and  S_2
REMARK    2  A    between atoms: S_2  and  N_5
REMARK    3  A    between atoms: C_6  and  C_8
REMARK    4  A    between atoms: N_11  and  C_12
REMARK                            x       y       z     vdW  Elec       q    Type
REMARK                         _______ _______ _______ _____ _____    ______ ____
ROOT
ATOM      1  C   UNL     1       2.598   7.553  18.306  0.00  0.00    +0.000 A 
ATOM      2  C   UNL     1       2.201   6.366  18.965  0.00  0.00    +0.000 A 
ATOM      3  C   UNL     1       3.091   5.409  18.546  0.00  0.00    +0.000 A 
ATOM      4  N   UNL     1       4.016   6.045  17.745  0.00  0.00    +0.000 N 
ATOM      5  N   UNL     1       3.698   7.351  17.562  0.00  0.00    +0.000 NA
ENDROOT
BRANCH   4   6
ATOM      6  C   UNL     1       5.108   5.448  17.072  0.00  0.00    +0.000 A 
ATOM      7  C   UNL     1       4.957   5.113  15.713  0.00  0.00    +0.000 A 
ATOM      8  C   UNL     1       6.025   4.566  15.000  0.00  0.00    +0.000 A 
ATOM      9  C   UNL     1       7.238   4.326  15.639  0.00  0.00    +0.000 A 
ATOM     10  C   UNL     1       7.387   4.636  16.991  0.00  0.00    +0.000 A 
ATOM     11  C   UNL     1       6.331   5.203  17.715  0.00  0.00    +0.000 A 
ATOM     12 CL   UNL     1       6.612   5.421  19.410  0.00  0.00    +0.000 Cl
ENDBRANCH   4   6
BRANCH   1  14
ATOM     13  N   UNL     1       1.233   9.087  19.556  0.00  0.00    +0.000 N 
ATOM     14  C   UNL     1       1.905   8.840  18.361  0.00  0.00    +0.000 C 
ATOM     15  O   UNL     1       1.990   9.658  17.454  0.00  0.00    +0.000 OA
ATOM     16  H   UNL     1       1.314   8.424  20.326  0.00  0.00    +0.000 HD
BRANCH  13  18
ATOM     17  C   UNL     1      -0.223  10.211  21.486  0.00  0.00    +0.000 C 
ATOM     18  S   UNL     1       0.352  10.465  19.820  0.00  0.00    +0.000 S 
ATOM     19  O   UNL     1      -0.802  10.392  18.946  0.00  0.00    +0.000 OA
ATOM     20  O   UNL     1       1.232  11.609  19.789  0.00  0.00    +0.000 OA
ENDBRANCH  13  18
ENDBRANCH   1  14
TORSDOF 3
ENDMDL
MODEL 6
REMARK VINA RESULT:      -6.8      5.333      6.930
REMARK  Name = 
REMARK  4 active torsions:
REMARK  status: ('A' for Active; 'I' for Inactive)
REMARK    1  A    between atoms: C_1  and  S_2
REMARK    2  A    between atoms: S_2  and  N_5
REMARK    3  A    between atoms: C_6  and  C_8
REMARK    4  A    between atoms: N_11  and  C_12
REMARK                            x       y       z     vdW  Elec       q    Type
REMARK                         _______ _______ _______ _____ _____    ______ ____
ROOT
ATOM      1  C   UNL     1       2.657   7.369  18.545  0.00  0.00    +0.000 A 
ATOM      2  C   UNL     1       2.303   8.356  17.596  0.00  0.00    +0.000 A 
ATOM      3  C   UNL     1       1.497   9.234  18.277  0.00  0.00    +0.000 A 
ATOM      4  N   UNL     1       1.464   8.813  19.590  0.00  0.00    +0.000 N 
ATOM      5  N   UNL     1       2.141   7.649  19.753  0.00  0.00    +0.000 NA
ENDROOT
BRANCH   4   6
ATOM      6  C   UNL     1       0.739   9.403  20.652  0.00  0.00    +0.000 A 
ATOM      7  C   UNL     1       0.121   8.558  21.593  0.00  0.00    +0.000 A 
ATOM      8  C   UNL     1      -0.563   9.100  22.683  0.00  0.00    +0.000 A 
ATOM      9  C   UNL     1      -0.660  10.481  22.827  0.00  0.00    +0.000 A 
ATOM     10  C   UNL     1      -0.068  11.323  21.885  0.00  0.00    +0.000 A 
ATOM     11  C   UNL     1       0.638  10.795  20.798  0.00  0.00    +0.000 A 
ATOM     12 CL   UNL     1       1.214  11.949  19.641  0.00  0.00    +0.000 Cl
ENDBRANCH   4   6
BRANCH   1  14
ATOM     13  N   UNL     1       3.190   5.103  19.149  0.00  0.00    +0.000 N 
ATOM     14  C   UNL     1       3.441   6.163  18.280  0.00  0.00    +0.000 C 
ATOM     15  O   UNL     1       4.192   6.080  17.316  0.00  0.00    +0.000 OA
ATOM     16  H   UNL     1       2.452   5.189  19.847  0.00  0.00    +0.000 HD
BRANCH  13  18
ATOM     17  C   UNL     1       3.272   2.756  20.411  0.00  0.00    +0.000 C 
ATOM     18  S   UNL     1       3.993   3.657  19.054  0.00  0.00    +0.000 S 
ATOM     19  O   UNL     1       5.375   3.929  19.398  0.00  0.00    +0.000 OA
ATOM     20  O   UNL     1       3.653   3.002  17.814  0.00  0.00    +0.000 OA
ENDBRANCH  13  18
ENDBRANCH   1  14
TORSDOF 3
ENDMDL
MODEL 7
REMARK VINA RESULT:      -6.7      1.084      1.110
REMARK  Name = 
REMARK  4 active torsions:
REMARK  status: ('A' for Active; 'I' for Inactive)
REMARK    1  A    between atoms: C_1  and  S_2
REMARK    2  A    between atoms: S_2  and  N_5
REMARK    3  A    between atoms: C_6  and  C_8
REMARK    4  A    between atoms: N_11  and  C_12
REMARK                            x       y       z     vdW  Elec       q    Type
REMARK                         _______ _______ _______ _____ _____    ______ ____
ROOT
ATOM      1  C   UNL     1       6.076   4.224  16.108  0.00  0.00    +0.000 A 
ATOM      2  C   UNL     1       6.754   4.615  17.286  0.00  0.00    +0.000 A 
ATOM      3  C   UNL     1       5.837   4.460  18.294  0.00  0.00    +0.000 A 
ATOM      4  N   UNL     1       4.704   3.916  17.726  0.00  0.00    +0.000 N 
ATOM      5  N   UNL     1       4.830   3.805  16.380  0.00  0.00    +0.000 NA
ENDROOT
BRANCH   4   6
ATOM      6  C   UNL     1       3.491   3.604  18.385  0.00  0.00    +0.000 A 
ATOM      7  C   UNL     1       2.303   4.201  17.921  0.00  0.00    +0.000 A 
ATOM      8  C   UNL     1       1.079   3.884  18.512  0.00  0.00    +0.000 A 
ATOM      9  C   UNL     1       1.032   2.994  19.581  0.00  0.00    +0.000 A 
ATOM     10  C   UNL     1       2.208   2.416  20.059  0.00  0.00    +0.000 A 
ATOM     11  C   UNL     1       3.442   2.709  19.464  0.00  0.00    +0.000 A 
ATOM     12 CL   UNL     1       4.831   2.020  20.235  0.00  0.00    +0.000 Cl
ENDBRANCH   4   6
BRANCH   1  14
ATOM     13  N   UNL     1       5.897   3.551  13.807  0.00  0.00    +0.000 N 
ATOM     14  C   UNL     1       6.607   4.294  14.747  0.00  0.00    +0.000 C 
ATOM     15  O   UNL     1       7.552   5.018  14.458  0.00  0.00    +0.000 OA
ATOM     16  H   UNL     1       5.037   3.078  14.084  0.00  0.00    +0.000 HD
BRANCH  13  18
ATOM     17  C   UNL     1       4.763   3.462  11.395  0.00  0.00    +0.000 C 
ATOM     18  S   UNL     1       6.345   3.456  12.214  0.00  0.00    +0.000 S 
ATOM     19  O   UNL     1       6.927   2.143  12.026  0.00  0.00    +0.000 OA
ATOM     20  O   UNL     1       7.074   4.648  11.851  0.00  0.00    +0.000 OA
ENDBRANCH  13  18
ENDBRANCH   1  14
TORSDOF 3
ENDMDL
MODEL 8
REMARK VINA RESULT:      -6.7      4.035      5.709
REMARK  Name = 
REMARK  4 active torsions:
REMARK  status: ('A' for Active; 'I' for Inactive)
REMARK    1  A    between atoms: C_1  and  S_2
REMARK    2  A    between atoms: S_2  and  N_5
REMARK    3  A    between atoms: C_6  and  C_8
REMARK    4  A    between atoms: N_11  and  C_12
REMARK                            x       y       z     vdW  Elec       q    Type
REMARK                         _______ _______ _______ _____ _____    ______ ____
ROOT
ATOM      1  C   UNL     1       3.429   5.316  19.606  0.00  0.00    +0.000 A 
ATOM      2  C   UNL     1       2.409   4.638  20.313  0.00  0.00    +0.000 A 
ATOM      3  C   UNL     1       1.556   5.622  20.742  0.00  0.00    +0.000 A 
ATOM      4  N   UNL     1       2.022   6.812  20.224  0.00  0.00    +0.000 N 
ATOM      5  N   UNL     1       3.191   6.637  19.559  0.00  0.00    +0.000 NA
ENDROOT
BRANCH   4   6
ATOM      6  C   UNL     1       1.469   8.099  20.424  0.00  0.00    +0.000 A 
ATOM      7  C   UNL     1       1.057   8.458  21.721  0.00  0.00    +0.000 A 
ATOM      8  C   UNL     1       0.550   9.735  21.970  0.00  0.00    +0.000 A 
ATOM      9  C   UNL     1       0.426  10.650  20.928  0.00  0.00    +0.000 A 
ATOM     10  C   UNL     1       0.812  10.291  19.637  0.00  0.00    +0.000 A 
ATOM     11  C   UNL     1       1.341   9.022  19.374  0.00  0.00    +0.000 A 
ATOM     12 CL   UNL     1       1.662   8.669  17.710  0.00  0.00    +0.000 Cl
ENDBRANCH   4   6
BRANCH   1  14
ATOM     13  N   UNL     1       5.519   5.609  18.454  0.00  0.00    +0.000 N 
ATOM     14  C   UNL     1       4.625   4.706  19.026  0.00  0.00    +0.000 C 
ATOM     15  O   UNL     1       4.848   3.506  19.118  0.00  0.00    +0.000 OA
ATOM     16  H   UNL     1       5.342   6.610  18.532  0.00  0.00    +0.000 HD
BRANCH  13  18
ATOM     17  C   UNL     1       7.540   6.683  17.086  0.00  0.00    +0.000 C 
ATOM     18  S   UNL     1       6.919   5.134  17.707  0.00  0.00    +0.000 S 
ATOM     19  O   UNL     1       6.526   4.333  16.565  0.00  0.00    +0.000 OA
ATOM     20  O   UNL     1       7.836   4.615  18.695  0.00  0.00    +0.000 OA
ENDBRANCH  13  18
ENDBRANCH   1  14
TORSDOF 3
ENDMDL
MODEL 9
REMARK VINA RESULT:      -6.7      1.506      1.924
REMARK  Name = 
REMARK  4 active torsions:
REMARK  status: ('A' for Active; 'I' for Inactive)
REMARK    1  A    between atoms: C_1  and  S_2
REMARK    2  A    between atoms: S_2  and  N_5
REMARK    3  A    between atoms: C_6  and  C_8
REMARK    4  A    between atoms: N_11  and  C_12
REMARK                            x       y       z     vdW  Elec       q    Type
REMARK                         _______ _______ _______ _____ _____    ______ ____
ROOT
ATOM      1  C   UNL     1       5.833   4.282  15.945  0.00  0.00    +0.000 A 
ATOM      2  C   UNL     1       6.721   4.459  17.032  0.00  0.00    +0.000 A 
ATOM      3  C   UNL     1       5.944   4.327  18.155  0.00  0.00    +0.000 A 
ATOM      4  N   UNL     1       4.675   3.998  17.727  0.00  0.00    +0.000 N 
ATOM      5  N   UNL     1       4.590   4.007  16.374  0.00  0.00    +0.000 NA
ENDROOT
BRANCH   4   6
ATOM      6  C   UNL     1       3.535   3.786  18.539  0.00  0.00    +0.000 A 
ATOM      7  C   UNL     1       3.147   2.462  18.818  0.00  0.00    +0.000 A 
ATOM      8  C   UNL     1       2.058   2.210  19.654  0.00  0.00    +0.000 A 
ATOM      9  C   UNL     1       1.334   3.270  20.193  0.00  0.00    +0.000 A 
ATOM     10  C   UNL     1       1.701   4.583  19.902  0.00  0.00    +0.000 A 
ATOM     11  C   UNL     1       2.803   4.853  19.082  0.00  0.00    +0.000 A 
ATOM     12 CL   UNL     1       3.069   6.522  18.704  0.00  0.00    +0.000 Cl
ENDBRANCH   4   6
BRANCH   1  14
ATOM     13  N   UNL     1       5.606   3.446  13.703  0.00  0.00    +0.000 N 
ATOM     14  C   UNL     1       6.170   4.416  14.529  0.00  0.00    +0.000 C 
ATOM     15  O   UNL     1       6.828   5.359  14.107  0.00  0.00    +0.000 OA
ATOM     16  H   UNL     1       4.955   2.767  14.096  0.00  0.00    +0.000 HD
BRANCH  13  18
ATOM     17  C   UNL     1       6.068   1.634  11.802  0.00  0.00    +0.000 C 
ATOM     18  S   UNL     1       5.886   3.385  12.071  0.00  0.00    +0.000 S 
ATOM     19  O   UNL     1       7.181   3.997  11.850  0.00  0.00    +0.000 OA
ATOM     20  O   UNL     1       4.716   3.856  11.367  0.00  0.00    +0.000 OA
ENDBRANCH  13  18
ENDBRANCH   1  14
TORSDOF 3
ENDMDL
