MODEL 1
REMARK VINA RESULT:      -7.2      0.000      0.000
REMARK  Name = 
REMARK  7 active torsions:
REMARK  status: ('A' for Active; 'I' for Inactive)
REMARK    1  A    between atoms: C_1  and  C_2
REMARK    2  A    between atoms: C_2  and  O_3
REMARK    3  A    between atoms: O_3  and  C_4
REMARK    4  A    between atoms: C_4  and  C_6
REMARK    5  A    between atoms: C_7  and  N_8
REMARK    6  A    between atoms: C_18  and  C_19
REMARK    7  A    between atoms: C_22  and  C_23
REMARK                            x       y       z     vdW  Elec       q    Type
REMARK                         _______ _______ _______ _____ _____    ______ ____
ROOT
ATOM      1  C   UNL     1       0.966  12.245  19.084  0.00  0.00    +0.000 C 
ATOM      2  C   UNL     1       1.927  11.815  18.238  0.00  0.00    +0.000 C 
ATOM      3  O   UNL     1       2.190  10.446  18.092  0.00  0.00    +0.000 OA
ATOM      4  C   UNL     1       1.699   9.558  19.039  0.00  0.00    +0.000 A 
ATOM      5  C   UNL     1       0.759   9.914  19.929  0.00  0.00    +0.000 A 
ATOM      6  C   UNL     1       0.332   8.986  21.000  0.00  0.00    +0.000 A 
ATOM      7  O   UNL     1      -0.452   9.322  21.882  0.00  0.00    +0.000 OA
ATOM      8  N   UNL     1       0.878   7.734  20.980  0.00  0.00    +0.000 N 
ATOM      9  C   UNL     1       1.790   7.297  20.011  0.00  0.00    +0.000 A 
ATOM     10  C   UNL     1       2.236   5.979  20.051  0.00  0.00    +0.000 A 
ATOM     11  C   UNL     1       3.106   5.519  19.065  0.00  0.00    +0.000 A 
ATOM     12  C   UNL     1       3.532   6.373  18.042  0.00  0.00    +0.000 A 
ATOM     13  C   UNL     1       4.442   5.867  16.960  0.00  0.00    +0.000 C 
ATOM     14  C   UNL     1       3.088   7.706  18.023  0.00  0.00    +0.000 A 
ATOM     15  C   UNL     1       2.218   8.183  19.011  0.00  0.00    +0.000 A 
ATOM     16  C   UNL     1       0.116  11.270  19.871  0.00  0.00    +0.000 C 
ATOM     17  H   UNL     1       0.569   7.110  21.711  0.00  0.00    +0.000 HD
ENDROOT
BRANCH  16  18
ATOM     18  C   UNL     1      -1.290  11.163  19.261  0.00  0.00    +0.000 A 
ATOM     19  C   UNL     1      -1.546  10.235  18.241  0.00  0.00    +0.000 A 
ATOM     20  C   UNL     1      -2.808  10.166  17.646  0.00  0.00    +0.000 A 
ATOM     21  C   UNL     1      -3.830  11.018  18.061  0.00  0.00    +0.000 A 
ATOM     22  C   UNL     1      -3.597  11.932  19.083  0.00  0.00    +0.000 A 
ATOM     23  C   UNL     1      -2.340  12.002  19.682  0.00  0.00    +0.000 A 
ENDBRANCH  16  18
BRANCH   2  24
ATOM     24  N   UNL     1       2.711  12.605  17.430  0.00  0.00    +0.000 N 
ATOM     25  H   UNL     1       3.705  12.383  17.509  0.00  0.00    +0.000 HD
ATOM     26  H   UNL     1       2.522  13.593  17.575  0.00  0.00    +0.000 HD
ENDBRANCH   2  24
BRANCH   1  27
ATOM     27  C   UNL     1       0.605  13.663  19.333  0.00  0.00    +0.000 C 
ATOM     28  O   UNL     1       0.135  14.397  18.476  0.00  0.00    +0.000 OA
BRANCH  27  29
ATOM     29  O   UNL     1       1.022  14.059  20.564  0.00  0.00    +0.000 OA
BRANCH  29  31
ATOM     30  C   UNL     1      -0.460  14.026  22.424  0.00  0.00    +0.000 C 
ATOM     31  C   UNL     1       0.077  14.867  21.280  0.00  0.00    +0.000 C 
ENDBRANCH  29  31
ENDBRANCH  27  29
ENDBRANCH   1  27
TORSDOF 5
ENDMDL
MODEL 2
REMARK VINA RESULT:      -7.1      0.851      1.331
REMARK  Name = 
REMARK  7 active torsions:
REMARK  status: ('A' for Active; 'I' for Inactive)
REMARK    1  A    between atoms: C_1  and  C_2
REMARK    2  A    between atoms: C_2  and  O_3
REMARK    3  A    between atoms: O_3  and  C_4
REMARK    4  A    between atoms: C_4  and  C_6
REMARK    5  A    between atoms: C_7  and  N_8
REMARK    6  A    between atoms: C_18  and  C_19
REMARK    7  A    between atoms: C_22  and  C_23
REMARK                            x       y       z     vdW  Elec       q    Type
REMARK                         _______ _______ _______ _____ _____    ______ ____
ROOT
ATOM      1  C   UNL     1       0.853  12.358  19.074  0.00  0.00    +0.000 C 
ATOM      2  C   UNL     1       1.791  11.835  18.254  0.00  0.00    +0.000 C 
ATOM      3  O   UNL     1       1.996  10.451  18.195  0.00  0.00    +0.000 OA
ATOM      4  C   UNL     1       1.474   9.645  19.199  0.00  0.00    +0.000 A 
ATOM      5  C   UNL     1       0.555  10.096  20.067  0.00  0.00    +0.000 A 
ATOM      6  C   UNL     1       0.096   9.257  21.196  0.00  0.00    +0.000 A 
ATOM      7  O   UNL     1      -0.669   9.680  22.057  0.00  0.00    +0.000 OA
ATOM      8  N   UNL     1       0.588   7.984  21.253  0.00  0.00    +0.000 N 
ATOM      9  C   UNL     1       1.476   7.449  20.312  0.00  0.00    +0.000 A 
ATOM     10  C   UNL     1       1.867   6.118  20.434  0.00  0.00    +0.000 A 
ATOM     11  C   UNL     1       2.712   5.561  19.477  0.00  0.00    +0.000 A 
ATOM     12  C   UNL     1       3.168   6.330  18.400  0.00  0.00    +0.000 A 
ATOM     13  C   UNL     1       4.050   5.719  17.350  0.00  0.00    +0.000 C 
ATOM     14  C   UNL     1       2.779   7.676  18.298  0.00  0.00    +0.000 A 
ATOM     15  C   UNL     1       1.935   8.251  19.256  0.00  0.00    +0.000 A 
ATOM     16  C   UNL     1      -0.032  11.471  19.925  0.00  0.00    +0.000 C 
ATOM     17  H   UNL     1       0.258   7.422  22.024  0.00  0.00    +0.000 HD
ENDROOT
BRANCH  16  18
ATOM     18  C   UNL     1      -1.445  11.385  19.326  0.00  0.00    +0.000 A 
ATOM     19  C   UNL     1      -2.475  12.188  19.837  0.00  0.00    +0.000 A 
ATOM     20  C   UNL     1      -3.774  12.081  19.333  0.00  0.00    +0.000 A 
ATOM     21  C   UNL     1      -4.061  11.174  18.314  0.00  0.00    +0.000 A 
ATOM     22  C   UNL     1      -3.047  10.383  17.785  0.00  0.00    +0.000 A 
ATOM     23  C   UNL     1      -1.748  10.490  18.283  0.00  0.00    +0.000 A 
ENDBRANCH  16  18
BRANCH   2  24
ATOM     24  N   UNL     1       2.603  12.540  17.396  0.00  0.00    +0.000 N 
ATOM     25  H   UNL     1       2.749  12.055  16.509  0.00  0.00    +0.000 HD
ATOM     26  H   UNL     1       3.476  12.808  17.841  0.00  0.00    +0.000 HD
ENDBRANCH   2  24
BRANCH   1  27
ATOM     27  C   UNL     1       0.553  13.803  19.234  0.00  0.00    +0.000 C 
ATOM     28  O   UNL     1       0.027  14.480  18.363  0.00  0.00    +0.000 OA
BRANCH  27  29
ATOM     29  O   UNL     1       1.088  14.284  20.386  0.00  0.00    +0.000 OA
BRANCH  29  31
ATOM     30  C   UNL     1       3.366  14.140  21.055  0.00  0.00    +0.000 C 
ATOM     31  C   UNL     1       2.362  14.924  20.229  0.00  0.00    +0.000 C 
ENDBRANCH  29  31
ENDBRANCH  27  29
ENDBRANCH   1  27
TORSDOF 5
ENDMDL
MODEL 3
REMARK VINA RESULT:      -7.0      0.768      1.271
REMARK  Name = 
REMARK  7 active torsions:
REMARK  status: ('A' for Active; 'I' for Inactive)
REMARK    1  A    between atoms: C_1  and  C_2
REMARK    2  A    between atoms: C_2  and  O_3
REMARK    3  A    between atoms: O_3  and  C_4
REMARK    4  A    between atoms: C_4  and  C_6
REMARK    5  A    between atoms: C_7  and  N_8
REMARK    6  A    between atoms: C_18  and  C_19
REMARK    7  A    between atoms: C_22  and  C_23
REMARK                            x       y       z     vdW  Elec       q    Type
REMARK                         _______ _______ _______ _____ _____    ______ ____
ROOT
ATOM      1  C   UNL     1       0.985  12.291  19.205  0.00  0.00    +0.000 C 
ATOM      2  C   UNL     1       1.950  11.936  18.331  0.00  0.00    +0.000 C 
ATOM      3  O   UNL     1       2.239  10.585  18.097  0.00  0.00    +0.000 OA
ATOM      4  C   UNL     1       1.771   9.628  18.988  0.00  0.00    +0.000 A 
ATOM      5  C   UNL     1       0.828   9.908  19.902  0.00  0.00    +0.000 A 
ATOM      6  C   UNL     1       0.424   8.906  20.913  0.00  0.00    +0.000 A 
ATOM      7  O   UNL     1      -0.363   9.169  21.817  0.00  0.00    +0.000 OA
ATOM      8  N   UNL     1       0.994   7.669  20.811  0.00  0.00    +0.000 N 
ATOM      9  C   UNL     1       1.910   7.312  19.813  0.00  0.00    +0.000 A 
ATOM     10  C   UNL     1       2.382   6.003  19.767  0.00  0.00    +0.000 A 
ATOM     11  C   UNL     1       3.257   5.625  18.752  0.00  0.00    +0.000 A 
ATOM     12  C   UNL     1       3.661   6.550  17.783  0.00  0.00    +0.000 A 
ATOM     13  C   UNL     1       4.576   6.132  16.668  0.00  0.00    +0.000 C 
ATOM     14  C   UNL     1       3.191   7.873  17.851  0.00  0.00    +0.000 A 
ATOM     15  C   UNL     1       2.316   8.268  18.870  0.00  0.00    +0.000 A 
ATOM     16  C   UNL     1       0.158  11.252  19.932  0.00  0.00    +0.000 C 
ATOM     17  H   UNL     1       0.701   6.994  21.502  0.00  0.00    +0.000 HD
ENDROOT
BRANCH  16  18
ATOM     18  C   UNL     1      -1.249  11.156  19.321  0.00  0.00    +0.000 A 
ATOM     19  C   UNL     1      -1.498  10.268  18.265  0.00  0.00    +0.000 A 
ATOM     20  C   UNL     1      -2.761  10.210  17.670  0.00  0.00    +0.000 A 
ATOM     21  C   UNL     1      -3.790  11.035  18.121  0.00  0.00    +0.000 A 
ATOM     22  C   UNL     1      -3.564  11.908  19.179  0.00  0.00    +0.000 A 
ATOM     23  C   UNL     1      -2.306  11.967  19.778  0.00  0.00    +0.000 A 
ENDBRANCH  16  18
BRANCH   2  24
ATOM     24  N   UNL     1       2.715  12.791  17.572  0.00  0.00    +0.000 N 
ATOM     25  H   UNL     1       3.711  12.569  17.615  0.00  0.00    +0.000 HD
ATOM     26  H   UNL     1       2.524  13.764  17.798  0.00  0.00    +0.000 HD
ENDBRANCH   2  24
BRANCH   1  27
ATOM     27  C   UNL     1       0.597  13.684  19.546  0.00  0.00    +0.000 C 
ATOM     28  O   UNL     1       0.337  14.048  20.683  0.00  0.00    +0.000 OA
BRANCH  27  29
ATOM     29  O   UNL     1       0.413  14.424  18.422  0.00  0.00    +0.000 OA
BRANCH  29  31
ATOM     30  C   UNL     1       1.667  16.444  18.449  0.00  0.00    +0.000 C 
ATOM     31  C   UNL     1       0.292  15.835  18.652  0.00  0.00    +0.000 C 
ENDBRANCH  29  31
ENDBRANCH  27  29
ENDBRANCH   1  27
TORSDOF 5
ENDMDL
MODEL 4
REMARK VINA RESULT:      -6.9      0.798      1.536
REMARK  Name = 
REMARK  7 active torsions:
REMARK  status: ('A' for Active; 'I' for Inactive)
REMARK    1  A    between atoms: C_1  and  C_2
REMARK    2  A    between atoms: C_2  and  O_3
REMARK    3  A    between atoms: O_3  and  C_4
REMARK    4  A    between atoms: C_4  and  C_6
REMARK    5  A    between atoms: C_7  and  N_8
REMARK    6  A    between atoms: C_18  and  C_19
REMARK    7  A    between atoms: C_22  and  C_23
REMARK                            x       y       z     vdW  Elec       q    Type
REMARK                         _______ _______ _______ _____ _____    ______ ____
ROOT
ATOM      1  C   UNL     1       1.017  12.324  19.197  0.00  0.00    +0.000 C 
ATOM      2  C   UNL     1       1.992  11.954  18.340  0.00  0.00    +0.000 C 
ATOM      3  O   UNL     1       2.264  10.599  18.109  0.00  0.00    +0.000 OA
ATOM      4  C   UNL     1       1.764   9.649  18.989  0.00  0.00    +0.000 A 
ATOM      5  C   UNL     1       0.808   9.943  19.886  0.00  0.00    +0.000 A 
ATOM      6  C   UNL     1       0.370   8.946  20.887  0.00  0.00    +0.000 A 
ATOM      7  O   UNL     1      -0.430   9.220  21.777  0.00  0.00    +0.000 OA
ATOM      8  N   UNL     1       0.922   7.700  20.794  0.00  0.00    +0.000 N 
ATOM      9  C   UNL     1       1.850   7.330  19.813  0.00  0.00    +0.000 A 
ATOM     10  C   UNL     1       2.302   6.014  19.774  0.00  0.00    +0.000 A 
ATOM     11  C   UNL     1       3.190   5.623  18.775  0.00  0.00    +0.000 A 
ATOM     12  C   UNL     1       3.627   6.543  17.815  0.00  0.00    +0.000 A 
ATOM     13  C   UNL     1       4.556   6.112  16.717  0.00  0.00    +0.000 C 
ATOM     14  C   UNL     1       3.177   7.873  17.876  0.00  0.00    +0.000 A 
ATOM     15  C   UNL     1       2.290   8.281  18.879  0.00  0.00    +0.000 A 
ATOM     16  C   UNL     1       0.159  11.297  19.906  0.00  0.00    +0.000 C 
ATOM     17  H   UNL     1       0.605   7.028  21.478  0.00  0.00    +0.000 HD
ENDROOT
BRANCH  16  18
ATOM     18  C   UNL     1      -1.237  11.225  19.268  0.00  0.00    +0.000 A 
ATOM     19  C   UNL     1      -2.266  12.055  19.733  0.00  0.00    +0.000 A 
ATOM     20  C   UNL     1      -3.552  11.962  19.194  0.00  0.00    +0.000 A 
ATOM     21  C   UNL     1      -3.826  11.042  18.184  0.00  0.00    +0.000 A 
ATOM     22  C   UNL     1      -2.811  10.223  17.699  0.00  0.00    +0.000 A 
ATOM     23  C   UNL     1      -1.526  10.316  18.233  0.00  0.00    +0.000 A 
ENDBRANCH  16  18
BRANCH   2  24
ATOM     24  N   UNL     1       2.785  12.799  17.597  0.00  0.00    +0.000 N 
ATOM     25  H   UNL     1       2.310  13.670  17.356  0.00  0.00    +0.000 HD
ATOM     26  H   UNL     1       3.172  12.330  16.783  0.00  0.00    +0.000 HD
ENDBRANCH   2  24
BRANCH   1  27
ATOM     27  C   UNL     1       0.645  13.722  19.532  0.00  0.00    +0.000 C 
ATOM     28  O   UNL     1       0.347  14.084  20.661  0.00  0.00    +0.000 OA
BRANCH  27  29
ATOM     29  O   UNL     1       0.521  14.474  18.408  0.00  0.00    +0.000 OA
BRANCH  29  31
ATOM     30  C   UNL     1      -0.441  16.648  18.402  0.00  0.00    +0.000 C 
ATOM     31  C   UNL     1       0.844  15.860  18.580  0.00  0.00    +0.000 C 
ENDBRANCH  29  31
ENDBRANCH  27  29
ENDBRANCH   1  27
TORSDOF 5
ENDMDL
MODEL 5
REMARK VINA RESULT:      -6.9      1.264      1.677
REMARK  Name = 
REMARK  7 active torsions:
REMARK  status: ('A' for Active; 'I' for Inactive)
REMARK    1  A    between atoms: C_1  and  C_2
REMARK    2  A    between atoms: C_2  and  O_3
REMARK    3  A    between atoms: O_3  and  C_4
REMARK    4  A    between atoms: C_4  and  C_6
REMARK    5  A    between atoms: C_7  and  N_8
REMARK    6  A    between atoms: C_18  and  C_19
REMARK    7  A    between atoms: C_22  and  C_23
REMARK                            x       y       z     vdW  Elec       q    Type
REMARK                         _______ _______ _______ _____ _____    ______ ____
ROOT
ATOM      1  C   UNL     1       0.644  12.922  19.503  0.00  0.00    +0.000 C 
ATOM      2  C   UNL     1       1.508  12.386  18.614  0.00  0.00    +0.000 C 
ATOM      3  O   UNL     1       1.672  10.997  18.526  0.00  0.00    +0.000 OA
ATOM      4  C   UNL     1       1.200  10.193  19.555  0.00  0.00    +0.000 A 
ATOM      5  C   UNL     1       0.355  10.656  20.490  0.00  0.00    +0.000 A 
ATOM      6  C   UNL     1      -0.046   9.815  21.639  0.00  0.00    +0.000 A 
ATOM      7  O   UNL     1      -0.738  10.246  22.555  0.00  0.00    +0.000 OA
ATOM      8  N   UNL     1       0.416   8.529  21.648  0.00  0.00    +0.000 N 
ATOM      9  C   UNL     1       1.221   7.983  20.641  0.00  0.00    +0.000 A 
ATOM     10  C   UNL     1       1.585   6.642  20.722  0.00  0.00    +0.000 A 
ATOM     11  C   UNL     1       2.347   6.076  19.702  0.00  0.00    +0.000 A 
ATOM     12  C   UNL     1       2.747   6.845  18.605  0.00  0.00    +0.000 A 
ATOM     13  C   UNL     1       3.537   6.226  17.489  0.00  0.00    +0.000 C 
ATOM     14  C   UNL     1       2.388   8.203  18.544  0.00  0.00    +0.000 A 
ATOM     15  C   UNL     1       1.627   8.787  19.565  0.00  0.00    +0.000 A 
ATOM     16  C   UNL     1      -0.204  12.047  20.403  0.00  0.00    +0.000 C 
ATOM     17  H   UNL     1       0.125   7.966  22.433  0.00  0.00    +0.000 HD
ENDROOT
BRANCH  16  18
ATOM     18  C   UNL     1      -1.656  12.005  19.904  0.00  0.00    +0.000 A 
ATOM     19  C   UNL     1      -1.968  11.355  18.701  0.00  0.00    +0.000 A 
ATOM     20  C   UNL     1      -3.277  11.354  18.214  0.00  0.00    +0.000 A 
ATOM     21  C   UNL     1      -4.291  11.998  18.920  0.00  0.00    +0.000 A 
ATOM     22  C   UNL     1      -4.002  12.632  20.124  0.00  0.00    +0.000 A 
ATOM     23  C   UNL     1      -2.697  12.633  20.615  0.00  0.00    +0.000 A 
ENDBRANCH  16  18
BRANCH   2  24
ATOM     24  N   UNL     1       2.277  13.080  17.709  0.00  0.00    +0.000 N 
ATOM     25  H   UNL     1       1.845  13.960  17.421  0.00  0.00    +0.000 HD
ATOM     26  H   UNL     1       2.539  12.500  16.917  0.00  0.00    +0.000 HD
ENDBRANCH   2  24
BRANCH   1  27
ATOM     27  C   UNL     1       0.393  14.372  19.699  0.00  0.00    +0.000 C 
ATOM     28  O   UNL     1       0.269  14.889  20.799  0.00  0.00    +0.000 OA
BRANCH  27  29
ATOM     29  O   UNL     1       0.158  14.988  18.511  0.00  0.00    +0.000 OA
BRANCH  29  31
ATOM     30  C   UNL     1      -0.677  17.178  18.115  0.00  0.00    +0.000 C 
ATOM     31  C   UNL     1       0.555  16.366  18.466  0.00  0.00    +0.000 C 
ENDBRANCH  29  31
ENDBRANCH  27  29
ENDBRANCH   1  27
TORSDOF 5
ENDMDL
MODEL 6
REMARK VINA RESULT:      -6.8      1.000      1.144
REMARK  Name = 
REMARK  7 active torsions:
REMARK  status: ('A' for Active; 'I' for Inactive)
REMARK    1  A    between atoms: C_1  and  C_2
REMARK    2  A    between atoms: C_2  and  O_3
REMARK    3  A    between atoms: O_3  and  C_4
REMARK    4  A    between atoms: C_4  and  C_6
REMARK    5  A    between atoms: C_7  and  N_8
REMARK    6  A    between atoms: C_18  and  C_19
REMARK    7  A    between atoms: C_22  and  C_23
REMARK                            x       y       z     vdW  Elec       q    Type
REMARK                         _______ _______ _______ _____ _____    ______ ____
ROOT
ATOM      1  C   UNL     1       0.584  12.929  19.385  0.00  0.00    +0.000 C 
ATOM      2  C   UNL     1       1.449  12.366  18.514  0.00  0.00    +0.000 C 
ATOM      3  O   UNL     1       1.617  10.975  18.472  0.00  0.00    +0.000 OA
ATOM      4  C   UNL     1       1.148  10.205  19.528  0.00  0.00    +0.000 A 
ATOM      5  C   UNL     1       0.303  10.697  20.448  0.00  0.00    +0.000 A 
ATOM      6  C   UNL     1      -0.096   9.893  21.625  0.00  0.00    +0.000 A 
ATOM      7  O   UNL     1      -0.788  10.353  22.527  0.00  0.00    +0.000 OA
ATOM      8  N   UNL     1       0.370   8.610  21.677  0.00  0.00    +0.000 N 
ATOM      9  C   UNL     1       1.177   8.033  20.688  0.00  0.00    +0.000 A 
ATOM     10  C   UNL     1       1.544   6.696  20.813  0.00  0.00    +0.000 A 
ATOM     11  C   UNL     1       2.307   6.098  19.813  0.00  0.00    +0.000 A 
ATOM     12  C   UNL     1       2.704   6.832  18.690  0.00  0.00    +0.000 A 
ATOM     13  C   UNL     1       3.495   6.177  17.595  0.00  0.00    +0.000 C 
ATOM     14  C   UNL     1       2.340   8.185  18.584  0.00  0.00    +0.000 A 
ATOM     15  C   UNL     1       1.579   8.801  19.585  0.00  0.00    +0.000 A 
ATOM     16  C   UNL     1      -0.260  12.083  20.315  0.00  0.00    +0.000 C 
ATOM     17  H   UNL     1       0.082   8.073  22.481  0.00  0.00    +0.000 HD
ENDROOT
BRANCH  16  18
ATOM     18  C   UNL     1      -1.713  12.019  19.819  0.00  0.00    +0.000 A 
ATOM     19  C   UNL     1      -2.016  11.381  18.607  0.00  0.00    +0.000 A 
ATOM     20  C   UNL     1      -3.326  11.362  18.123  0.00  0.00    +0.000 A 
ATOM     21  C   UNL     1      -4.350  11.976  18.841  0.00  0.00    +0.000 A 
ATOM     22  C   UNL     1      -4.070  12.597  20.053  0.00  0.00    +0.000 A 
ATOM     23  C   UNL     1      -2.764  12.616  20.541  0.00  0.00    +0.000 A 
ENDBRANCH  16  18
BRANCH   2  24
ATOM     24  N   UNL     1       2.215  13.031  17.585  0.00  0.00    +0.000 N 
ATOM     25  H   UNL     1       3.006  13.521  18.007  0.00  0.00    +0.000 HD
ATOM     26  H   UNL     1       1.649  13.640  17.000  0.00  0.00    +0.000 HD
ENDBRANCH   2  24
BRANCH   1  27
ATOM     27  C   UNL     1       0.329  14.384  19.532  0.00  0.00    +0.000 C 
ATOM     28  O   UNL     1       0.185  15.140  18.583  0.00  0.00    +0.000 OA
BRANCH  27  29
ATOM     29  O   UNL     1       0.448  14.767  20.830  0.00  0.00    +0.000 OA
BRANCH  29  31
ATOM     30  C   UNL     1      -1.393  15.757  21.963  0.00  0.00    +0.000 C 
ATOM     31  C   UNL     1      -0.153  16.034  21.134  0.00  0.00    +0.000 C 
ENDBRANCH  29  31
ENDBRANCH  27  29
ENDBRANCH   1  27
TORSDOF 5
ENDMDL
MODEL 7
REMARK VINA RESULT:      -6.6      2.531      6.348
REMARK  Name = 
REMARK  7 active torsions:
REMARK  status: ('A' for Active; 'I' for Inactive)
REMARK    1  A    between atoms: C_1  and  C_2
REMARK    2  A    between atoms: C_2  and  O_3
REMARK    3  A    between atoms: O_3  and  C_4
REMARK    4  A    between atoms: C_4  and  C_6
REMARK    5  A    between atoms: C_7  and  N_8
REMARK    6  A    between atoms: C_18  and  C_19
REMARK    7  A    between atoms: C_22  and  C_23
REMARK                            x       y       z     vdW  Elec       q    Type
REMARK                         _______ _______ _______ _____ _____    ______ ____
ROOT
ATOM      1  C   UNL     1       0.067  12.721  19.388  0.00  0.00    +0.000 C 
ATOM      2  C   UNL     1      -0.827  13.504  20.030  0.00  0.00    +0.000 C 
ATOM      3  O   UNL     1      -2.172  13.122  20.124  0.00  0.00    +0.000 OA
ATOM      4  C   UNL     1      -2.651  12.119  19.293  0.00  0.00    +0.000 A 
ATOM      5  C   UNL     1      -1.828  11.313  18.603  0.00  0.00    +0.000 A 
ATOM      6  C   UNL     1      -2.360  10.326  17.637  0.00  0.00    +0.000 A 
ATOM      7  O   UNL     1      -1.627   9.647  16.926  0.00  0.00    +0.000 OA
ATOM      8  N   UNL     1      -3.720  10.222  17.553  0.00  0.00    +0.000 N 
ATOM      9  C   UNL     1      -4.609  10.979  18.326  0.00  0.00    +0.000 A 
ATOM     10  C   UNL     1      -5.976  10.748  18.202  0.00  0.00    +0.000 A 
ATOM     11  C   UNL     1      -6.867  11.462  19.000  0.00  0.00    +0.000 A 
ATOM     12  C   UNL     1      -6.396  12.406  19.919  0.00  0.00    +0.000 A 
ATOM     13  C   UNL     1      -7.355  13.150  20.803  0.00  0.00    +0.000 C 
ATOM     14  C   UNL     1      -5.015  12.642  20.022  0.00  0.00    +0.000 A 
ATOM     15  C   UNL     1      -4.108  11.936  19.222  0.00  0.00    +0.000 A 
ATOM     16  C   UNL     1      -0.340  11.394  18.783  0.00  0.00    +0.000 C 
ATOM     17  H   UNL     1      -4.066   9.537  16.898  0.00  0.00    +0.000 HD
ENDROOT
BRANCH  16  18
ATOM     18  C   UNL     1       0.152  10.229  19.656  0.00  0.00    +0.000 A 
ATOM     19  C   UNL     1       1.157   9.372  19.185  0.00  0.00    +0.000 A 
ATOM     20  C   UNL     1       1.575   8.280  19.950  0.00  0.00    +0.000 A 
ATOM     21  C   UNL     1       0.999   8.032  21.195  0.00  0.00    +0.000 A 
ATOM     22  C   UNL     1       0.015   8.884  21.685  0.00  0.00    +0.000 A 
ATOM     23  C   UNL     1      -0.403   9.976  20.925  0.00  0.00    +0.000 A 
ENDBRANCH  16  18
BRANCH   2  24
ATOM     24  N   UNL     1      -0.556  14.692  20.668  0.00  0.00    +0.000 N 
ATOM     25  H   UNL     1      -1.231  14.905  21.404  0.00  0.00    +0.000 HD
ATOM     26  H   UNL     1      -0.449  15.456  20.007  0.00  0.00    +0.000 HD
ENDBRANCH   2  24
BRANCH   1  27
ATOM     27  C   UNL     1       1.510  13.023  19.211  0.00  0.00    +0.000 C 
ATOM     28  O   UNL     1       2.091  12.917  18.141  0.00  0.00    +0.000 OA
BRANCH  27  29
ATOM     29  O   UNL     1       2.106  13.258  20.409  0.00  0.00    +0.000 OA
BRANCH  29  31
ATOM     30  C   UNL     1       3.236  14.861  21.752  0.00  0.00    +0.000 C 
ATOM     31  C   UNL     1       3.151  14.240  20.371  0.00  0.00    +0.000 C 
ENDBRANCH  29  31
ENDBRANCH  27  29
ENDBRANCH   1  27
TORSDOF 5
ENDMDL
MODEL 8
REMARK VINA RESULT:      -6.5      2.987      6.939
REMARK  Name = 
REMARK  7 active torsions:
REMARK  status: ('A' for Active; 'I' for Inactive)
REMARK    1  A    between atoms: C_1  and  C_2
REMARK    2  A    between atoms: C_2  and  O_3
REMARK    3  A    between atoms: O_3  and  C_4
REMARK    4  A    between atoms: C_4  and  C_6
REMARK    5  A    between atoms: C_7  and  N_8
REMARK    6  A    between atoms: C_18  and  C_19
REMARK    7  A    between atoms: C_22  and  C_23
REMARK                            x       y       z     vdW  Elec       q    Type
REMARK                         _______ _______ _______ _____ _____    ______ ____
ROOT
ATOM      1  C   UNL     1      -0.443  13.417  20.943  0.00  0.00    +0.000 C 
ATOM      2  C   UNL     1      -1.401  13.883  21.772  0.00  0.00    +0.000 C 
ATOM      3  O   UNL     1      -2.722  13.427  21.666  0.00  0.00    +0.000 OA
ATOM      4  C   UNL     1      -3.114  12.751  20.518  0.00  0.00    +0.000 A 
ATOM      5  C   UNL     1      -2.223  12.275  19.633  0.00  0.00    +0.000 A 
ATOM      6  C   UNL     1      -2.665  11.657  18.364  0.00  0.00    +0.000 A 
ATOM      7  O   UNL     1      -1.872  11.303  17.498  0.00  0.00    +0.000 OA
ATOM      8  N   UNL     1      -4.013  11.521  18.185  0.00  0.00    +0.000 N 
ATOM      9  C   UNL     1      -4.968  11.920  19.127  0.00  0.00    +0.000 A 
ATOM     10  C   UNL     1      -6.314  11.679  18.867  0.00  0.00    +0.000 A 
ATOM     11  C   UNL     1      -7.270  12.028  19.818  0.00  0.00    +0.000 A 
ATOM     12  C   UNL     1      -6.885  12.619  21.026  0.00  0.00    +0.000 A 
ATOM     13  C   UNL     1      -7.913  12.962  22.066  0.00  0.00    +0.000 C 
ATOM     14  C   UNL     1      -5.524  12.873  21.270  0.00  0.00    +0.000 A 
ATOM     15  C   UNL     1      -4.554  12.532  20.320  0.00  0.00    +0.000 A 
ATOM     16  C   UNL     1      -0.748  12.361  19.901  0.00  0.00    +0.000 C 
ATOM     17  H   UNL     1      -4.298  11.089  17.318  0.00  0.00    +0.000 HD
ENDROOT
BRANCH  16  18
ATOM     18  C   UNL     1      -0.208  10.992  20.343  0.00  0.00    +0.000 A 
ATOM     19  C   UNL     1      -0.532  10.485  21.610  0.00  0.00    +0.000 A 
ATOM     20  C   UNL     1      -0.005   9.265  22.041  0.00  0.00    +0.000 A 
ATOM     21  C   UNL     1       0.847   8.535  21.214  0.00  0.00    +0.000 A 
ATOM     22  C   UNL     1       1.164   9.016  19.948  0.00  0.00    +0.000 A 
ATOM     23  C   UNL     1       0.637  10.232  19.513  0.00  0.00    +0.000 A 
ENDBRANCH  16  18
BRANCH   2  24
ATOM     24  N   UNL     1      -1.223  14.790  22.791  0.00  0.00    +0.000 N 
ATOM     25  H   UNL     1      -0.325  15.275  22.732  0.00  0.00    +0.000 HD
ATOM     26  H   UNL     1      -1.375  14.365  23.702  0.00  0.00    +0.000 HD
ENDBRANCH   2  24
BRANCH   1  27
ATOM     27  C   UNL     1       0.983  13.831  20.949  0.00  0.00    +0.000 C 
ATOM     28  O   UNL     1       1.642  13.955  21.971  0.00  0.00    +0.000 OA
BRANCH  27  29
ATOM     29  O   UNL     1       1.383  14.207  19.707  0.00  0.00    +0.000 OA
BRANCH  29  31
ATOM     30  C   UNL     1       2.680  12.909  18.194  0.00  0.00    +0.000 C 
ATOM     31  C   UNL     1       2.734  13.850  19.383  0.00  0.00    +0.000 C 
ENDBRANCH  29  31
ENDBRANCH  27  29
ENDBRANCH   1  27
TORSDOF 5
ENDMDL
MODEL 9
REMARK VINA RESULT:      -6.5      2.683      6.548
REMARK  Name = 
REMARK  7 active torsions:
REMARK  status: ('A' for Active; 'I' for Inactive)
REMARK    1  A    between atoms: C_1  and  C_2
REMARK    2  A    between atoms: C_2  and  O_3
REMARK    3  A    between atoms: O_3  and  C_4
REMARK    4  A    between atoms: C_4  and  C_6
REMARK    5  A    between atoms: C_7  and  N_8
REMARK    6  A    between atoms: C_18  and  C_19
REMARK    7  A    between atoms: C_22  and  C_23
REMARK                            x       y       z     vdW  Elec       q    Type
REMARK                         _______ _______ _______ _____ _____    ______ ____
ROOT
ATOM      1  C   UNL     1       0.016  12.840  19.968  0.00  0.00    +0.000 C 
ATOM      2  C   UNL     1      -0.932  13.589  20.572  0.00  0.00    +0.000 C 
ATOM      3  O   UNL     1      -2.283  13.224  20.500  0.00  0.00    +0.000 OA
ATOM      4  C   UNL     1      -2.683  12.291  19.552  0.00  0.00    +0.000 A 
ATOM      5  C   UNL     1      -1.801  11.524  18.893  0.00  0.00    +0.000 A 
ATOM      6  C   UNL     1      -2.240  10.618  17.808  0.00  0.00    +0.000 A 
ATOM      7  O   UNL     1      -1.444   9.980  17.127  0.00  0.00    +0.000 OA
ATOM      8  N   UNL     1      -3.584  10.543  17.578  0.00  0.00    +0.000 N 
ATOM      9  C   UNL     1      -4.541  11.257  18.310  0.00  0.00    +0.000 A 
ATOM     10  C   UNL     1      -5.890  11.059  18.031  0.00  0.00    +0.000 A 
ATOM     11  C   UNL     1      -6.852  11.728  18.783  0.00  0.00    +0.000 A 
ATOM     12  C   UNL     1      -6.470  12.595  19.812  0.00  0.00    +0.000 A 
ATOM     13  C   UNL     1      -7.508  13.289  20.647  0.00  0.00    +0.000 C 
ATOM     14  C   UNL     1      -5.104  12.800  20.073  0.00  0.00    +0.000 A 
ATOM     15  C   UNL     1      -4.126  12.139  19.320  0.00  0.00    +0.000 A 
ATOM     16  C   UNL     1      -0.338  11.567  19.229  0.00  0.00    +0.000 C 
ATOM     17  H   UNL     1      -3.868   9.914  16.842  0.00  0.00    +0.000 HD
ENDROOT
BRANCH  16  18
ATOM     18  C   UNL     1       0.050  10.334  20.060  0.00  0.00    +0.000 A 
ATOM     19  C   UNL     1      -0.577  10.088  21.290  0.00  0.00    +0.000 A 
ATOM     20  C   UNL     1      -0.195   8.998  22.076  0.00  0.00    +0.000 A 
ATOM     21  C   UNL     1       0.814   8.139  21.645  0.00  0.00    +0.000 A 
ATOM     22  C   UNL     1       1.433   8.358  20.419  0.00  0.00    +0.000 A 
ATOM     23  C   UNL     1       1.053   9.444  19.630  0.00  0.00    +0.000 A 
ENDBRANCH  16  18
BRANCH   2  24
ATOM     24  N   UNL     1      -0.717  14.723  21.320  0.00  0.00    +0.000 N 
ATOM     25  H   UNL     1      -1.409  14.840  22.063  0.00  0.00    +0.000 HD
ATOM     26  H   UNL     1      -0.635  15.549  20.733  0.00  0.00    +0.000 HD
ENDBRANCH   2  24
BRANCH   1  27
ATOM     27  C   UNL     1       1.472  13.129  19.962  0.00  0.00    +0.000 C 
ATOM     28  O   UNL     1       2.140  13.231  20.980  0.00  0.00    +0.000 OA
BRANCH  27  29
ATOM     29  O   UNL     1       1.902  13.426  18.708  0.00  0.00    +0.000 OA
BRANCH  29  31
ATOM     30  C   UNL     1       1.898  15.802  18.627  0.00  0.00    +0.000 C 
ATOM     31  C   UNL     1       2.773  14.563  18.631  0.00  0.00    +0.000 C 
ENDBRANCH  29  31
ENDBRANCH  27  29
ENDBRANCH   1  27
TORSDOF 5
ENDMDL
