MODEL 1
REMARK VINA RESULT:      -8.2      0.000      0.000
REMARK  Name = 
REMARK  5 active torsions:
REMARK  status: ('A' for Active; 'I' for Inactive)
REMARK    1  A    between atoms: C_1  and  C_2
REMARK    2  A    between atoms: C_2  and  C_3
REMARK    3  A    between atoms: C_2  and  C_4
REMARK    4  A    between atoms: C_4  and  N_5
REMARK    5  A    between atoms: C_10  and  N_11
REMARK                            x       y       z     vdW  Elec       q    Type
REMARK                         _______ _______ _______ _____ _____    ______ ____
ROOT
ATOM      1  N   UNL     1      -0.471  10.454  20.852  0.00  0.00    +0.000 N 
ATOM      2  C   UNL     1      -0.129   9.415  21.700  0.00  0.00    +0.000 A 
ATOM      3  C   UNL     1       0.775   8.485  21.378  0.00  0.00    +0.000 A 
ATOM      4  C   UNL     1       1.412   8.514  20.064  0.00  0.00    +0.000 A 
ATOM      5  C   UNL     1       2.324   7.512  19.683  0.00  0.00    +0.000 A 
ATOM      6  C   UNL     1       2.902   7.492  18.412  0.00  0.00    +0.000 A 
ATOM      7  C   UNL     1       2.550   8.529  17.525  0.00  0.00    +0.000 A 
ATOM      8  C   UNL     1       1.661   9.547  17.897  0.00  0.00    +0.000 A 
ATOM      9  C   UNL     1       1.086   9.534  19.167  0.00  0.00    +0.000 A 
ATOM     10  C   UNL     1       0.103  10.586  19.573  0.00  0.00    +0.000 A 
ATOM     11  O   UNL     1      -0.164  11.493  18.789  0.00  0.00    +0.000 OA
ENDROOT
BRANCH   6  12
ATOM     12  N   UNL     1       3.755   6.476  17.937  0.00  0.00    +0.000 N 
ATOM     13  C   UNL     1       3.812   5.121  18.009  0.00  0.00    +0.000 A 
ATOM     14  N   UNL     1       4.939   4.505  17.615  0.00  0.00    +0.000 NA
ATOM     15  N   UNL     1       4.687   3.200  17.783  0.00  0.00    +0.000 N 
ATOM     16  C   UNL     1       3.449   2.921  18.280  0.00  0.00    +0.000 A 
ATOM     17  C   UNL     1       2.822   1.720  18.618  0.00  0.00    +0.000 A 
ATOM     18  C   UNL     1       1.510   1.835  19.058  0.00  0.00    +0.000 A 
ATOM     19  C   UNL     1       0.923   3.093  19.117  0.00  0.00    +0.000 A 
ATOM     20  N   UNL     1       1.526   4.261  18.808  0.00  0.00    +0.000 NA
ATOM     21  C   UNL     1       2.821   4.158  18.400  0.00  0.00    +0.000 A 
ATOM     22  H   UNL     1       4.595   6.863  17.519  0.00  0.00    +0.000 HD
ATOM     23  H   UNL     1       5.407   2.537  17.523  0.00  0.00    +0.000 HD
ENDBRANCH   6  12
BRANCH   1  24
ATOM     24  C   UNL     1      -1.514  11.405  21.271  0.00  0.00    +0.000 C 
BRANCH  24  26
ATOM     25  C   UNL     1      -0.716  13.362  22.691  0.00  0.00    +0.000 C 
ATOM     26  C   UNL     1      -1.339  11.967  22.699  0.00  0.00    +0.000 C 
ATOM     27  C   UNL     1      -2.686  12.010  23.430  0.00  0.00    +0.000 C 
ENDBRANCH  24  26
ENDBRANCH   1  24
TORSDOF 3
ENDMDL
MODEL 2
REMARK VINA RESULT:      -7.8      2.930      8.169
REMARK  Name = 
REMARK  5 active torsions:
REMARK  status: ('A' for Active; 'I' for Inactive)
REMARK    1  A    between atoms: C_1  and  C_2
REMARK    2  A    between atoms: C_2  and  C_3
REMARK    3  A    between atoms: C_2  and  C_4
REMARK    4  A    between atoms: C_4  and  N_5
REMARK    5  A    between atoms: C_10  and  N_11
REMARK                            x       y       z     vdW  Elec       q    Type
REMARK                         _______ _______ _______ _____ _____    ______ ____
ROOT
ATOM      1  N   UNL     1       4.250   5.568  18.529  0.00  0.00    +0.000 N 
ATOM      2  C   UNL     1       3.629   5.326  19.742  0.00  0.00    +0.000 A 
ATOM      3  C   UNL     1       2.661   6.110  20.228  0.00  0.00    +0.000 A 
ATOM      4  C   UNL     1       2.253   7.304  19.493  0.00  0.00    +0.000 A 
ATOM      5  C   UNL     1       1.276   8.173  20.015  0.00  0.00    +0.000 A 
ATOM      6  C   UNL     1       0.912   9.347  19.353  0.00  0.00    +0.000 A 
ATOM      7  C   UNL     1       1.549   9.622  18.126  0.00  0.00    +0.000 A 
ATOM      8  C   UNL     1       2.507   8.756  17.581  0.00  0.00    +0.000 A 
ATOM      9  C   UNL     1       2.865   7.598  18.271  0.00  0.00    +0.000 A 
ATOM     10  C   UNL     1       3.914   6.678  17.731  0.00  0.00    +0.000 A 
ATOM     11  O   UNL     1       4.432   6.929  16.647  0.00  0.00    +0.000 OA
ENDROOT
BRANCH   6  12
ATOM     12  N   UNL     1       0.007  10.302  19.857  0.00  0.00    +0.000 N 
ATOM     13  C   UNL     1      -1.107  10.937  19.412  0.00  0.00    +0.000 A 
ATOM     14  N   UNL     1      -1.572  11.984  20.115  0.00  0.00    +0.000 NA
ATOM     15  N   UNL     1      -2.667  12.377  19.450  0.00  0.00    +0.000 N 
ATOM     16  C   UNL     1      -2.945  11.647  18.333  0.00  0.00    +0.000 A 
ATOM     17  C   UNL     1      -3.953  11.749  17.373  0.00  0.00    +0.000 A 
ATOM     18  C   UNL     1      -3.936  10.774  16.385  0.00  0.00    +0.000 A 
ATOM     19  C   UNL     1      -2.961   9.786  16.424  0.00  0.00    +0.000 A 
ATOM     20  N   UNL     1      -1.972   9.689  17.339  0.00  0.00    +0.000 NA
ATOM     21  C   UNL     1      -1.967  10.657  18.296  0.00  0.00    +0.000 A 
ATOM     22  H   UNL     1       0.328  10.685  20.741  0.00  0.00    +0.000 HD
ATOM     23  H   UNL     1      -3.199  13.155  19.824  0.00  0.00    +0.000 HD
ENDBRANCH   6  12
BRANCH   1  24
ATOM     24  C   UNL     1       5.342   4.679  18.095  0.00  0.00    +0.000 C 
BRANCH  24  26
ATOM     25  C   UNL     1       7.326   5.653  19.358  0.00  0.00    +0.000 C 
ATOM     26  C   UNL     1       6.724   5.360  17.985  0.00  0.00    +0.000 C 
ATOM     27  C   UNL     1       7.690   4.487  17.175  0.00  0.00    +0.000 C 
ENDBRANCH  24  26
ENDBRANCH   1  24
TORSDOF 3
ENDMDL
MODEL 3
REMARK VINA RESULT:      -7.8      1.291      1.314
REMARK  Name = 
REMARK  5 active torsions:
REMARK  status: ('A' for Active; 'I' for Inactive)
REMARK    1  A    between atoms: C_1  and  C_2
REMARK    2  A    between atoms: C_2  and  C_3
REMARK    3  A    between atoms: C_2  and  C_4
REMARK    4  A    between atoms: C_4  and  N_5
REMARK    5  A    between atoms: C_10  and  N_11
REMARK                            x       y       z     vdW  Elec       q    Type
REMARK                         _______ _______ _______ _____ _____    ______ ____
ROOT
ATOM      1  N   UNL     1      -0.789  10.978  21.477  0.00  0.00    +0.000 N 
ATOM      2  C   UNL     1      -0.237  10.049  22.341  0.00  0.00    +0.000 A 
ATOM      3  C   UNL     1       0.644   9.125  21.942  0.00  0.00    +0.000 A 
ATOM      4  C   UNL     1       1.021   9.039  20.534  0.00  0.00    +0.000 A 
ATOM      5  C   UNL     1       1.903   8.038  20.084  0.00  0.00    +0.000 A 
ATOM      6  C   UNL     1       2.233   7.906  18.734  0.00  0.00    +0.000 A 
ATOM      7  C   UNL     1       1.663   8.830  17.835  0.00  0.00    +0.000 A 
ATOM      8  C   UNL     1       0.802   9.846  18.270  0.00  0.00    +0.000 A 
ATOM      9  C   UNL     1       0.475   9.946  19.623  0.00  0.00    +0.000 A 
ATOM     10  C   UNL     1      -0.474  10.996  20.106  0.00  0.00    +0.000 A 
ATOM     11  O   UNL     1      -0.934  11.805  19.304  0.00  0.00    +0.000 OA
ENDROOT
BRANCH   6  12
ATOM     12  N   UNL     1       3.039   6.878  18.205  0.00  0.00    +0.000 N 
ATOM     13  C   UNL     1       3.438   5.639  18.590  0.00  0.00    +0.000 A 
ATOM     14  N   UNL     1       4.425   5.041  17.903  0.00  0.00    +0.000 NA
ATOM     15  N   UNL     1       4.575   3.849  18.497  0.00  0.00    +0.000 N 
ATOM     16  C   UNL     1       3.742   3.633  19.554  0.00  0.00    +0.000 A 
ATOM     17  C   UNL     1       3.604   2.559  20.435  0.00  0.00    +0.000 A 
ATOM     18  C   UNL     1       2.589   2.685  21.375  0.00  0.00    +0.000 A 
ATOM     19  C   UNL     1       1.796   3.825  21.366  0.00  0.00    +0.000 A 
ATOM     20  N   UNL     1       1.932   4.876  20.528  0.00  0.00    +0.000 NA
ATOM     21  C   UNL     1       2.942   4.770  19.621  0.00  0.00    +0.000 A 
ATOM     22  H   UNL     1       3.526   7.184  17.368  0.00  0.00    +0.000 HD
ATOM     23  H   UNL     1       5.267   3.211  18.119  0.00  0.00    +0.000 HD
ENDBRANCH   6  12
BRANCH   1  24
ATOM     24  C   UNL     1      -1.789  11.929  21.995  0.00  0.00    +0.000 C 
BRANCH  24  26
ATOM     25  C   UNL     1      -0.312  13.969  22.364  0.00  0.00    +0.000 C 
ATOM     26  C   UNL     1      -1.241  12.948  23.018  0.00  0.00    +0.000 C 
ATOM     27  C   UNL     1      -2.392  13.677  23.721  0.00  0.00    +0.000 C 
ENDBRANCH  24  26
ENDBRANCH   1  24
TORSDOF 3
ENDMDL
MODEL 4
REMARK VINA RESULT:      -7.8      2.565      8.110
REMARK  Name = 
REMARK  5 active torsions:
REMARK  status: ('A' for Active; 'I' for Inactive)
REMARK    1  A    between atoms: C_1  and  C_2
REMARK    2  A    between atoms: C_2  and  C_3
REMARK    3  A    between atoms: C_2  and  C_4
REMARK    4  A    between atoms: C_4  and  N_5
REMARK    5  A    between atoms: C_10  and  N_11
REMARK                            x       y       z     vdW  Elec       q    Type
REMARK                         _______ _______ _______ _____ _____    ______ ____
ROOT
ATOM      1  N   UNL     1       3.577   5.046  18.904  0.00  0.00    +0.000 N 
ATOM      2  C   UNL     1       2.883   5.029  20.101  0.00  0.00    +0.000 A 
ATOM      3  C   UNL     1       2.106   6.040  20.502  0.00  0.00    +0.000 A 
ATOM      4  C   UNL     1       2.004   7.247  19.686  0.00  0.00    +0.000 A 
ATOM      5  C   UNL     1       1.237   8.346  20.117  0.00  0.00    +0.000 A 
ATOM      6  C   UNL     1       1.171   9.528  19.377  0.00  0.00    +0.000 A 
ATOM      7  C   UNL     1       1.889   9.574  18.165  0.00  0.00    +0.000 A 
ATOM      8  C   UNL     1       2.639   8.480  17.710  0.00  0.00    +0.000 A 
ATOM      9  C   UNL     1       2.701   7.317  18.477  0.00  0.00    +0.000 A 
ATOM     10  C   UNL     1       3.527   6.151  18.034  0.00  0.00    +0.000 A 
ATOM     11  O   UNL     1       4.121   6.210  16.960  0.00  0.00    +0.000 OA
ENDROOT
BRANCH   6  12
ATOM     12  N   UNL     1       0.493  10.693  19.790  0.00  0.00    +0.000 N 
ATOM     13  C   UNL     1      -0.664  11.327  19.471  0.00  0.00    +0.000 A 
ATOM     14  N   UNL     1      -0.859  12.574  19.929  0.00  0.00    +0.000 NA
ATOM     15  N   UNL     1      -2.072  12.915  19.474  0.00  0.00    +0.000 N 
ATOM     16  C   UNL     1      -2.688  11.956  18.727  0.00  0.00    +0.000 A 
ATOM     17  C   UNL     1      -3.916  11.929  18.063  0.00  0.00    +0.000 A 
ATOM     18  C   UNL     1      -4.226  10.731  17.433  0.00  0.00    +0.000 A 
ATOM     19  C   UNL     1      -3.332   9.671  17.515  0.00  0.00    +0.000 A 
ATOM     20  N   UNL     1      -2.136   9.693  18.140  0.00  0.00    +0.000 NA
ATOM     21  C   UNL     1      -1.813  10.873  18.738  0.00  0.00    +0.000 A 
ATOM     22  H   UNL     1       1.067  11.253  20.412  0.00  0.00    +0.000 HD
ATOM     23  H   UNL     1      -2.437  13.827  19.724  0.00  0.00    +0.000 HD
ENDBRANCH   6  12
BRANCH   1  24
ATOM     24  C   UNL     1       4.448   3.907  18.566  0.00  0.00    +0.000 C 
BRANCH  24  26
ATOM     25  C   UNL     1       3.605   1.505  18.596  0.00  0.00    +0.000 C 
ATOM     26  C   UNL     1       3.756   2.780  17.769  0.00  0.00    +0.000 C 
ATOM     27  C   UNL     1       2.378   3.238  17.275  0.00  0.00    +0.000 C 
ENDBRANCH  24  26
ENDBRANCH   1  24
TORSDOF 3
ENDMDL
MODEL 5
REMARK VINA RESULT:      -7.7      2.910      8.335
REMARK  Name = 
REMARK  5 active torsions:
REMARK  status: ('A' for Active; 'I' for Inactive)
REMARK    1  A    between atoms: C_1  and  C_2
REMARK    2  A    between atoms: C_2  and  C_3
REMARK    3  A    between atoms: C_2  and  C_4
REMARK    4  A    between atoms: C_4  and  N_5
REMARK    5  A    between atoms: C_10  and  N_11
REMARK                            x       y       z     vdW  Elec       q    Type
REMARK                         _______ _______ _______ _____ _____    ______ ____
ROOT
ATOM      1  N   UNL     1       3.955   5.815  18.090  0.00  0.00    +0.000 N 
ATOM      2  C   UNL     1       3.854   6.842  17.167  0.00  0.00    +0.000 A 
ATOM      3  C   UNL     1       3.125   7.941  17.383  0.00  0.00    +0.000 A 
ATOM      4  C   UNL     1       2.354   8.071  18.616  0.00  0.00    +0.000 A 
ATOM      5  C   UNL     1       1.534   9.194  18.838  0.00  0.00    +0.000 A 
ATOM      6  C   UNL     1       0.747   9.311  19.986  0.00  0.00    +0.000 A 
ATOM      7  C   UNL     1       0.819   8.266  20.929  0.00  0.00    +0.000 A 
ATOM      8  C   UNL     1       1.647   7.152  20.734  0.00  0.00    +0.000 A 
ATOM      9  C   UNL     1       2.410   7.052  19.570  0.00  0.00    +0.000 A 
ATOM     10  C   UNL     1       3.270   5.854  19.319  0.00  0.00    +0.000 A 
ATOM     11  O   UNL     1       3.334   4.971  20.171  0.00  0.00    +0.000 OA
ENDROOT
BRANCH   6  12
ATOM     12  N   UNL     1      -0.157  10.363  20.232  0.00  0.00    +0.000 N 
ATOM     13  C   UNL     1      -1.153  10.988  19.554  0.00  0.00    +0.000 A 
ATOM     14  N   UNL     1      -1.643  12.137  20.048  0.00  0.00    +0.000 NA
ATOM     15  N   UNL     1      -2.605  12.492  19.186  0.00  0.00    +0.000 N 
ATOM     16  C   UNL     1      -2.770  11.638  18.136  0.00  0.00    +0.000 A 
ATOM     17  C   UNL     1      -3.624  11.663  17.032  0.00  0.00    +0.000 A 
ATOM     18  C   UNL     1      -3.531  10.568  16.183  0.00  0.00    +0.000 A 
ATOM     19  C   UNL     1      -2.637   9.549  16.485  0.00  0.00    +0.000 A 
ATOM     20  N   UNL     1      -1.796   9.525  17.541  0.00  0.00    +0.000 NA
ATOM     21  C   UNL     1      -1.862  10.607  18.364  0.00  0.00    +0.000 A 
ATOM     22  H   UNL     1       0.061  10.842  21.101  0.00  0.00    +0.000 HD
ATOM     23  H   UNL     1      -3.133  13.335  19.380  0.00  0.00    +0.000 HD
ENDBRANCH   6  12
BRANCH   1  24
ATOM     24  C   UNL     1       4.743   4.619  17.746  0.00  0.00    +0.000 C 
BRANCH  24  26
ATOM     25  C   UNL     1       7.273   4.694  17.475  0.00  0.00    +0.000 C 
ATOM     26  C   UNL     1       5.923   4.879  16.785  0.00  0.00    +0.000 C 
ATOM     27  C   UNL     1       5.839   3.953  15.566  0.00  0.00    +0.000 C 
ENDBRANCH  24  26
ENDBRANCH   1  24
TORSDOF 3
ENDMDL
MODEL 6
REMARK VINA RESULT:      -7.7      1.439      2.339
REMARK  Name = 
REMARK  5 active torsions:
REMARK  status: ('A' for Active; 'I' for Inactive)
REMARK    1  A    between atoms: C_1  and  C_2
REMARK    2  A    between atoms: C_2  and  C_3
REMARK    3  A    between atoms: C_2  and  C_4
REMARK    4  A    between atoms: C_4  and  N_5
REMARK    5  A    between atoms: C_10  and  N_11
REMARK                            x       y       z     vdW  Elec       q    Type
REMARK                         _______ _______ _______ _____ _____    ______ ____
ROOT
ATOM      1  N   UNL     1      -1.026  11.617  21.785  0.00  0.00    +0.000 N 
ATOM      2  C   UNL     1      -0.994  11.951  20.442  0.00  0.00    +0.000 A 
ATOM      3  C   UNL     1      -0.369  11.206  19.525  0.00  0.00    +0.000 A 
ATOM      4  C   UNL     1       0.359  10.008  19.935  0.00  0.00    +0.000 A 
ATOM      5  C   UNL     1       1.071   9.241  18.993  0.00  0.00    +0.000 A 
ATOM      6  C   UNL     1       1.818   8.124  19.374  0.00  0.00    +0.000 A 
ATOM      7  C   UNL     1       1.816   7.780  20.740  0.00  0.00    +0.000 A 
ATOM      8  C   UNL     1       1.094   8.519  21.686  0.00  0.00    +0.000 A 
ATOM      9  C   UNL     1       0.370   9.641  21.282  0.00  0.00    +0.000 A 
ATOM     10  C   UNL     1      -0.376  10.471  22.279  0.00  0.00    +0.000 A 
ATOM     11  O   UNL     1      -0.381  10.131  23.459  0.00  0.00    +0.000 OA
ENDROOT
BRANCH   6  12
ATOM     12  N   UNL     1       2.620   7.363  18.500  0.00  0.00    +0.000 N 
ATOM     13  C   UNL     1       2.929   6.052  18.334  0.00  0.00    +0.000 A 
ATOM     14  N   UNL     1       3.944   5.731  17.514  0.00  0.00    +0.000 NA
ATOM     15  N   UNL     1       3.990   4.392  17.542  0.00  0.00    +0.000 N 
ATOM     16  C   UNL     1       3.061   3.809  18.350  0.00  0.00    +0.000 A 
ATOM     17  C   UNL     1       2.800   2.476  18.670  0.00  0.00    +0.000 A 
ATOM     18  C   UNL     1       1.715   2.265  19.511  0.00  0.00    +0.000 A 
ATOM     19  C   UNL     1       0.977   3.357  19.950  0.00  0.00    +0.000 A 
ATOM     20  N   UNL     1       1.231   4.651  19.659  0.00  0.00    +0.000 NA
ATOM     21  C   UNL     1       2.308   4.866  18.856  0.00  0.00    +0.000 A 
ATOM     22  H   UNL     1       3.190   7.959  17.908  0.00  0.00    +0.000 HD
ATOM     23  H   UNL     1       4.683   3.926  16.966  0.00  0.00    +0.000 HD
ENDBRANCH   6  12
BRANCH   1  24
ATOM     24  C   UNL     1      -1.697  12.524  22.731  0.00  0.00    +0.000 C 
BRANCH  24  26
ATOM     25  C   UNL     1      -3.785  12.411  24.185  0.00  0.00    +0.000 C 
ATOM     26  C   UNL     1      -3.237  12.403  22.759  0.00  0.00    +0.000 C 
ATOM     27  C   UNL     1      -3.881  13.539  21.955  0.00  0.00    +0.000 C 
ENDBRANCH  24  26
ENDBRANCH   1  24
TORSDOF 3
ENDMDL
MODEL 7
REMARK VINA RESULT:      -7.7      1.143      1.340
REMARK  Name = 
REMARK  5 active torsions:
REMARK  status: ('A' for Active; 'I' for Inactive)
REMARK    1  A    between atoms: C_1  and  C_2
REMARK    2  A    between atoms: C_2  and  C_3
REMARK    3  A    between atoms: C_2  and  C_4
REMARK    4  A    between atoms: C_4  and  N_5
REMARK    5  A    between atoms: C_10  and  N_11
REMARK                            x       y       z     vdW  Elec       q    Type
REMARK                         _______ _______ _______ _____ _____    ______ ____
ROOT
ATOM      1  N   UNL     1      -0.217  11.158  21.825  0.00  0.00    +0.000 N 
ATOM      2  C   UNL     1       0.033   9.979  22.505  0.00  0.00    +0.000 A 
ATOM      3  C   UNL     1       0.707   8.959  21.963  0.00  0.00    +0.000 A 
ATOM      4  C   UNL     1       1.169   9.046  20.580  0.00  0.00    +0.000 A 
ATOM      5  C   UNL     1       1.830   7.962  19.972  0.00  0.00    +0.000 A 
ATOM      6  C   UNL     1       2.231   8.006  18.635  0.00  0.00    +0.000 A 
ATOM      7  C   UNL     1       1.966   9.190  17.918  0.00  0.00    +0.000 A 
ATOM      8  C   UNL     1       1.330  10.287  18.516  0.00  0.00    +0.000 A 
ATOM      9  C   UNL     1       0.924  10.210  19.848  0.00  0.00    +0.000 A 
ATOM     10  C   UNL     1       0.207  11.352  20.497  0.00  0.00    +0.000 A 
ATOM     11  O   UNL     1       0.014  12.382  19.856  0.00  0.00    +0.000 OA
ENDROOT
BRANCH   6  12
ATOM     12  N   UNL     1       2.819   6.930  17.941  0.00  0.00    +0.000 N 
ATOM     13  C   UNL     1       2.991   5.599  18.146  0.00  0.00    +0.000 A 
ATOM     14  N   UNL     1       3.833   4.930  17.341  0.00  0.00    +0.000 NA
ATOM     15  N   UNL     1       3.775   3.662  17.772  0.00  0.00    +0.000 N 
ATOM     16  C   UNL     1       2.944   3.460  18.833  0.00  0.00    +0.000 A 
ATOM     17  C   UNL     1       2.633   2.321  19.577  0.00  0.00    +0.000 A 
ATOM     18  C   UNL     1       1.683   2.502  20.575  0.00  0.00    +0.000 A 
ATOM     19  C   UNL     1       1.115   3.758  20.749  0.00  0.00    +0.000 A 
ATOM     20  N   UNL     1       1.421   4.868  20.045  0.00  0.00    +0.000 NA
ATOM     21  C   UNL     1       2.370   4.704  19.083  0.00  0.00    +0.000 A 
ATOM     22  H   UNL     1       3.333   7.251  17.126  0.00  0.00    +0.000 HD
ATOM     23  H   UNL     1       4.327   2.966  17.283  0.00  0.00    +0.000 HD
ENDBRANCH   6  12
BRANCH   1  24
ATOM     24  C   UNL     1      -1.010  12.209  22.485  0.00  0.00    +0.000 C 
BRANCH  24  26
ATOM     25  C   UNL     1      -3.238  12.273  23.714  0.00  0.00    +0.000 C 
ATOM     26  C   UNL     1      -2.540  12.027  22.378  0.00  0.00    +0.000 C 
ATOM     27  C   UNL     1      -3.121  12.965  21.314  0.00  0.00    +0.000 C 
ENDBRANCH  24  26
ENDBRANCH   1  24
TORSDOF 3
ENDMDL
MODEL 8
REMARK VINA RESULT:      -7.7      1.377      2.108
REMARK  Name = 
REMARK  5 active torsions:
REMARK  status: ('A' for Active; 'I' for Inactive)
REMARK    1  A    between atoms: C_1  and  C_2
REMARK    2  A    between atoms: C_2  and  C_3
REMARK    3  A    between atoms: C_2  and  C_4
REMARK    4  A    between atoms: C_4  and  N_5
REMARK    5  A    between atoms: C_10  and  N_11
REMARK                            x       y       z     vdW  Elec       q    Type
REMARK                         _______ _______ _______ _____ _____    ______ ____
ROOT
ATOM      1  N   UNL     1      -0.734  11.300  20.630  0.00  0.00    +0.000 N 
ATOM      2  C   UNL     1      -0.510  11.634  19.306  0.00  0.00    +0.000 A 
ATOM      3  C   UNL     1       0.228  10.881  18.484  0.00  0.00    +0.000 A 
ATOM      4  C   UNL     1       0.877   9.674  18.990  0.00  0.00    +0.000 A 
ATOM      5  C   UNL     1       1.705   8.898  18.157  0.00  0.00    +0.000 A 
ATOM      6  C   UNL     1       2.377   7.772  18.636  0.00  0.00    +0.000 A 
ATOM      7  C   UNL     1       2.179   7.428  19.988  0.00  0.00    +0.000 A 
ATOM      8  C   UNL     1       1.340   8.176  20.825  0.00  0.00    +0.000 A 
ATOM      9  C   UNL     1       0.694   9.307  20.325  0.00  0.00    +0.000 A 
ATOM     10  C   UNL     1      -0.174  10.146  21.208  0.00  0.00    +0.000 A 
ATOM     11  O   UNL     1      -0.350   9.806  22.376  0.00  0.00    +0.000 OA
ENDROOT
BRANCH   6  12
ATOM     12  N   UNL     1       3.285   7.001  17.882  0.00  0.00    +0.000 N 
ATOM     13  C   UNL     1       3.549   5.682  17.704  0.00  0.00    +0.000 A 
ATOM     14  N   UNL     1       4.679   5.335  17.066  0.00  0.00    +0.000 NA
ATOM     15  N   UNL     1       4.648   3.995  17.030  0.00  0.00    +0.000 N 
ATOM     16  C   UNL     1       3.555   3.437  17.623  0.00  0.00    +0.000 A 
ATOM     17  C   UNL     1       3.170   2.109  17.818  0.00  0.00    +0.000 A 
ATOM     18  C   UNL     1       1.939   1.931  18.436  0.00  0.00    +0.000 A 
ATOM     19  C   UNL     1       1.192   3.046  18.792  0.00  0.00    +0.000 A 
ATOM     20  N   UNL     1       1.564   4.333  18.622  0.00  0.00    +0.000 NA
ATOM     21  C   UNL     1       2.780   4.516  18.041  0.00  0.00    +0.000 A 
ATOM     22  H   UNL     1       3.985   7.586  17.437  0.00  0.00    +0.000 HD
ATOM     23  H   UNL     1       5.408   3.513  16.565  0.00  0.00    +0.000 HD
ENDBRANCH   6  12
BRANCH   1  24
ATOM     24  C   UNL     1      -1.521  12.215  21.475  0.00  0.00    +0.000 C 
BRANCH  24  26
ATOM     25  C   UNL     1      -3.828  12.850  20.605  0.00  0.00    +0.000 C 
ATOM     26  C   UNL     1      -2.357  13.254  20.695  0.00  0.00    +0.000 C 
ATOM     27  C   UNL     1      -2.243  14.636  21.348  0.00  0.00    +0.000 C 
ENDBRANCH  24  26
ENDBRANCH   1  24
TORSDOF 3
ENDMDL
MODEL 9
REMARK VINA RESULT:      -7.7      1.511      2.541
REMARK  Name = 
REMARK  5 active torsions:
REMARK  status: ('A' for Active; 'I' for Inactive)
REMARK    1  A    between atoms: C_1  and  C_2
REMARK    2  A    between atoms: C_2  and  C_3
REMARK    3  A    between atoms: C_2  and  C_4
REMARK    4  A    between atoms: C_4  and  N_5
REMARK    5  A    between atoms: C_10  and  N_11
REMARK                            x       y       z     vdW  Elec       q    Type
REMARK                         _______ _______ _______ _____ _____    ______ ____
ROOT
ATOM      1  N   UNL     1      -0.108  10.981  20.906  0.00  0.00    +0.000 N 
ATOM      2  C   UNL     1      -0.077  10.155  22.016  0.00  0.00    +0.000 A 
ATOM      3  C   UNL     1       0.542   8.970  22.020  0.00  0.00    +0.000 A 
ATOM      4  C   UNL     1       1.181   8.479  20.802  0.00  0.00    +0.000 A 
ATOM      5  C   UNL     1       1.788   7.210  20.768  0.00  0.00    +0.000 A 
ATOM      6  C   UNL     1       2.356   6.700  19.598  0.00  0.00    +0.000 A 
ATOM      7  C   UNL     1       2.315   7.517  18.451  0.00  0.00    +0.000 A 
ATOM      8  C   UNL     1       1.734   8.793  18.473  0.00  0.00    +0.000 A 
ATOM      9  C   UNL     1       1.159   9.271  19.651  0.00  0.00    +0.000 A 
ATOM     10  C   UNL     1       0.497  10.611  19.690  0.00  0.00    +0.000 A 
ATOM     11  O   UNL     1       0.501  11.313  18.682  0.00  0.00    +0.000 OA
ENDROOT
BRANCH   6  12
ATOM     12  N   UNL     1       2.903   5.408  19.473  0.00  0.00    +0.000 N 
ATOM     13  C   UNL     1       3.612   4.723  18.539  0.00  0.00    +0.000 A 
ATOM     14  N   UNL     1       3.753   3.395  18.689  0.00  0.00    +0.000 NA
ATOM     15  N   UNL     1       4.502   3.016  17.644  0.00  0.00    +0.000 N 
ATOM     16  C   UNL     1       4.856   4.028  16.802  0.00  0.00    +0.000 A 
ATOM     17  C   UNL     1       5.589   4.048  15.614  0.00  0.00    +0.000 A 
ATOM     18  C   UNL     1       5.786   5.304  15.056  0.00  0.00    +0.000 A 
ATOM     19  C   UNL     1       5.272   6.421  15.702  0.00  0.00    +0.000 A 
ATOM     20  N   UNL     1       4.548   6.410  16.842  0.00  0.00    +0.000 NA
ATOM     21  C   UNL     1       4.329   5.180  17.381  0.00  0.00    +0.000 A 
ATOM     22  H   UNL     1       2.604   4.804  20.232  0.00  0.00    +0.000 HD
ATOM     23  H   UNL     1       4.754   2.037  17.567  0.00  0.00    +0.000 HD
ENDBRANCH   6  12
BRANCH   1  24
ATOM     24  C   UNL     1      -0.856  12.248  20.978  0.00  0.00    +0.000 C 
BRANCH  24  26
ATOM     25  C   UNL     1      -1.164  13.541  23.150  0.00  0.00    +0.000 C 
ATOM     26  C   UNL     1      -1.704  12.425  22.257  0.00  0.00    +0.000 C 
ATOM     27  C   UNL     1      -3.166  12.715  21.898  0.00  0.00    +0.000 C 
ENDBRANCH  24  26
ENDBRANCH   1  24
TORSDOF 3
ENDMDL
