MODEL 1
REMARK VINA RESULT:      -6.5      0.000      0.000
REMARK  Name = 
REMARK  9 active torsions:
REMARK  status: ('A' for Active; 'I' for Inactive)
REMARK    1  A    between atoms: C_1  and  N_2
REMARK    2  A    between atoms: N_2  and  C_3
REMARK    3  A    between atoms: C_3  and  C_4
REMARK    4  A    between atoms: C_4  and  N_5
REMARK    5  A    between atoms: C_13  and  O_15
REMARK    6  A    between atoms: O_15  and  C_16
REMARK    7  A    between atoms: C_16  and  C_17
REMARK    8  A    between atoms: C_16  and  C_18
REMARK    9  A    between atoms: C_16  and  C_19
REMARK                            x       y       z     vdW  Elec       q    Type
REMARK                         _______ _______ _______ _____ _____    ______ ____
ROOT
ATOM      1  C   UNL     1       5.451   3.351  16.189  0.00  0.00    +0.000 C 
ENDROOT
BRANCH   1   3
ATOM      2  C   UNL     1       5.994   3.965  13.826  0.00  0.00    +0.000 C 
ATOM      3  N   UNL     1       6.275   4.103  15.244  0.00  0.00    +0.000 N 
ATOM      4  C   UNL     1       7.243   5.025  15.601  0.00  0.00    +0.000 C 
ATOM      5  O   UNL     1       7.857   5.681  14.766  0.00  0.00    +0.000 OA
BRANCH   4   6
ATOM      6  O   UNL     1       7.450   5.116  16.946  0.00  0.00    +0.000 OA
BRANCH   6   7
ATOM      7  C   UNL     1       6.881   6.244  17.666  0.00  0.00    +0.000 C 
ATOM      8  C   UNL     1       5.695   6.861  16.904  0.00  0.00    +0.000 C 
ATOM      9  C   UNL     1       6.342   5.685  18.992  0.00  0.00    +0.000 C 
ATOM     10  C   UNL     1       7.955   7.287  18.009  0.00  0.00    +0.000 C 
ENDBRANCH   6   7
ENDBRANCH   4   6
ENDBRANCH   1   3
BRANCH   1  11
ATOM     11  C   UNL     1       4.007   3.875  16.264  0.00  0.00    +0.000 C 
BRANCH  11  12
ATOM     12  N   UNL     1       3.506   3.980  17.626  0.00  0.00    +0.000 N 
ATOM     13  C   UNL     1       2.603   3.076  18.118  0.00  0.00    +0.000 C 
ATOM     14  O   UNL     1       2.140   2.170  17.427  0.00  0.00    +0.000 OA
ATOM     15  N   UNL     1       2.268   3.241  19.439  0.00  0.00    +0.000 N 
ATOM     16  C   UNL     1       2.575   4.344  20.330  0.00  0.00    +0.000 C 
ATOM     17  C   UNL     1       2.448   3.722  21.709  0.00  0.00    +0.000 C 
ATOM     18  C   UNL     1       1.290   2.743  21.546  0.00  0.00    +0.000 C 
ATOM     19  C   UNL     1       1.358   2.308  20.085  0.00  0.00    +0.000 C 
ATOM     20  H   UNL     1       4.106   4.432  18.294  0.00  0.00    +0.000 HD
ENDBRANCH  11  12
ENDBRANCH   1  11
TORSDOF 5
ENDMDL
MODEL 2
REMARK VINA RESULT:      -6.5      3.803      5.587
REMARK  Name = 
REMARK  9 active torsions:
REMARK  status: ('A' for Active; 'I' for Inactive)
REMARK    1  A    between atoms: C_1  and  N_2
REMARK    2  A    between atoms: N_2  and  C_3
REMARK    3  A    between atoms: C_3  and  C_4
REMARK    4  A    between atoms: C_4  and  N_5
REMARK    5  A    between atoms: C_13  and  O_15
REMARK    6  A    between atoms: O_15  and  C_16
REMARK    7  A    between atoms: C_16  and  C_17
REMARK    8  A    between atoms: C_16  and  C_18
REMARK    9  A    between atoms: C_16  and  C_19
REMARK                            x       y       z     vdW  Elec       q    Type
REMARK                         _______ _______ _______ _____ _____    ______ ____
ROOT
ATOM      1  C   UNL     1       3.517   5.308  17.334  0.00  0.00    +0.000 C 
ENDROOT
BRANCH   1   3
ATOM      2  C   UNL     1       5.694   4.080  17.249  0.00  0.00    +0.000 C 
ATOM      3  N   UNL     1       4.481   4.414  17.974  0.00  0.00    +0.000 N 
ATOM      4  C   UNL     1       4.376   3.938  19.268  0.00  0.00    +0.000 C 
ATOM      5  O   UNL     1       5.251   3.246  19.780  0.00  0.00    +0.000 OA
BRANCH   4   6
ATOM      6  O   UNL     1       3.220   4.296  19.898  0.00  0.00    +0.000 OA
BRANCH   6   7
ATOM      7  C   UNL     1       2.241   3.265  20.201  0.00  0.00    +0.000 C 
ATOM      8  C   UNL     1       2.469   2.663  21.598  0.00  0.00    +0.000 C 
ATOM      9  C   UNL     1       0.870   3.959  20.210  0.00  0.00    +0.000 C 
ATOM     10  C   UNL     1       2.206   2.189  19.105  0.00  0.00    +0.000 C 
ENDBRANCH   6   7
ENDBRANCH   4   6
ENDBRANCH   1   3
BRANCH   1  11
ATOM     11  C   UNL     1       3.794   6.791  17.634  0.00  0.00    +0.000 C 
BRANCH  11  12
ATOM     12  N   UNL     1       2.960   7.326  18.699  0.00  0.00    +0.000 N 
ATOM     13  C   UNL     1       2.168   8.425  18.493  0.00  0.00    +0.000 C 
ATOM     14  O   UNL     1       2.160   9.035  17.425  0.00  0.00    +0.000 OA
ATOM     15  N   UNL     1       1.373   8.782  19.553  0.00  0.00    +0.000 N 
ATOM     16  C   UNL     1       1.393   8.292  20.919  0.00  0.00    +0.000 C 
ATOM     17  C   UNL     1      -0.001   8.617  21.424  0.00  0.00    +0.000 C 
ATOM     18  C   UNL     1      -0.316   9.948  20.750  0.00  0.00    +0.000 C 
ATOM     19  C   UNL     1       0.452   9.902  19.432  0.00  0.00    +0.000 C 
ATOM     20  H   UNL     1       2.661   6.677  19.407  0.00  0.00    +0.000 HD
ENDBRANCH  11  12
ENDBRANCH   1  11
TORSDOF 5
ENDMDL
MODEL 3
REMARK VINA RESULT:      -6.3      0.604      1.161
REMARK  Name = 
REMARK  9 active torsions:
REMARK  status: ('A' for Active; 'I' for Inactive)
REMARK    1  A    between atoms: C_1  and  N_2
REMARK    2  A    between atoms: N_2  and  C_3
REMARK    3  A    between atoms: C_3  and  C_4
REMARK    4  A    between atoms: C_4  and  N_5
REMARK    5  A    between atoms: C_13  and  O_15
REMARK    6  A    between atoms: O_15  and  C_16
REMARK    7  A    between atoms: C_16  and  C_17
REMARK    8  A    between atoms: C_16  and  C_18
REMARK    9  A    between atoms: C_16  and  C_19
REMARK                            x       y       z     vdW  Elec       q    Type
REMARK                         _______ _______ _______ _____ _____    ______ ____
ROOT
ATOM      1  C   UNL     1       5.602   3.139  15.996  0.00  0.00    +0.000 C 
ENDROOT
BRANCH   1   3
ATOM      2  C   UNL     1       6.137   3.954  13.693  0.00  0.00    +0.000 C 
ATOM      3  N   UNL     1       6.382   4.015  15.123  0.00  0.00    +0.000 N 
ATOM      4  C   UNL     1       7.271   4.979  15.563  0.00  0.00    +0.000 C 
ATOM      5  O   UNL     1       7.848   5.735  14.788  0.00  0.00    +0.000 OA
BRANCH   4   6
ATOM      6  O   UNL     1       7.447   4.992  16.916  0.00  0.00    +0.000 OA
BRANCH   6   7
ATOM      7  C   UNL     1       6.888   6.093  17.682  0.00  0.00    +0.000 C 
ATOM      8  C   UNL     1       7.923   7.209  17.905  0.00  0.00    +0.000 C 
ATOM      9  C   UNL     1       5.747   6.677  16.835  0.00  0.00    +0.000 C 
ATOM     10  C   UNL     1       6.275   5.600  19.001  0.00  0.00    +0.000 C 
ENDBRANCH   6   7
ENDBRANCH   4   6
ENDBRANCH   1   3
BRANCH   1  11
ATOM     11  C   UNL     1       4.204   3.702  16.302  0.00  0.00    +0.000 C 
BRANCH  11  12
ATOM     12  N   UNL     1       3.829   3.577  17.702  0.00  0.00    +0.000 N 
ATOM     13  C   UNL     1       2.514   3.498  18.078  0.00  0.00    +0.000 C 
ATOM     14  O   UNL     1       1.594   3.576  17.265  0.00  0.00    +0.000 OA
ATOM     15  N   UNL     1       2.298   3.306  19.420  0.00  0.00    +0.000 N 
ATOM     16  C   UNL     1       3.244   3.374  20.518  0.00  0.00    +0.000 C 
ATOM     17  C   UNL     1       2.572   2.554  21.605  0.00  0.00    +0.000 C 
ATOM     18  C   UNL     1       1.093   2.873  21.421  0.00  0.00    +0.000 C 
ATOM     19  C   UNL     1       0.943   3.154  19.928  0.00  0.00    +0.000 C 
ATOM     20  H   UNL     1       4.502   3.147  18.313  0.00  0.00    +0.000 HD
ENDBRANCH  11  12
ENDBRANCH   1  11
TORSDOF 5
ENDMDL
MODEL 4
REMARK VINA RESULT:      -6.3      3.701      5.379
REMARK  Name = 
REMARK  9 active torsions:
REMARK  status: ('A' for Active; 'I' for Inactive)
REMARK    1  A    between atoms: C_1  and  N_2
REMARK    2  A    between atoms: N_2  and  C_3
REMARK    3  A    between atoms: C_3  and  C_4
REMARK    4  A    between atoms: C_4  and  N_5
REMARK    5  A    between atoms: C_13  and  O_15
REMARK    6  A    between atoms: O_15  and  C_16
REMARK    7  A    between atoms: C_16  and  C_17
REMARK    8  A    between atoms: C_16  and  C_18
REMARK    9  A    between atoms: C_16  and  C_19
REMARK                            x       y       z     vdW  Elec       q    Type
REMARK                         _______ _______ _______ _____ _____    ______ ____
ROOT
ATOM      1  C   UNL     1       4.784   5.879  18.014  0.00  0.00    +0.000 C 
ENDROOT
BRANCH   1   3
ATOM      2  C   UNL     1       5.271   4.247  16.182  0.00  0.00    +0.000 C 
ATOM      3  N   UNL     1       4.632   4.537  17.453  0.00  0.00    +0.000 N 
ATOM      4  C   UNL     1       4.008   3.481  18.093  0.00  0.00    +0.000 C 
ATOM      5  O   UNL     1       3.971   2.355  17.607  0.00  0.00    +0.000 OA
BRANCH   4   6
ATOM      6  O   UNL     1       3.439   3.816  19.287  0.00  0.00    +0.000 OA
BRANCH   6   7
ATOM      7  C   UNL     1       1.990   3.789  19.402  0.00  0.00    +0.000 C 
ATOM      8  C   UNL     1       1.310   4.064  18.050  0.00  0.00    +0.000 C 
ATOM      9  C   UNL     1       1.615   2.361  19.831  0.00  0.00    +0.000 C 
ATOM     10  C   UNL     1       1.499   4.743  20.502  0.00  0.00    +0.000 C 
ENDBRANCH   6   7
ENDBRANCH   4   6
ENDBRANCH   1   3
BRANCH   1  11
ATOM     11  C   UNL     1       3.690   6.848  17.534  0.00  0.00    +0.000 C 
BRANCH  11  12
ATOM     12  N   UNL     1       2.893   7.396  18.621  0.00  0.00    +0.000 N 
ATOM     13  C   UNL     1       2.096   8.494  18.430  0.00  0.00    +0.000 C 
ATOM     14  O   UNL     1       2.054   9.093  17.357  0.00  0.00    +0.000 OA
ATOM     15  N   UNL     1       1.337   8.863  19.513  0.00  0.00    +0.000 N 
ATOM     16  C   UNL     1       1.402   8.387  20.882  0.00  0.00    +0.000 C 
ATOM     17  C   UNL     1       0.026   8.720  21.430  0.00  0.00    +0.000 C 
ATOM     18  C   UNL     1      -0.310  10.044  20.753  0.00  0.00    +0.000 C 
ATOM     19  C   UNL     1       0.414   9.983  19.411  0.00  0.00    +0.000 C 
ATOM     20  H   UNL     1       2.616   6.755  19.345  0.00  0.00    +0.000 HD
ENDBRANCH  11  12
ENDBRANCH   1  11
TORSDOF 5
ENDMDL
MODEL 5
REMARK VINA RESULT:      -6.2      2.064      6.819
REMARK  Name = 
REMARK  9 active torsions:
REMARK  status: ('A' for Active; 'I' for Inactive)
REMARK    1  A    between atoms: C_1  and  N_2
REMARK    2  A    between atoms: N_2  and  C_3
REMARK    3  A    between atoms: C_3  and  C_4
REMARK    4  A    between atoms: C_4  and  N_5
REMARK    5  A    between atoms: C_13  and  O_15
REMARK    6  A    between atoms: O_15  and  C_16
REMARK    7  A    between atoms: C_16  and  C_17
REMARK    8  A    between atoms: C_16  and  C_18
REMARK    9  A    between atoms: C_16  and  C_19
REMARK                            x       y       z     vdW  Elec       q    Type
REMARK                         _______ _______ _______ _____ _____    ______ ____
ROOT
ATOM      1  C   UNL     1       5.254   4.262  18.278  0.00  0.00    +0.000 C 
ENDROOT
BRANCH   1   3
ATOM      2  C   UNL     1       4.908   6.700  17.841  0.00  0.00    +0.000 C 
ATOM      3  N   UNL     1       4.497   5.488  18.527  0.00  0.00    +0.000 N 
ATOM      4  C   UNL     1       3.348   5.564  19.292  0.00  0.00    +0.000 C 
ATOM      5  O   UNL     1       2.712   6.606  19.411  0.00  0.00    +0.000 OA
BRANCH   4   6
ATOM      6  O   UNL     1       3.009   4.390  19.899  0.00  0.00    +0.000 OA
BRANCH   6   7
ATOM      7  C   UNL     1       1.861   3.651  19.400  0.00  0.00    +0.000 C 
ATOM      8  C   UNL     1       1.503   4.066  17.963  0.00  0.00    +0.000 C 
ATOM      9  C   UNL     1       2.278   2.172  19.369  0.00  0.00    +0.000 C 
ATOM     10  C   UNL     1       0.663   3.770  20.354  0.00  0.00    +0.000 C 
ENDBRANCH   6   7
ENDBRANCH   4   6
ENDBRANCH   1   3
BRANCH   1  11
ATOM     11  C   UNL     1       6.531   4.510  17.458  0.00  0.00    +0.000 C 
BRANCH  11  12
ATOM     12  N   UNL     1       6.372   4.207  16.044  0.00  0.00    +0.000 N 
ATOM     13  C   UNL     1       7.029   4.934  15.087  0.00  0.00    +0.000 C 
ATOM     14  O   UNL     1       7.738   5.899  15.369  0.00  0.00    +0.000 OA
ATOM     15  N   UNL     1       6.854   4.499  13.797  0.00  0.00    +0.000 N 
ATOM     16  C   UNL     1       5.925   3.511  13.282  0.00  0.00    +0.000 C 
ATOM     17  C   UNL     1       6.567   3.078  11.976  0.00  0.00    +0.000 C 
ATOM     18  C   UNL     1       7.190   4.366  11.449  0.00  0.00    +0.000 C 
ATOM     19  C   UNL     1       7.545   5.162  12.701  0.00  0.00    +0.000 C 
ATOM     20  H   UNL     1       6.135   3.258  15.810  0.00  0.00    +0.000 HD
ENDBRANCH  11  12
ENDBRANCH   1  11
TORSDOF 5
ENDMDL
MODEL 6
REMARK VINA RESULT:      -6.2      3.845      5.383
REMARK  Name = 
REMARK  9 active torsions:
REMARK  status: ('A' for Active; 'I' for Inactive)
REMARK    1  A    between atoms: C_1  and  N_2
REMARK    2  A    between atoms: N_2  and  C_3
REMARK    3  A    between atoms: C_3  and  C_4
REMARK    4  A    between atoms: C_4  and  N_5
REMARK    5  A    between atoms: C_13  and  O_15
REMARK    6  A    between atoms: O_15  and  C_16
REMARK    7  A    between atoms: C_16  and  C_17
REMARK    8  A    between atoms: C_16  and  C_18
REMARK    9  A    between atoms: C_16  and  C_19
REMARK                            x       y       z     vdW  Elec       q    Type
REMARK                         _______ _______ _______ _____ _____    ______ ____
ROOT
ATOM      1  C   UNL     1       4.772   6.371  17.758  0.00  0.00    +0.000 C 
ENDROOT
BRANCH   1   3
ATOM      2  C   UNL     1       5.356   4.880  15.837  0.00  0.00    +0.000 C 
ATOM      3  N   UNL     1       4.732   5.048  17.137  0.00  0.00    +0.000 N 
ATOM      4  C   UNL     1       4.233   3.908  17.742  0.00  0.00    +0.000 C 
ATOM      5  O   UNL     1       4.289   2.807  17.203  0.00  0.00    +0.000 OA
BRANCH   4   6
ATOM      6  O   UNL     1       3.673   4.131  18.965  0.00  0.00    +0.000 OA
BRANCH   6   7
ATOM      7  C   UNL     1       2.257   3.854  19.146  0.00  0.00    +0.000 C 
ATOM      8  C   UNL     1       2.017   2.392  19.560  0.00  0.00    +0.000 C 
ATOM      9  C   UNL     1       1.784   4.749  20.302  0.00  0.00    +0.000 C 
ATOM     10  C   UNL     1       1.448   4.245  17.901  0.00  0.00    +0.000 C 
ENDBRANCH   6   7
ENDBRANCH   4   6
ENDBRANCH   1   3
BRANCH   1  11
ATOM     11  C   UNL     1       3.569   7.246  17.366  0.00  0.00    +0.000 C 
BRANCH  11  12
ATOM     12  N   UNL     1       2.775   7.673  18.508  0.00  0.00    +0.000 N 
ATOM     13  C   UNL     1       1.998   8.800  18.447  0.00  0.00    +0.000 C 
ATOM     14  O   UNL     1       1.972   9.524  17.453  0.00  0.00    +0.000 OA
ATOM     15  N   UNL     1       1.240   9.050  19.563  0.00  0.00    +0.000 N 
ATOM     16  C   UNL     1       1.289   8.413  20.865  0.00  0.00    +0.000 C 
ATOM     17  C   UNL     1      -0.084   8.702  21.445  0.00  0.00    +0.000 C 
ATOM     18  C   UNL     1      -0.394  10.103  20.929  0.00  0.00    +0.000 C 
ATOM     19  C   UNL     1       0.336  10.191  19.592  0.00  0.00    +0.000 C 
ATOM     20  H   UNL     1       2.484   6.955  19.149  0.00  0.00    +0.000 HD
ENDBRANCH  11  12
ENDBRANCH   1  11
TORSDOF 5
ENDMDL
MODEL 7
REMARK VINA RESULT:      -6.1      1.834      6.483
REMARK  Name = 
REMARK  9 active torsions:
REMARK  status: ('A' for Active; 'I' for Inactive)
REMARK    1  A    between atoms: C_1  and  N_2
REMARK    2  A    between atoms: N_2  and  C_3
REMARK    3  A    between atoms: C_3  and  C_4
REMARK    4  A    between atoms: C_4  and  N_5
REMARK    5  A    between atoms: C_13  and  O_15
REMARK    6  A    between atoms: O_15  and  C_16
REMARK    7  A    between atoms: C_16  and  C_17
REMARK    8  A    between atoms: C_16  and  C_18
REMARK    9  A    between atoms: C_16  and  C_19
REMARK                            x       y       z     vdW  Elec       q    Type
REMARK                         _______ _______ _______ _____ _____    ______ ____
ROOT
ATOM      1  C   UNL     1       5.297   5.364  18.751  0.00  0.00    +0.000 C 
ENDROOT
BRANCH   1   3
ATOM      2  C   UNL     1       3.930   6.883  17.308  0.00  0.00    +0.000 C 
ATOM      3  N   UNL     1       4.006   5.704  18.153  0.00  0.00    +0.000 N 
ATOM      4  C   UNL     1       2.865   4.928  18.245  0.00  0.00    +0.000 C 
ATOM      5  O   UNL     1       1.826   5.226  17.664  0.00  0.00    +0.000 OA
BRANCH   4   6
ATOM      6  O   UNL     1       3.006   3.830  19.043  0.00  0.00    +0.000 OA
BRANCH   6   7
ATOM      7  C   UNL     1       2.174   3.718  20.230  0.00  0.00    +0.000 C 
ATOM      8  C   UNL     1       1.862   5.097  20.834  0.00  0.00    +0.000 C 
ATOM      9  C   UNL     1       0.845   3.097  19.771  0.00  0.00    +0.000 C 
ATOM     10  C   UNL     1       2.797   2.762  21.258  0.00  0.00    +0.000 C 
ENDBRANCH   6   7
ENDBRANCH   4   6
ENDBRANCH   1   3
BRANCH   1  11
ATOM     11  C   UNL     1       5.912   4.091  18.147  0.00  0.00    +0.000 C 
BRANCH  11  12
ATOM     12  N   UNL     1       5.833   4.049  16.695  0.00  0.00    +0.000 N 
ATOM     13  C   UNL     1       6.785   4.653  15.917  0.00  0.00    +0.000 C 
ATOM     14  O   UNL     1       7.715   5.296  16.401  0.00  0.00    +0.000 OA
ATOM     15  N   UNL     1       6.636   4.475  14.564  0.00  0.00    +0.000 N 
ATOM     16  C   UNL     1       5.517   3.912  13.832  0.00  0.00    +0.000 C 
ATOM     17  C   UNL     1       6.144   3.480  12.519  0.00  0.00    +0.000 C 
ATOM     18  C   UNL     1       7.184   4.562  12.254  0.00  0.00    +0.000 C 
ATOM     19  C   UNL     1       7.617   5.027  13.642  0.00  0.00    +0.000 C 
ATOM     20  H   UNL     1       5.348   3.265  16.292  0.00  0.00    +0.000 HD
ENDBRANCH  11  12
ENDBRANCH   1  11
TORSDOF 5
ENDMDL
MODEL 8
REMARK VINA RESULT:      -6.1      1.890      6.716
REMARK  Name = 
REMARK  9 active torsions:
REMARK  status: ('A' for Active; 'I' for Inactive)
REMARK    1  A    between atoms: C_1  and  N_2
REMARK    2  A    between atoms: N_2  and  C_3
REMARK    3  A    between atoms: C_3  and  C_4
REMARK    4  A    between atoms: C_4  and  N_5
REMARK    5  A    between atoms: C_13  and  O_15
REMARK    6  A    between atoms: O_15  and  C_16
REMARK    7  A    between atoms: C_16  and  C_17
REMARK    8  A    between atoms: C_16  and  C_18
REMARK    9  A    between atoms: C_16  and  C_19
REMARK                            x       y       z     vdW  Elec       q    Type
REMARK                         _______ _______ _______ _____ _____    ______ ____
ROOT
ATOM      1  C   UNL     1       4.614   5.635  17.235  0.00  0.00    +0.000 C 
ENDROOT
BRANCH   1   3
ATOM      2  C   UNL     1       6.345   5.331  19.015  0.00  0.00    +0.000 C 
ATOM      3  N   UNL     1       5.172   4.830  18.320  0.00  0.00    +0.000 N 
ATOM      4  C   UNL     1       4.606   3.667  18.811  0.00  0.00    +0.000 C 
ATOM      5  O   UNL     1       5.079   3.068  19.772  0.00  0.00    +0.000 OA
BRANCH   4   6
ATOM      6  O   UNL     1       3.502   3.257  18.124  0.00  0.00    +0.000 OA
BRANCH   6   7
ATOM      7  C   UNL     1       2.191   3.474  18.714  0.00  0.00    +0.000 C 
ATOM      8  C   UNL     1       2.273   4.379  19.955  0.00  0.00    +0.000 C 
ATOM      9  C   UNL     1       1.354   4.208  17.654  0.00  0.00    +0.000 C 
ATOM     10  C   UNL     1       1.487   2.142  19.014  0.00  0.00    +0.000 C 
ENDBRANCH   6   7
ENDBRANCH   4   6
ENDBRANCH   1   3
BRANCH   1  11
ATOM     11  C   UNL     1       5.655   5.981  16.158  0.00  0.00    +0.000 C 
BRANCH  11  12
ATOM     12  N   UNL     1       5.522   5.176  14.953  0.00  0.00    +0.000 N 
ATOM     13  C   UNL     1       6.613   4.873  14.181  0.00  0.00    +0.000 C 
ATOM     14  O   UNL     1       7.737   5.301  14.438  0.00  0.00    +0.000 OA
ATOM     15  N   UNL     1       6.364   4.044  13.116  0.00  0.00    +0.000 N 
ATOM     16  C   UNL     1       5.092   3.606  12.574  0.00  0.00    +0.000 C 
ATOM     17  C   UNL     1       5.453   2.335  11.825  0.00  0.00    +0.000 C 
ATOM     18  C   UNL     1       6.832   2.646  11.252  0.00  0.00    +0.000 C 
ATOM     19  C   UNL     1       7.456   3.612  12.256  0.00  0.00    +0.000 C 
ATOM     20  H   UNL     1       4.753   4.530  14.925  0.00  0.00    +0.000 HD
ENDBRANCH  11  12
ENDBRANCH   1  11
TORSDOF 5
ENDMDL
MODEL 9
REMARK VINA RESULT:      -6.1      1.803      6.509
REMARK  Name = 
REMARK  9 active torsions:
REMARK  status: ('A' for Active; 'I' for Inactive)
REMARK    1  A    between atoms: C_1  and  N_2
REMARK    2  A    between atoms: N_2  and  C_3
REMARK    3  A    between atoms: C_3  and  C_4
REMARK    4  A    between atoms: C_4  and  N_5
REMARK    5  A    between atoms: C_13  and  O_15
REMARK    6  A    between atoms: O_15  and  C_16
REMARK    7  A    between atoms: C_16  and  C_17
REMARK    8  A    between atoms: C_16  and  C_18
REMARK    9  A    between atoms: C_16  and  C_19
REMARK                            x       y       z     vdW  Elec       q    Type
REMARK                         _______ _______ _______ _____ _____    ______ ____
ROOT
ATOM      1  C   UNL     1       5.155   5.260  19.069  0.00  0.00    +0.000 C 
ENDROOT
BRANCH   1   3
ATOM      2  C   UNL     1       3.907   6.658  17.412  0.00  0.00    +0.000 C 
ATOM      3  N   UNL     1       3.930   5.520  18.314  0.00  0.00    +0.000 N 
ATOM      4  C   UNL     1       2.815   4.701  18.313  0.00  0.00    +0.000 C 
ATOM      5  O   UNL     1       1.840   4.930  17.605  0.00  0.00    +0.000 OA
BRANCH   4   6
ATOM      6  O   UNL     1       2.904   3.645  19.171  0.00  0.00    +0.000 OA
BRANCH   6   7
ATOM      7  C   UNL     1       1.993   3.584  20.302  0.00  0.00    +0.000 C 
ATOM      8  C   UNL     1       2.610   2.817  21.484  0.00  0.00    +0.000 C 
ATOM      9  C   UNL     1       1.767   5.035  20.755  0.00  0.00    +0.000 C 
ATOM     10  C   UNL     1       0.628   3.013  19.890  0.00  0.00    +0.000 C 
ENDBRANCH   6   7
ENDBRANCH   4   6
ENDBRANCH   1   3
BRANCH   1  11
ATOM     11  C   UNL     1       6.035   4.182  18.416  0.00  0.00    +0.000 C 
BRANCH  11  12
ATOM     12  N   UNL     1       5.894   4.124  16.970  0.00  0.00    +0.000 N 
ATOM     13  C   UNL     1       6.820   4.706  16.144  0.00  0.00    +0.000 C 
ATOM     14  O   UNL     1       7.779   5.340  16.581  0.00  0.00    +0.000 OA
ATOM     15  N   UNL     1       6.611   4.514  14.802  0.00  0.00    +0.000 N 
ATOM     16  C   UNL     1       5.454   3.959  14.125  0.00  0.00    +0.000 C 
ATOM     17  C   UNL     1       6.018   3.503  12.791  0.00  0.00    +0.000 C 
ATOM     18  C   UNL     1       7.061   4.567  12.469  0.00  0.00    +0.000 C 
ATOM     19  C   UNL     1       7.559   5.042  13.832  0.00  0.00    +0.000 C 
ATOM     20  H   UNL     1       5.381   3.343  16.597  0.00  0.00    +0.000 HD
ENDBRANCH  11  12
ENDBRANCH   1  11
TORSDOF 5
ENDMDL
