MODEL 1
REMARK VINA RESULT:      -9.0      0.000      0.000
REMARK  Name = 
REMARK  8 active torsions:
REMARK  status: ('A' for Active; 'I' for Inactive)
REMARK    1  A    between atoms: C_1  and  O_2
REMARK    2  A    between atoms: O_2  and  C_3
REMARK    3  A    between atoms: C_10  and  C_11
REMARK    4  A    between atoms: C_11  and  C_12
REMARK    5  A    between atoms: C_12  and  C_13
REMARK    6  A    between atoms: C_16  and  N_17
REMARK    7  A    between atoms: N_17  and  C_18
REMARK    8  A    between atoms: C_18  and  C_19
REMARK                            x       y       z     vdW  Elec       q    Type
REMARK                         _______ _______ _______ _____ _____    ______ ____
ROOT
ATOM      1  C   UNL     1       7.571   7.995  17.913  0.00  0.00    +0.000 C 
ATOM      2  O   UNL     1       7.536   7.388  16.627  0.00  0.00    +0.000 OA
ATOM      3  C   UNL     1       6.825   6.157  16.667  0.00  0.00    +0.000 C 
ATOM      4  C   UNL     1       7.450   5.176  17.676  0.00  0.00    +0.000 C 
ATOM      5  C   UNL     1       7.624   5.918  19.015  0.00  0.00    +0.000 C 
ATOM      6  O   UNL     1       8.285   7.170  18.831  0.00  0.00    +0.000 OA
ENDROOT
BRANCH   4   7
ATOM      7  N   UNL     1       6.649   3.949  17.855  0.00  0.00    +0.000 NA
ATOM      8  H   UNL     1       7.093   3.176  17.354  0.00  0.00    +0.000 HD
BRANCH   7   9
ATOM      9  C   UNL     1       5.294   4.096  17.304  0.00  0.00    +0.000 C 
BRANCH   9  10
ATOM     10  C   UNL     1       4.234   3.729  18.320  0.00  0.00    +0.000 A 
ATOM     11  C   UNL     1       3.517   2.539  18.182  0.00  0.00    +0.000 A 
ATOM     12  C   UNL     1       2.554   2.216  19.136  0.00  0.00    +0.000 A 
ATOM     13  C   UNL     1       2.326   3.093  20.187  0.00  0.00    +0.000 A 
ATOM     14 CL   UNL     1       1.153   2.734  21.387  0.00  0.00    +0.000 Cl
ATOM     15  C   UNL     1       3.066   4.265  20.243  0.00  0.00    +0.000 A 
ATOM     16  N   UNL     1       4.013   4.605  19.333  0.00  0.00    +0.000 NA
ENDBRANCH   9  10
ENDBRANCH   7   9
ENDBRANCH   4   7
BRANCH   1  17
ATOM     17  C   UNL     1       8.311   9.324  17.792  0.00  0.00    +0.000 C 
BRANCH  17  18
ATOM     18  C   UNL     1       9.166   9.621  19.028  0.00  0.00    +0.000 C 
BRANCH  18  26
ATOM     19  C   UNL     1       8.997  12.644  22.326  0.00  0.00    +0.000 A 
ATOM     20  C   UNL     1       9.591  13.880  22.111  0.00  0.00    +0.000 A 
ATOM     21  C   UNL     1      10.211  14.145  20.889  0.00  0.00    +0.000 A 
ATOM     22  C   UNL     1      10.256  13.212  19.866  0.00  0.00    +0.000 A 
ATOM     23  N   UNL     1      10.871  13.574  18.729  0.00  0.00    +0.000 NA
ATOM     24  C   UNL     1      10.925  12.679  17.727  0.00  0.00    +0.000 A 
ATOM     25  C   UNL     1      10.378  11.415  17.801  0.00  0.00    +0.000 A 
ATOM     26  C   UNL     1       9.729  11.026  18.980  0.00  0.00    +0.000 A 
ATOM     27  C   UNL     1       9.667  11.941  20.066  0.00  0.00    +0.000 A 
ATOM     28  C   UNL     1       9.055  11.676  21.318  0.00  0.00    +0.000 A 
BRANCH  19  30
ATOM     29  C   UNL     1       6.968  11.991  23.351  0.00  0.00    +0.000 C 
ATOM     30  O   UNL     1       8.360  12.266  23.476  0.00  0.00    +0.000 OA
ENDBRANCH  19  30
ENDBRANCH  18  26
ENDBRANCH  17  18
ENDBRANCH   1  17
TORSDOF 7
ENDMDL
MODEL 2
REMARK VINA RESULT:      -8.5      1.104      1.242
REMARK  Name = 
REMARK  8 active torsions:
REMARK  status: ('A' for Active; 'I' for Inactive)
REMARK    1  A    between atoms: C_1  and  O_2
REMARK    2  A    between atoms: O_2  and  C_3
REMARK    3  A    between atoms: C_10  and  C_11
REMARK    4  A    between atoms: C_11  and  C_12
REMARK    5  A    between atoms: C_12  and  C_13
REMARK    6  A    between atoms: C_16  and  N_17
REMARK    7  A    between atoms: N_17  and  C_18
REMARK    8  A    between atoms: C_18  and  C_19
REMARK                            x       y       z     vdW  Elec       q    Type
REMARK                         _______ _______ _______ _____ _____    ______ ____
ROOT
ATOM      1  C   UNL     1       7.708   8.226  18.056  0.00  0.00    +0.000 C 
ATOM      2  O   UNL     1       7.425   7.682  16.773  0.00  0.00    +0.000 OA
ATOM      3  C   UNL     1       6.684   6.474  16.888  0.00  0.00    +0.000 C 
ATOM      4  C   UNL     1       7.434   5.426  17.730  0.00  0.00    +0.000 C 
ATOM      5  C   UNL     1       7.869   6.099  19.047  0.00  0.00    +0.000 C 
ATOM      6  O   UNL     1       8.537   7.337  18.801  0.00  0.00    +0.000 OA
ENDROOT
BRANCH   4   7
ATOM      7  N   UNL     1       6.628   4.220  17.997  0.00  0.00    +0.000 NA
ATOM      8  H   UNL     1       5.954   4.085  17.239  0.00  0.00    +0.000 HD
BRANCH   7   9
ATOM      9  C   UNL     1       5.855   4.342  19.241  0.00  0.00    +0.000 C 
BRANCH   9  10
ATOM     10  C   UNL     1       4.444   3.819  19.077  0.00  0.00    +0.000 A 
ATOM     11  C   UNL     1       3.467   4.620  18.482  0.00  0.00    +0.000 A 
ATOM     12  C   UNL     1       2.178   4.113  18.331  0.00  0.00    +0.000 A 
ATOM     13  C   UNL     1       1.900   2.832  18.789  0.00  0.00    +0.000 A 
ATOM     14 CL   UNL     1       0.328   2.167  18.619  0.00  0.00    +0.000 Cl
ATOM     15  C   UNL     1       2.919   2.108  19.387  0.00  0.00    +0.000 A 
ATOM     16  N   UNL     1       4.185   2.571  19.544  0.00  0.00    +0.000 NA
ENDBRANCH   9  10
ENDBRANCH   7   9
ENDBRANCH   4   7
BRANCH   1  17
ATOM     17  C   UNL     1       8.469   9.535  17.862  0.00  0.00    +0.000 C 
BRANCH  17  18
ATOM     18  C   UNL     1       9.212   9.963  19.130  0.00  0.00    +0.000 C 
BRANCH  18  26
ATOM     19  C   UNL     1       9.359  13.322  22.087  0.00  0.00    +0.000 A 
ATOM     20  C   UNL     1      10.070  14.464  21.743  0.00  0.00    +0.000 A 
ATOM     21  C   UNL     1      10.705  14.536  20.502  0.00  0.00    +0.000 A 
ATOM     22  C   UNL     1      10.652  13.499  19.585  0.00  0.00    +0.000 A 
ATOM     23  N   UNL     1      11.291  13.676  18.418  0.00  0.00    +0.000 NA
ATOM     24  C   UNL     1      11.251  12.678  17.517  0.00  0.00    +0.000 A 
ATOM     25  C   UNL     1      10.584  11.489  17.724  0.00  0.00    +0.000 A 
ATOM     26  C   UNL     1       9.908  11.293  18.935  0.00  0.00    +0.000 A 
ATOM     27  C   UNL     1       9.943  12.320  19.917  0.00  0.00    +0.000 A 
ATOM     28  C   UNL     1       9.316  12.251  21.188  0.00  0.00    +0.000 A 
BRANCH  19  30
ATOM     29  C   UNL     1       7.761  14.148  23.622  0.00  0.00    +0.000 C 
ATOM     30  O   UNL     1       8.697  13.133  23.268  0.00  0.00    +0.000 OA
ENDBRANCH  19  30
ENDBRANCH  18  26
ENDBRANCH  17  18
ENDBRANCH   1  17
TORSDOF 7
ENDMDL
MODEL 3
REMARK VINA RESULT:      -8.3      1.243      1.458
REMARK  Name = 
REMARK  8 active torsions:
REMARK  status: ('A' for Active; 'I' for Inactive)
REMARK    1  A    between atoms: C_1  and  O_2
REMARK    2  A    between atoms: O_2  and  C_3
REMARK    3  A    between atoms: C_10  and  C_11
REMARK    4  A    between atoms: C_11  and  C_12
REMARK    5  A    between atoms: C_12  and  C_13
REMARK    6  A    between atoms: C_16  and  N_17
REMARK    7  A    between atoms: N_17  and  C_18
REMARK    8  A    between atoms: C_18  and  C_19
REMARK                            x       y       z     vdW  Elec       q    Type
REMARK                         _______ _______ _______ _____ _____    ______ ____
ROOT
ATOM      1  C   UNL     1       7.719   7.854  17.867  0.00  0.00    +0.000 C 
ATOM      2  O   UNL     1       7.717   7.184  16.612  0.00  0.00    +0.000 OA
ATOM      3  C   UNL     1       6.878   6.037  16.653  0.00  0.00    +0.000 C 
ATOM      4  C   UNL     1       7.315   5.054  17.754  0.00  0.00    +0.000 C 
ATOM      5  C   UNL     1       7.464   5.848  19.066  0.00  0.00    +0.000 C 
ATOM      6  O   UNL     1       8.267   7.013  18.879  0.00  0.00    +0.000 OA
ENDROOT
BRANCH   4   7
ATOM      7  N   UNL     1       6.376   3.929  17.924  0.00  0.00    +0.000 NA
ATOM      8  H   UNL     1       6.767   3.089  17.489  0.00  0.00    +0.000 HD
BRANCH   7   9
ATOM      9  C   UNL     1       5.085   4.189  17.271  0.00  0.00    +0.000 C 
BRANCH   9  10
ATOM     10  C   UNL     1       4.114   4.879  18.204  0.00  0.00    +0.000 A 
ATOM     11  C   UNL     1       3.763   4.279  19.415  0.00  0.00    +0.000 A 
ATOM     12  C   UNL     1       2.876   4.938  20.264  0.00  0.00    +0.000 A 
ATOM     13  C   UNL     1       2.357   6.165  19.875  0.00  0.00    +0.000 A 
ATOM     14 CL   UNL     1       1.266   7.013  20.891  0.00  0.00    +0.000 Cl
ATOM     15  C   UNL     1       2.740   6.686  18.648  0.00  0.00    +0.000 A 
ATOM     16  N   UNL     1       3.604   6.071  17.802  0.00  0.00    +0.000 NA
ENDBRANCH   9  10
ENDBRANCH   7   9
ENDBRANCH   4   7
BRANCH   1  17
ATOM     17  C   UNL     1       8.604   9.092  17.745  0.00  0.00    +0.000 C 
BRANCH  17  18
ATOM     18  C   UNL     1       8.961   9.681  19.112  0.00  0.00    +0.000 C 
BRANCH  18  26
ATOM     19  C   UNL     1       9.145  12.908  22.211  0.00  0.00    +0.000 A 
ATOM     20  C   UNL     1       9.855  14.062  21.910  0.00  0.00    +0.000 A 
ATOM     21  C   UNL     1      10.478  14.187  20.667  0.00  0.00    +0.000 A 
ATOM     22  C   UNL     1      10.414  13.191  19.706  0.00  0.00    +0.000 A 
ATOM     23  N   UNL     1      11.042  13.418  18.542  0.00  0.00    +0.000 NA
ATOM     24  C   UNL     1      10.991  12.460  17.599  0.00  0.00    +0.000 A 
ATOM     25  C   UNL     1      10.324  11.264  17.760  0.00  0.00    +0.000 A 
ATOM     26  C   UNL     1       9.659  11.017  18.968  0.00  0.00    +0.000 A 
ATOM     27  C   UNL     1       9.705  12.000  19.994  0.00  0.00    +0.000 A 
ATOM     28  C   UNL     1       9.091  11.877  21.266  0.00  0.00    +0.000 A 
BRANCH  19  30
ATOM     29  C   UNL     1       7.795  13.779  23.946  0.00  0.00    +0.000 C 
ATOM     30  O   UNL     1       8.494  12.669  23.389  0.00  0.00    +0.000 OA
ENDBRANCH  19  30
ENDBRANCH  18  26
ENDBRANCH  17  18
ENDBRANCH   1  17
TORSDOF 7
ENDMDL
MODEL 4
REMARK VINA RESULT:      -8.2      1.126      1.350
REMARK  Name = 
REMARK  8 active torsions:
REMARK  status: ('A' for Active; 'I' for Inactive)
REMARK    1  A    between atoms: C_1  and  O_2
REMARK    2  A    between atoms: O_2  and  C_3
REMARK    3  A    between atoms: C_10  and  C_11
REMARK    4  A    between atoms: C_11  and  C_12
REMARK    5  A    between atoms: C_12  and  C_13
REMARK    6  A    between atoms: C_16  and  N_17
REMARK    7  A    between atoms: N_17  and  C_18
REMARK    8  A    between atoms: C_18  and  C_19
REMARK                            x       y       z     vdW  Elec       q    Type
REMARK                         _______ _______ _______ _____ _____    ______ ____
ROOT
ATOM      1  C   UNL     1       7.658   8.262  18.060  0.00  0.00    +0.000 C 
ATOM      2  O   UNL     1       7.306   7.719  16.794  0.00  0.00    +0.000 OA
ATOM      3  C   UNL     1       6.572   6.511  16.948  0.00  0.00    +0.000 C 
ATOM      4  C   UNL     1       7.366   5.463  17.749  0.00  0.00    +0.000 C 
ATOM      5  C   UNL     1       7.871   6.135  19.040  0.00  0.00    +0.000 C 
ATOM      6  O   UNL     1       8.526   7.373  18.759  0.00  0.00    +0.000 OA
ENDROOT
BRANCH   4   7
ATOM      7  N   UNL     1       6.575   4.257  18.059  0.00  0.00    +0.000 NA
ATOM      8  H   UNL     1       5.907   4.084  17.303  0.00  0.00    +0.000 HD
BRANCH   7   9
ATOM      9  C   UNL     1       5.794   4.416  19.294  0.00  0.00    +0.000 C 
BRANCH   9  10
ATOM     10  C   UNL     1       4.391   3.870  19.143  0.00  0.00    +0.000 A 
ATOM     11  C   UNL     1       3.300   4.741  19.129  0.00  0.00    +0.000 A 
ATOM     12  C   UNL     1       2.018   4.217  18.978  0.00  0.00    +0.000 A 
ATOM     13  C   UNL     1       1.862   2.843  18.860  0.00  0.00    +0.000 A 
ATOM     14 CL   UNL     1       0.303   2.155  18.667  0.00  0.00    +0.000 Cl
ATOM     15  C   UNL     1       2.994   2.043  18.903  0.00  0.00    +0.000 A 
ATOM     16  N   UNL     1       4.255   2.523  19.045  0.00  0.00    +0.000 NA
ENDBRANCH   9  10
ENDBRANCH   7   9
ENDBRANCH   4   7
BRANCH   1  17
ATOM     17  C   UNL     1       8.407   9.571  17.825  0.00  0.00    +0.000 C 
BRANCH  17  18
ATOM     18  C   UNL     1       9.375   9.894  18.968  0.00  0.00    +0.000 C 
BRANCH  18  26
ATOM     19  C   UNL     1       8.518  12.015  22.817  0.00  0.00    +0.000 A 
ATOM     20  C   UNL     1       8.680  13.393  22.854  0.00  0.00    +0.000 A 
ATOM     21  C   UNL     1       9.093  14.071  21.706  0.00  0.00    +0.000 A 
ATOM     22  C   UNL     1       9.351  13.415  20.513  0.00  0.00    +0.000 A 
ATOM     23  N   UNL     1       9.735  14.165  19.469  0.00  0.00    +0.000 NA
ATOM     24  C   UNL     1       9.990  13.543  18.304  0.00  0.00    +0.000 A 
ATOM     25  C   UNL     1       9.872  12.180  18.123  0.00  0.00    +0.000 A 
ATOM     26  C   UNL     1       9.466  11.387  19.203  0.00  0.00    +0.000 A 
ATOM     27  C   UNL     1       9.203  12.008  20.454  0.00  0.00    +0.000 A 
ATOM     28  C   UNL     1       8.800  11.328  21.631  0.00  0.00    +0.000 A 
BRANCH  19  30
ATOM     29  C   UNL     1       7.081  11.787  24.682  0.00  0.00    +0.000 C 
ATOM     30  O   UNL     1       8.119  11.241  23.872  0.00  0.00    +0.000 OA
ENDBRANCH  19  30
ENDBRANCH  18  26
ENDBRANCH  17  18
ENDBRANCH   1  17
TORSDOF 7
ENDMDL
MODEL 5
REMARK VINA RESULT:      -8.1      2.385      2.677
REMARK  Name = 
REMARK  8 active torsions:
REMARK  status: ('A' for Active; 'I' for Inactive)
REMARK    1  A    between atoms: C_1  and  O_2
REMARK    2  A    between atoms: O_2  and  C_3
REMARK    3  A    between atoms: C_10  and  C_11
REMARK    4  A    between atoms: C_11  and  C_12
REMARK    5  A    between atoms: C_12  and  C_13
REMARK    6  A    between atoms: C_16  and  N_17
REMARK    7  A    between atoms: N_17  and  C_18
REMARK    8  A    between atoms: C_18  and  C_19
REMARK                            x       y       z     vdW  Elec       q    Type
REMARK                         _______ _______ _______ _____ _____    ______ ____
ROOT
ATOM      1  C   UNL     1       7.634   7.648  17.973  0.00  0.00    +0.000 C 
ATOM      2  O   UNL     1       7.828   7.186  16.642  0.00  0.00    +0.000 OA
ATOM      3  C   UNL     1       6.952   6.104  16.350  0.00  0.00    +0.000 C 
ATOM      4  C   UNL     1       7.151   4.933  17.329  0.00  0.00    +0.000 C 
ATOM      5  C   UNL     1       7.098   5.498  18.762  0.00  0.00    +0.000 C 
ATOM      6  O   UNL     1       7.964   6.624  18.908  0.00  0.00    +0.000 OA
ENDROOT
BRANCH   4   7
ATOM      7  N   UNL     1       6.155   3.859  17.150  0.00  0.00    +0.000 NA
ATOM      8  H   UNL     1       6.362   3.344  16.291  0.00  0.00    +0.000 HD
BRANCH   7   9
ATOM      9  C   UNL     1       4.793   4.394  17.014  0.00  0.00    +0.000 C 
BRANCH   9  10
ATOM     10  C   UNL     1       3.924   4.018  18.196  0.00  0.00    +0.000 A 
ATOM     11  C   UNL     1       2.815   4.800  18.523  0.00  0.00    +0.000 A 
ATOM     12  C   UNL     1       2.023   4.429  19.608  0.00  0.00    +0.000 A 
ATOM     13  C   UNL     1       2.370   3.302  20.340  0.00  0.00    +0.000 A 
ATOM     14 CL   UNL     1       1.421   2.806  21.681  0.00  0.00    +0.000 Cl
ATOM     15  C   UNL     1       3.498   2.590  19.964  0.00  0.00    +0.000 A 
ATOM     16  N   UNL     1       4.286   2.923  18.911  0.00  0.00    +0.000 NA
ENDBRANCH   9  10
ENDBRANCH   7   9
ENDBRANCH   4   7
BRANCH   1  17
ATOM     17  C   UNL     1       8.572   8.829  18.209  0.00  0.00    +0.000 C 
BRANCH  17  18
ATOM     18  C   UNL     1       8.029  10.126  17.603  0.00  0.00    +0.000 C 
BRANCH  18  26
ATOM     19  C   UNL     1       6.966  14.474  17.718  0.00  0.00    +0.000 A 
ATOM     20  C   UNL     1       7.983  15.389  17.947  0.00  0.00    +0.000 A 
ATOM     21  C   UNL     1       9.292  14.938  18.127  0.00  0.00    +0.000 A 
ATOM     22  C   UNL     1       9.621  13.593  18.083  0.00  0.00    +0.000 A 
ATOM     23  N   UNL     1      10.911  13.269  18.261  0.00  0.00    +0.000 NA
ATOM     24  C   UNL     1      11.248  11.967  18.223  0.00  0.00    +0.000 A 
ATOM     25  C   UNL     1      10.342  10.950  18.006  0.00  0.00    +0.000 A 
ATOM     26  C   UNL     1       8.993  11.274  17.813  0.00  0.00    +0.000 A 
ATOM     27  C   UNL     1       8.599  12.639  17.862  0.00  0.00    +0.000 A 
ATOM     28  C   UNL     1       7.270  13.109  17.698  0.00  0.00    +0.000 A 
BRANCH  19  30
ATOM     29  C   UNL     1       5.117  15.779  18.407  0.00  0.00    +0.000 C 
ATOM     30  O   UNL     1       5.649  14.792  17.527  0.00  0.00    +0.000 OA
ENDBRANCH  19  30
ENDBRANCH  18  26
ENDBRANCH  17  18
ENDBRANCH   1  17
TORSDOF 7
ENDMDL
MODEL 6
REMARK VINA RESULT:      -7.9      7.452     10.818
REMARK  Name = 
REMARK  8 active torsions:
REMARK  status: ('A' for Active; 'I' for Inactive)
REMARK    1  A    between atoms: C_1  and  O_2
REMARK    2  A    between atoms: O_2  and  C_3
REMARK    3  A    between atoms: C_10  and  C_11
REMARK    4  A    between atoms: C_11  and  C_12
REMARK    5  A    between atoms: C_12  and  C_13
REMARK    6  A    between atoms: C_16  and  N_17
REMARK    7  A    between atoms: N_17  and  C_18
REMARK    8  A    between atoms: C_18  and  C_19
REMARK                            x       y       z     vdW  Elec       q    Type
REMARK                         _______ _______ _______ _____ _____    ______ ____
ROOT
ATOM      1  C   UNL     1       1.116   9.730  18.607  0.00  0.00    +0.000 C 
ATOM      2  O   UNL     1      -0.110  10.078  17.976  0.00  0.00    +0.000 OA
ATOM      3  C   UNL     1      -0.690  11.221  18.592  0.00  0.00    +0.000 C 
ATOM      4  C   UNL     1      -0.938  10.991  20.094  0.00  0.00    +0.000 C 
ATOM      5  C   UNL     1       0.368  10.459  20.714  0.00  0.00    +0.000 C 
ATOM      6  O   UNL     1       0.888   9.361  19.964  0.00  0.00    +0.000 OA
ENDROOT
BRANCH   4   7
ATOM      7  N   UNL     1      -1.395  12.208  20.793  0.00  0.00    +0.000 NA
ATOM      8  H   UNL     1      -0.699  12.949  20.676  0.00  0.00    +0.000 HD
BRANCH   7   9
ATOM      9  C   UNL     1      -1.546  11.984  22.238  0.00  0.00    +0.000 C 
BRANCH   9  10
ATOM     10  C   UNL     1      -2.941  12.326  22.714  0.00  0.00    +0.000 A 
ATOM     11  C   UNL     1      -3.259  12.233  24.070  0.00  0.00    +0.000 A 
ATOM     12  C   UNL     1      -4.547  12.563  24.487  0.00  0.00    +0.000 A 
ATOM     13  C   UNL     1      -5.480  12.961  23.540  0.00  0.00    +0.000 A 
ATOM     14 CL   UNL     1      -7.076  13.382  24.009  0.00  0.00    +0.000 Cl
ATOM     15  C   UNL     1      -5.092  13.009  22.209  0.00  0.00    +0.000 A 
ATOM     16  N   UNL     1      -3.846  12.698  21.773  0.00  0.00    +0.000 NA
ENDBRANCH   9  10
ENDBRANCH   7   9
ENDBRANCH   4   7
BRANCH   1  17
ATOM     17  C   UNL     1       1.702   8.525  17.877  0.00  0.00    +0.000 C 
BRANCH  17  18
ATOM     18  C   UNL     1       2.389   7.549  18.836  0.00  0.00    +0.000 C 
BRANCH  18  26
ATOM     19  C   UNL     1       2.066   3.090  19.079  0.00  0.00    +0.000 A 
ATOM     20  C   UNL     1       2.921   2.329  18.295  0.00  0.00    +0.000 A 
ATOM     21  C   UNL     1       3.849   2.965  17.467  0.00  0.00    +0.000 A 
ATOM     22  C   UNL     1       3.954   4.345  17.398  0.00  0.00    +0.000 A 
ATOM     23  N   UNL     1       4.886   4.851  16.576  0.00  0.00    +0.000 NA
ATOM     24  C   UNL     1       4.999   6.189  16.497  0.00  0.00    +0.000 A 
ATOM     25  C   UNL     1       4.216   7.066  17.218  0.00  0.00    +0.000 A 
ATOM     26  C   UNL     1       3.243   6.551  18.084  0.00  0.00    +0.000 A 
ATOM     27  C   UNL     1       3.085   5.142  18.181  0.00  0.00    +0.000 A 
ATOM     28  C   UNL     1       2.134   4.485  19.005  0.00  0.00    +0.000 A 
BRANCH  19  30
ATOM     29  C   UNL     1       1.335   2.834  21.314  0.00  0.00    +0.000 C 
ATOM     30  O   UNL     1       1.119   2.586  19.927  0.00  0.00    +0.000 OA
ENDBRANCH  19  30
ENDBRANCH  18  26
ENDBRANCH  17  18
ENDBRANCH   1  17
TORSDOF 7
ENDMDL
MODEL 7
REMARK VINA RESULT:      -7.9      2.358      2.751
REMARK  Name = 
REMARK  8 active torsions:
REMARK  status: ('A' for Active; 'I' for Inactive)
REMARK    1  A    between atoms: C_1  and  O_2
REMARK    2  A    between atoms: O_2  and  C_3
REMARK    3  A    between atoms: C_10  and  C_11
REMARK    4  A    between atoms: C_11  and  C_12
REMARK    5  A    between atoms: C_12  and  C_13
REMARK    6  A    between atoms: C_16  and  N_17
REMARK    7  A    between atoms: N_17  and  C_18
REMARK    8  A    between atoms: C_18  and  C_19
REMARK                            x       y       z     vdW  Elec       q    Type
REMARK                         _______ _______ _______ _____ _____    ______ ____
ROOT
ATOM      1  C   UNL     1       8.195   7.772  17.990  0.00  0.00    +0.000 C 
ATOM      2  O   UNL     1       8.143   6.824  19.049  0.00  0.00    +0.000 OA
ATOM      3  C   UNL     1       7.828   5.528  18.553  0.00  0.00    +0.000 C 
ATOM      4  C   UNL     1       6.487   5.521  17.797  0.00  0.00    +0.000 C 
ATOM      5  C   UNL     1       6.516   6.668  16.768  0.00  0.00    +0.000 C 
ATOM      6  O   UNL     1       6.916   7.898  17.373  0.00  0.00    +0.000 OA
ENDROOT
BRANCH   4   7
ATOM      7  N   UNL     1       6.206   4.231  17.139  0.00  0.00    +0.000 NA
ATOM      8  H   UNL     1       6.819   4.122  16.326  0.00  0.00    +0.000 HD
BRANCH   7   9
ATOM      9  C   UNL     1       4.823   4.158  16.646  0.00  0.00    +0.000 C 
BRANCH   9  10
ATOM     10  C   UNL     1       3.850   3.831  17.758  0.00  0.00    +0.000 A 
ATOM     11  C   UNL     1       2.475   3.857  17.514  0.00  0.00    +0.000 A 
ATOM     12  C   UNL     1       1.598   3.542  18.550  0.00  0.00    +0.000 A 
ATOM     13  C   UNL     1       2.117   3.224  19.798  0.00  0.00    +0.000 A 
ATOM     14 CL   UNL     1       1.074   2.825  21.100  0.00  0.00    +0.000 Cl
ATOM     15  C   UNL     1       3.493   3.239  19.965  0.00  0.00    +0.000 A 
ATOM     16  N   UNL     1       4.372   3.538  18.977  0.00  0.00    +0.000 NA
ENDBRANCH   9  10
ENDBRANCH   7   9
ENDBRANCH   4   7
BRANCH   1  17
ATOM     17  C   UNL     1       8.573   9.127  18.583  0.00  0.00    +0.000 C 
BRANCH  17  18
ATOM     18  C   UNL     1       8.289  10.278  17.614  0.00  0.00    +0.000 C 
BRANCH  18  26
ATOM     19  C   UNL     1       7.020  14.571  17.736  0.00  0.00    +0.000 A 
ATOM     20  C   UNL     1       7.980  15.527  18.036  0.00  0.00    +0.000 A 
ATOM     21  C   UNL     1       9.297  15.133  18.282  0.00  0.00    +0.000 A 
ATOM     22  C   UNL     1       9.690  13.805  18.237  0.00  0.00    +0.000 A 
ATOM     23  N   UNL     1      10.982  13.537  18.481  0.00  0.00    +0.000 NA
ATOM     24  C   UNL     1      11.379  12.252  18.443  0.00  0.00    +0.000 A 
ATOM     25  C   UNL     1      10.535  11.199  18.159  0.00  0.00    +0.000 A 
ATOM     26  C   UNL     1       9.185  11.465  17.895  0.00  0.00    +0.000 A 
ATOM     27  C   UNL     1       8.726  12.810  17.943  0.00  0.00    +0.000 A 
ATOM     28  C   UNL     1       7.389  13.221  17.712  0.00  0.00    +0.000 A 
BRANCH  19  30
ATOM     29  C   UNL     1       5.015  15.588  18.469  0.00  0.00    +0.000 C 
ATOM     30  O   UNL     1       5.704  14.832  17.476  0.00  0.00    +0.000 OA
ENDBRANCH  19  30
ENDBRANCH  18  26
ENDBRANCH  17  18
ENDBRANCH   1  17
TORSDOF 7
ENDMDL
MODEL 8
REMARK VINA RESULT:      -7.9      6.915     10.092
REMARK  Name = 
REMARK  8 active torsions:
REMARK  status: ('A' for Active; 'I' for Inactive)
REMARK    1  A    between atoms: C_1  and  O_2
REMARK    2  A    between atoms: O_2  and  C_3
REMARK    3  A    between atoms: C_10  and  C_11
REMARK    4  A    between atoms: C_11  and  C_12
REMARK    5  A    between atoms: C_12  and  C_13
REMARK    6  A    between atoms: C_16  and  N_17
REMARK    7  A    between atoms: N_17  and  C_18
REMARK    8  A    between atoms: C_18  and  C_19
REMARK                            x       y       z     vdW  Elec       q    Type
REMARK                         _______ _______ _______ _____ _____    ______ ____
ROOT
ATOM      1  C   UNL     1       1.439   9.142  18.462  0.00  0.00    +0.000 C 
ATOM      2  O   UNL     1       1.326   8.865  19.852  0.00  0.00    +0.000 OA
ATOM      3  C   UNL     1       0.257   9.604  20.430  0.00  0.00    +0.000 C 
ATOM      4  C   UNL     1       0.441  11.119  20.226  0.00  0.00    +0.000 C 
ATOM      5  C   UNL     1       0.724  11.366  18.732  0.00  0.00    +0.000 C 
ATOM      6  O   UNL     1       1.765  10.514  18.254  0.00  0.00    +0.000 OA
ENDROOT
BRANCH   4   7
ATOM      7  N   UNL     1      -0.724  11.904  20.677  0.00  0.00    +0.000 NA
ATOM      8  H   UNL     1      -1.400  11.282  21.130  0.00  0.00    +0.000 HD
BRANCH   7   9
ATOM      9  C   UNL     1      -1.420  12.547  19.553  0.00  0.00    +0.000 C 
BRANCH   9  10
ATOM     10  C   UNL     1      -2.921  12.393  19.662  0.00  0.00    +0.000 A 
ATOM     11  C   UNL     1      -3.585  12.824  20.813  0.00  0.00    +0.000 A 
ATOM     12  C   UNL     1      -4.969  12.683  20.887  0.00  0.00    +0.000 A 
ATOM     13  C   UNL     1      -5.646  12.104  19.822  0.00  0.00    +0.000 A 
ATOM     14 CL   UNL     1      -7.350  11.915  19.869  0.00  0.00    +0.000 Cl
ATOM     15  C   UNL     1      -4.912  11.683  18.723  0.00  0.00    +0.000 A 
ATOM     16  N   UNL     1      -3.566  11.811  18.619  0.00  0.00    +0.000 NA
ENDBRANCH   9  10
ENDBRANCH   7   9
ENDBRANCH   4   7
BRANCH   1  17
ATOM     17  C   UNL     1       2.574   8.292  17.897  0.00  0.00    +0.000 C 
BRANCH  17  18
ATOM     18  C   UNL     1       2.980   7.166  18.853  0.00  0.00    +0.000 C 
BRANCH  18  26
ATOM     19  C   UNL     1       6.653   5.918  16.616  0.00  0.00    +0.000 A 
ATOM     20  C   UNL     1       6.658   4.668  16.014  0.00  0.00    +0.000 A 
ATOM     21  C   UNL     1       5.533   3.847  16.116  0.00  0.00    +0.000 A 
ATOM     22  C   UNL     1       4.394   4.237  16.802  0.00  0.00    +0.000 A 
ATOM     23  N   UNL     1       3.367   3.374  16.830  0.00  0.00    +0.000 NA
ATOM     24  C   UNL     1       2.255   3.736  17.493  0.00  0.00    +0.000 A 
ATOM     25  C   UNL     1       2.110   4.947  18.138  0.00  0.00    +0.000 A 
ATOM     26  C   UNL     1       3.172   5.860  18.111  0.00  0.00    +0.000 A 
ATOM     27  C   UNL     1       4.369   5.504  17.433  0.00  0.00    +0.000 A 
ATOM     28  C   UNL     1       5.524   6.322  17.338  0.00  0.00    +0.000 A 
BRANCH  19  30
ATOM     29  C   UNL     1       7.586   7.909  17.488  0.00  0.00    +0.000 C 
ATOM     30  O   UNL     1       7.689   6.810  16.586  0.00  0.00    +0.000 OA
ENDBRANCH  19  30
ENDBRANCH  18  26
ENDBRANCH  17  18
ENDBRANCH   1  17
TORSDOF 7
ENDMDL
MODEL 9
REMARK VINA RESULT:      -7.9      3.762      9.596
REMARK  Name = 
REMARK  8 active torsions:
REMARK  status: ('A' for Active; 'I' for Inactive)
REMARK    1  A    between atoms: C_1  and  O_2
REMARK    2  A    between atoms: O_2  and  C_3
REMARK    3  A    between atoms: C_10  and  C_11
REMARK    4  A    between atoms: C_11  and  C_12
REMARK    5  A    between atoms: C_12  and  C_13
REMARK    6  A    between atoms: C_16  and  N_17
REMARK    7  A    between atoms: N_17  and  C_18
REMARK    8  A    between atoms: C_18  and  C_19
REMARK                            x       y       z     vdW  Elec       q    Type
REMARK                         _______ _______ _______ _____ _____    ______ ____
ROOT
ATOM      1  C   UNL     1       6.247   5.557  17.401  0.00  0.00    +0.000 C 
ATOM      2  O   UNL     1       7.612   5.559  17.800  0.00  0.00    +0.000 OA
ATOM      3  C   UNL     1       7.968   6.809  18.377  0.00  0.00    +0.000 C 
ATOM      4  C   UNL     1       7.721   7.975  17.402  0.00  0.00    +0.000 C 
ATOM      5  C   UNL     1       6.282   7.846  16.864  0.00  0.00    +0.000 C 
ATOM      6  O   UNL     1       6.026   6.527  16.381  0.00  0.00    +0.000 OA
ENDROOT
BRANCH   4   7
ATOM      7  N   UNL     1       7.934   9.297  18.022  0.00  0.00    +0.000 NA
ATOM      8  H   UNL     1       8.243   9.962  17.308  0.00  0.00    +0.000 HD
BRANCH   7   9
ATOM      9  C   UNL     1       8.982   9.255  19.052  0.00  0.00    +0.000 C 
BRANCH   9  10
ATOM     10  C   UNL     1       9.562  10.629  19.314  0.00  0.00    +0.000 A 
ATOM     11  C   UNL     1       9.679  11.099  20.624  0.00  0.00    +0.000 A 
ATOM     12  C   UNL     1      10.227  12.361  20.842  0.00  0.00    +0.000 A 
ATOM     13  C   UNL     1      10.627  13.120  19.750  0.00  0.00    +0.000 A 
ATOM     14 CL   UNL     1      11.310  14.677  19.973  0.00  0.00    +0.000 Cl
ATOM     15  C   UNL     1      10.459  12.590  18.480  0.00  0.00    +0.000 A 
ATOM     16  N   UNL     1       9.934  11.364  18.235  0.00  0.00    +0.000 NA
ENDBRANCH   9  10
ENDBRANCH   7   9
ENDBRANCH   4   7
BRANCH   1  17
ATOM     17  C   UNL     1       5.920   4.180  16.828  0.00  0.00    +0.000 C 
BRANCH  17  18
ATOM     18  C   UNL     1       4.428   4.022  16.525  0.00  0.00    +0.000 C 
BRANCH  18  26
ATOM     19  C   UNL     1       2.238   6.567  19.488  0.00  0.00    +0.000 A 
ATOM     20  C   UNL     1       1.577   5.933  20.530  0.00  0.00    +0.000 A 
ATOM     21  C   UNL     1       1.616   4.541  20.630  0.00  0.00    +0.000 A 
ATOM     22  C   UNL     1       2.301   3.755  19.717  0.00  0.00    +0.000 A 
ATOM     23  N   UNL     1       2.281   2.428  19.911  0.00  0.00    +0.000 NA
ATOM     24  C   UNL     1       2.939   1.650  19.033  0.00  0.00    +0.000 A 
ATOM     25  C   UNL     1       3.637   2.143  17.950  0.00  0.00    +0.000 A 
ATOM     26  C   UNL     1       3.671   3.527  17.739  0.00  0.00    +0.000 A 
ATOM     27  C   UNL     1       2.974   4.378  18.638  0.00  0.00    +0.000 A 
ATOM     28  C   UNL     1       2.911   5.791  18.538  0.00  0.00    +0.000 A 
BRANCH  19  30
ATOM     29  C   UNL     1       2.568   8.336  17.954  0.00  0.00    +0.000 C 
ATOM     30  O   UNL     1       2.273   7.919  19.284  0.00  0.00    +0.000 OA
ENDBRANCH  19  30
ENDBRANCH  18  26
ENDBRANCH  17  18
ENDBRANCH   1  17
TORSDOF 7
ENDMDL
