MODEL 1
REMARK VINA RESULT:      -6.0      0.000      0.000
REMARK  Name = 
REMARK  6 active torsions:
REMARK  status: ('A' for Active; 'I' for Inactive)
REMARK    1  A    between atoms: C_1  and  N_2
REMARK    2  A    between atoms: C_3  and  S_4
REMARK    3  A    between atoms: C_7  and  C_8
REMARK    4  A    between atoms: C_8  and  C_9
REMARK    5  A    between atoms: C_9  and  N_10
REMARK    6  A    between atoms: C_11  and  C_13
REMARK                            x       y       z     vdW  Elec       q    Type
REMARK                         _______ _______ _______ _____ _____    ______ ____
ROOT
ATOM      1  C   UNL     1       7.800   4.756  18.308  0.00  0.00    +0.000 C 
ENDROOT
BRANCH   1   2
ATOM      2  N   UNL     1       7.389   4.379  16.966  0.00  0.00    +0.000 N 
ATOM      3  C   UNL     1       7.304   5.288  15.932  0.00  0.00    +0.000 C 
ATOM      4  O   UNL     1       7.504   6.489  16.124  0.00  0.00    +0.000 OA
ATOM      5  H   UNL     1       7.323   3.394  16.734  0.00  0.00    +0.000 HD
BRANCH   3   6
ATOM      6  C   UNL     1       6.960   4.753  14.622  0.00  0.00    +0.000 A 
ATOM      7  C   UNL     1       7.649   4.971  13.443  0.00  0.00    +0.000 A 
ATOM      8  C   UNL     1       7.067   4.301  12.329  0.00  0.00    +0.000 A 
ATOM      9  C   UNL     1       5.946   3.590  12.692  0.00  0.00    +0.000 A 
ATOM     10  S   UNL     1       5.602   3.740  14.362  0.00  0.00    +0.000 S 
ENDBRANCH   3   6
ENDBRANCH   1   2
BRANCH   1  11
ATOM     11  C   UNL     1       6.686   5.429  19.119  0.00  0.00    +0.000 C 
BRANCH  11  17
ATOM     12  C   UNL     1       4.114   6.462  17.770  0.00  0.00    +0.000 C 
ATOM     13  N   UNL     1       4.256   5.158  18.364  0.00  0.00    +0.000 N 
ATOM     14  C   UNL     1       3.353   4.133  18.450  0.00  0.00    +0.000 A 
ATOM     15  N   UNL     1       3.893   3.124  19.094  0.00  0.00    +0.000 NA
ATOM     16  N   UNL     1       5.177   3.469  19.425  0.00  0.00    +0.000 NA
ATOM     17  C   UNL     1       5.399   4.690  18.984  0.00  0.00    +0.000 A 
BRANCH  14  18
ATOM     18  S   UNL     1       1.740   4.111  17.827  0.00  0.00    +0.000 S 
ATOM     19  H   UNL     1       1.908   4.630  16.609  0.00  0.00    +0.000 HD
ENDBRANCH  14  18
ENDBRANCH  11  17
ENDBRANCH   1  11
TORSDOF 5
ENDMDL
MODEL 2
REMARK VINA RESULT:      -5.8      1.098      1.264
REMARK  Name = 
REMARK  6 active torsions:
REMARK  status: ('A' for Active; 'I' for Inactive)
REMARK    1  A    between atoms: C_1  and  N_2
REMARK    2  A    between atoms: C_3  and  S_4
REMARK    3  A    between atoms: C_7  and  C_8
REMARK    4  A    between atoms: C_8  and  C_9
REMARK    5  A    between atoms: C_9  and  N_10
REMARK    6  A    between atoms: C_11  and  C_13
REMARK                            x       y       z     vdW  Elec       q    Type
REMARK                         _______ _______ _______ _____ _____    ______ ____
ROOT
ATOM      1  C   UNL     1       7.286   5.007  18.486  0.00  0.00    +0.000 C 
ENDROOT
BRANCH   1   2
ATOM      2  N   UNL     1       6.980   4.570  17.134  0.00  0.00    +0.000 N 
ATOM      3  C   UNL     1       7.161   5.381  16.032  0.00  0.00    +0.000 C 
ATOM      4  O   UNL     1       7.522   6.552  16.158  0.00  0.00    +0.000 OA
ATOM      5  H   UNL     1       6.790   3.588  16.969  0.00  0.00    +0.000 HD
BRANCH   3   6
ATOM      6  C   UNL     1       6.893   4.781  14.732  0.00  0.00    +0.000 A 
ATOM      7  C   UNL     1       5.888   3.877  14.441  0.00  0.00    +0.000 A 
ATOM      8  C   UNL     1       5.879   3.481  13.073  0.00  0.00    +0.000 A 
ATOM      9  C   UNL     1       6.882   4.094  12.358  0.00  0.00    +0.000 A 
ATOM     10  S   UNL     1       7.825   5.134  13.338  0.00  0.00    +0.000 S 
ENDBRANCH   3   6
ENDBRANCH   1   2
BRANCH   1  11
ATOM     11  C   UNL     1       6.040   5.367  19.304  0.00  0.00    +0.000 C 
BRANCH  11  17
ATOM     12  C   UNL     1       3.135   5.544  18.288  0.00  0.00    +0.000 C 
ATOM     13  N   UNL     1       3.745   4.350  18.808  0.00  0.00    +0.000 N 
ATOM     14  C   UNL     1       3.223   3.092  18.952  0.00  0.00    +0.000 A 
ATOM     15  N   UNL     1       4.122   2.301  19.490  0.00  0.00    +0.000 NA
ATOM     16  N   UNL     1       5.263   3.031  19.694  0.00  0.00    +0.000 NA
ATOM     17  C   UNL     1       5.041   4.262  19.280  0.00  0.00    +0.000 A 
BRANCH  14  18
ATOM     18  S   UNL     1       1.636   2.567  18.508  0.00  0.00    +0.000 S 
ATOM     19  H   UNL     1       1.895   1.725  17.505  0.00  0.00    +0.000 HD
ENDBRANCH  14  18
ENDBRANCH  11  17
ENDBRANCH   1  11
TORSDOF 5
ENDMDL
MODEL 3
REMARK VINA RESULT:      -5.8      0.932      1.557
REMARK  Name = 
REMARK  6 active torsions:
REMARK  status: ('A' for Active; 'I' for Inactive)
REMARK    1  A    between atoms: C_1  and  N_2
REMARK    2  A    between atoms: C_3  and  S_4
REMARK    3  A    between atoms: C_7  and  C_8
REMARK    4  A    between atoms: C_8  and  C_9
REMARK    5  A    between atoms: C_9  and  N_10
REMARK    6  A    between atoms: C_11  and  C_13
REMARK                            x       y       z     vdW  Elec       q    Type
REMARK                         _______ _______ _______ _____ _____    ______ ____
ROOT
ATOM      1  C   UNL     1       7.297   4.680  18.284  0.00  0.00    +0.000 C 
ENDROOT
BRANCH   1   2
ATOM      2  N   UNL     1       6.954   4.336  16.914  0.00  0.00    +0.000 N 
ATOM      3  C   UNL     1       7.166   5.197  15.857  0.00  0.00    +0.000 C 
ATOM      4  O   UNL     1       7.590   6.339  16.043  0.00  0.00    +0.000 OA
ATOM      5  H   UNL     1       6.710   3.376  16.698  0.00  0.00    +0.000 HD
BRANCH   3   6
ATOM      6  C   UNL     1       6.854   4.686  14.530  0.00  0.00    +0.000 A 
ATOM      7  C   UNL     1       7.593   4.893  13.379  0.00  0.00    +0.000 A 
ATOM      8  C   UNL     1       7.031   4.253  12.238  0.00  0.00    +0.000 A 
ATOM      9  C   UNL     1       5.874   3.576  12.551  0.00  0.00    +0.000 A 
ATOM     10  S   UNL     1       5.474   3.721  14.208  0.00  0.00    +0.000 S 
ENDBRANCH   3   6
ENDBRANCH   1   2
BRANCH   1  11
ATOM     11  C   UNL     1       6.115   5.244  19.082  0.00  0.00    +0.000 C 
BRANCH  11  17
ATOM     12  C   UNL     1       4.648   2.695  20.003  0.00  0.00    +0.000 C 
ATOM     13  N   UNL     1       4.161   3.594  18.991  0.00  0.00    +0.000 N 
ATOM     14  C   UNL     1       3.005   3.545  18.259  0.00  0.00    +0.000 A 
ATOM     15  N   UNL     1       2.967   4.561  17.428  0.00  0.00    +0.000 NA
ATOM     16  N   UNL     1       4.099   5.308  17.618  0.00  0.00    +0.000 NA
ATOM     17  C   UNL     1       4.817   4.732  18.560  0.00  0.00    +0.000 A 
BRANCH  14  18
ATOM     18  S   UNL     1       1.753   2.357  18.369  0.00  0.00    +0.000 S 
ATOM     19  H   UNL     1       2.453   1.223  18.425  0.00  0.00    +0.000 HD
ENDBRANCH  14  18
ENDBRANCH  11  17
ENDBRANCH   1  11
TORSDOF 5
ENDMDL
MODEL 4
REMARK VINA RESULT:      -5.8      2.542      5.996
REMARK  Name = 
REMARK  6 active torsions:
REMARK  status: ('A' for Active; 'I' for Inactive)
REMARK    1  A    between atoms: C_1  and  N_2
REMARK    2  A    between atoms: C_3  and  S_4
REMARK    3  A    between atoms: C_7  and  C_8
REMARK    4  A    between atoms: C_8  and  C_9
REMARK    5  A    between atoms: C_9  and  N_10
REMARK    6  A    between atoms: C_11  and  C_13
REMARK                            x       y       z     vdW  Elec       q    Type
REMARK                         _______ _______ _______ _____ _____    ______ ____
ROOT
ATOM      1  C   UNL     1       6.099   5.504  18.816  0.00  0.00    +0.000 C 
ENDROOT
BRANCH   1   2
ATOM      2  N   UNL     1       4.776   5.124  19.283  0.00  0.00    +0.000 N 
ATOM      3  C   UNL     1       4.429   3.814  19.546  0.00  0.00    +0.000 C 
ATOM      4  O   UNL     1       5.213   2.892  19.320  0.00  0.00    +0.000 OA
ATOM      5  H   UNL     1       4.138   5.850  19.588  0.00  0.00    +0.000 HD
BRANCH   3   6
ATOM      6  C   UNL     1       3.096   3.592  20.088  0.00  0.00    +0.000 A 
ATOM      7  C   UNL     1       1.925   4.184  19.650  0.00  0.00    +0.000 A 
ATOM      8  C   UNL     1       0.780   3.753  20.378  0.00  0.00    +0.000 A 
ATOM      9  C   UNL     1       1.111   2.844  21.357  0.00  0.00    +0.000 A 
ATOM     10  S   UNL     1       2.791   2.522  21.392  0.00  0.00    +0.000 S 
ENDBRANCH   3   6
ENDBRANCH   1   2
BRANCH   1  11
ATOM     11  C   UNL     1       6.069   6.499  17.650  0.00  0.00    +0.000 C 
BRANCH  11  17
ATOM     12  C   UNL     1       4.454   4.487  15.964  0.00  0.00    +0.000 C 
ATOM     13  N   UNL     1       5.767   4.965  15.624  0.00  0.00    +0.000 N 
ATOM     14  C   UNL     1       6.551   4.674  14.540  0.00  0.00    +0.000 A 
ATOM     15  N   UNL     1       7.691   5.318  14.635  0.00  0.00    +0.000 NA
ATOM     16  N   UNL     1       7.664   6.063  15.785  0.00  0.00    +0.000 NA
ATOM     17  C   UNL     1       6.507   5.855  16.379  0.00  0.00    +0.000 A 
BRANCH  14  18
ATOM     18  S   UNL     1       6.155   3.631  13.218  0.00  0.00    +0.000 S 
ATOM     19  H   UNL     1       6.107   4.487  12.196  0.00  0.00    +0.000 HD
ENDBRANCH  14  18
ENDBRANCH  11  17
ENDBRANCH   1  11
TORSDOF 5
ENDMDL
MODEL 5
REMARK VINA RESULT:      -5.7      2.153      5.696
REMARK  Name = 
REMARK  6 active torsions:
REMARK  status: ('A' for Active; 'I' for Inactive)
REMARK    1  A    between atoms: C_1  and  N_2
REMARK    2  A    between atoms: C_3  and  S_4
REMARK    3  A    between atoms: C_7  and  C_8
REMARK    4  A    between atoms: C_8  and  C_9
REMARK    5  A    between atoms: C_9  and  N_10
REMARK    6  A    between atoms: C_11  and  C_13
REMARK                            x       y       z     vdW  Elec       q    Type
REMARK                         _______ _______ _______ _____ _____    ______ ____
ROOT
ATOM      1  C   UNL     1       6.159   5.868  18.427  0.00  0.00    +0.000 C 
ENDROOT
BRANCH   1   2
ATOM      2  N   UNL     1       4.996   5.189  18.975  0.00  0.00    +0.000 N 
ATOM      3  C   UNL     1       3.726   5.362  18.465  0.00  0.00    +0.000 C 
ATOM      4  O   UNL     1       3.510   6.169  17.559  0.00  0.00    +0.000 OA
ATOM      5  H   UNL     1       5.138   4.438  19.641  0.00  0.00    +0.000 HD
BRANCH   3   6
ATOM      6  C   UNL     1       2.671   4.554  19.060  0.00  0.00    +0.000 A 
ATOM      7  C   UNL     1       1.961   3.547  18.432  0.00  0.00    +0.000 A 
ATOM      8  C   UNL     1       0.998   2.934  19.284  0.00  0.00    +0.000 A 
ATOM      9  C   UNL     1       1.001   3.494  20.542  0.00  0.00    +0.000 A 
ATOM     10  S   UNL     1       2.153   4.752  20.682  0.00  0.00    +0.000 S 
ENDBRANCH   3   6
ENDBRANCH   1   2
BRANCH   1  11
ATOM     11  C   UNL     1       7.186   4.911  17.810  0.00  0.00    +0.000 C 
BRANCH  11  17
ATOM     12  C   UNL     1       5.438   2.996  16.143  0.00  0.00    +0.000 C 
ATOM     13  N   UNL     1       6.274   4.028  15.589  0.00  0.00    +0.000 N 
ATOM     14  C   UNL     1       6.466   4.391  14.282  0.00  0.00    +0.000 A 
ATOM     15  N   UNL     1       7.332   5.375  14.222  0.00  0.00    +0.000 NA
ATOM     16  N   UNL     1       7.710   5.688  15.501  0.00  0.00    +0.000 NA
ATOM     17  C   UNL     1       7.072   4.883  16.324  0.00  0.00    +0.000 A 
BRANCH  14  18
ATOM     18  S   UNL     1       5.712   3.699  12.888  0.00  0.00    +0.000 S 
ATOM     19  H   UNL     1       5.548   2.429  13.265  0.00  0.00    +0.000 HD
ENDBRANCH  14  18
ENDBRANCH  11  17
ENDBRANCH   1  11
TORSDOF 5
ENDMDL
MODEL 6
REMARK VINA RESULT:      -5.7      1.638      2.018
REMARK  Name = 
REMARK  6 active torsions:
REMARK  status: ('A' for Active; 'I' for Inactive)
REMARK    1  A    between atoms: C_1  and  N_2
REMARK    2  A    between atoms: C_3  and  S_4
REMARK    3  A    between atoms: C_7  and  C_8
REMARK    4  A    between atoms: C_8  and  C_9
REMARK    5  A    between atoms: C_9  and  N_10
REMARK    6  A    between atoms: C_11  and  C_13
REMARK                            x       y       z     vdW  Elec       q    Type
REMARK                         _______ _______ _______ _____ _____    ______ ____
ROOT
ATOM      1  C   UNL     1       5.095   6.257  17.408  0.00  0.00    +0.000 C 
ENDROOT
BRANCH   1   2
ATOM      2  N   UNL     1       5.270   5.650  16.098  0.00  0.00    +0.000 N 
ATOM      3  C   UNL     1       6.510   5.491  15.513  0.00  0.00    +0.000 C 
ATOM      4  O   UNL     1       7.527   5.932  16.051  0.00  0.00    +0.000 OA
ATOM      5  H   UNL     1       4.483   5.175  15.670  0.00  0.00    +0.000 HD
BRANCH   3   6
ATOM      6  C   UNL     1       6.541   4.792  14.236  0.00  0.00    +0.000 A 
ATOM      7  C   UNL     1       5.619   3.862  13.791  0.00  0.00    +0.000 A 
ATOM      8  C   UNL     1       5.920   3.362  12.492  0.00  0.00    +0.000 A 
ATOM      9  C   UNL     1       7.068   3.924  11.983  0.00  0.00    +0.000 A 
ATOM     10  S   UNL     1       7.773   5.041  13.071  0.00  0.00    +0.000 S 
ENDBRANCH   3   6
ENDBRANCH   1   2
BRANCH   1  11
ATOM     11  C   UNL     1       5.173   5.248  18.559  0.00  0.00    +0.000 C 
BRANCH  11  17
ATOM     12  C   UNL     1       2.463   5.070  20.018  0.00  0.00    +0.000 C 
ATOM     13  N   UNL     1       2.934   4.112  19.054  0.00  0.00    +0.000 N 
ATOM     14  C   UNL     1       2.327   2.981  18.576  0.00  0.00    +0.000 A 
ATOM     15  N   UNL     1       3.122   2.384  17.719  0.00  0.00    +0.000 NA
ATOM     16  N   UNL     1       4.264   3.131  17.607  0.00  0.00    +0.000 NA
ATOM     17  C   UNL     1       4.152   4.172  18.405  0.00  0.00    +0.000 A 
BRANCH  14  18
ATOM     18  S   UNL     1       0.760   2.383  18.997  0.00  0.00    +0.000 S 
ATOM     19  H   UNL     1       1.048   1.514  19.968  0.00  0.00    +0.000 HD
ENDBRANCH  14  18
ENDBRANCH  11  17
ENDBRANCH   1  11
TORSDOF 5
ENDMDL
MODEL 7
REMARK VINA RESULT:      -5.6      1.673      2.354
REMARK  Name = 
REMARK  6 active torsions:
REMARK  status: ('A' for Active; 'I' for Inactive)
REMARK    1  A    between atoms: C_1  and  N_2
REMARK    2  A    between atoms: C_3  and  S_4
REMARK    3  A    between atoms: C_7  and  C_8
REMARK    4  A    between atoms: C_8  and  C_9
REMARK    5  A    between atoms: C_9  and  N_10
REMARK    6  A    between atoms: C_11  and  C_13
REMARK                            x       y       z     vdW  Elec       q    Type
REMARK                         _______ _______ _______ _____ _____    ______ ____
ROOT
ATOM      1  C   UNL     1       5.232   6.536  17.359  0.00  0.00    +0.000 C 
ENDROOT
BRANCH   1   2
ATOM      2  N   UNL     1       5.367   5.891  16.064  0.00  0.00    +0.000 N 
ATOM      3  C   UNL     1       6.592   5.545  15.530  0.00  0.00    +0.000 C 
ATOM      4  O   UNL     1       7.641   5.843  16.103  0.00  0.00    +0.000 OA
ATOM      5  H   UNL     1       4.537   5.527  15.609  0.00  0.00    +0.000 HD
BRANCH   3   6
ATOM      6  C   UNL     1       6.570   4.829  14.262  0.00  0.00    +0.000 A 
ATOM      7  C   UNL     1       5.623   3.903  13.863  0.00  0.00    +0.000 A 
ATOM      8  C   UNL     1       5.872   3.382  12.561  0.00  0.00    +0.000 A 
ATOM      9  C   UNL     1       7.006   3.926  12.003  0.00  0.00    +0.000 A 
ATOM     10  S   UNL     1       7.761   5.050  13.050  0.00  0.00    +0.000 S 
ENDBRANCH   3   6
ENDBRANCH   1   2
BRANCH   1  11
ATOM     11  C   UNL     1       4.979   5.550  18.505  0.00  0.00    +0.000 C 
BRANCH  11  17
ATOM     12  C   UNL     1       4.137   2.834  19.695  0.00  0.00    +0.000 C 
ATOM     13  N   UNL     1       3.273   3.689  18.925  0.00  0.00    +0.000 N 
ATOM     14  C   UNL     1       1.960   3.521  18.575  0.00  0.00    +0.000 A 
ATOM     15  N   UNL     1       1.564   4.539  17.848  0.00  0.00    +0.000 NA
ATOM     16  N   UNL     1       2.616   5.408  17.724  0.00  0.00    +0.000 NA
ATOM     17  C   UNL     1       3.643   4.901  18.374  0.00  0.00    +0.000 A 
BRANCH  14  18
ATOM     18  S   UNL     1       0.932   2.196  18.998  0.00  0.00    +0.000 S 
ATOM     19  H   UNL     1       1.818   1.249  19.315  0.00  0.00    +0.000 HD
ENDBRANCH  14  18
ENDBRANCH  11  17
ENDBRANCH   1  11
TORSDOF 5
ENDMDL
MODEL 8
REMARK VINA RESULT:      -5.6      2.024      4.874
REMARK  Name = 
REMARK  6 active torsions:
REMARK  status: ('A' for Active; 'I' for Inactive)
REMARK    1  A    between atoms: C_1  and  N_2
REMARK    2  A    between atoms: C_3  and  S_4
REMARK    3  A    between atoms: C_7  and  C_8
REMARK    4  A    between atoms: C_8  and  C_9
REMARK    5  A    between atoms: C_9  and  N_10
REMARK    6  A    between atoms: C_11  and  C_13
REMARK                            x       y       z     vdW  Elec       q    Type
REMARK                         _______ _______ _______ _____ _____    ______ ____
ROOT
ATOM      1  C   UNL     1       6.883   5.679  19.552  0.00  0.00    +0.000 C 
ENDROOT
BRANCH   1   2
ATOM      2  N   UNL     1       5.876   4.653  19.338  0.00  0.00    +0.000 N 
ATOM      3  C   UNL     1       4.526   4.933  19.294  0.00  0.00    +0.000 C 
ATOM      4  O   UNL     1       4.107   6.071  19.513  0.00  0.00    +0.000 OA
ATOM      5  H   UNL     1       6.175   3.729  19.044  0.00  0.00    +0.000 HD
BRANCH   3   6
ATOM      6  C   UNL     1       3.640   3.819  18.989  0.00  0.00    +0.000 A 
ATOM      7  C   UNL     1       3.156   2.888  19.890  0.00  0.00    +0.000 A 
ATOM      8  C   UNL     1       2.301   1.924  19.285  0.00  0.00    +0.000 A 
ATOM      9  C   UNL     1       2.158   2.145  17.934  0.00  0.00    +0.000 A 
ATOM     10  S   UNL     1       3.056   3.504  17.408  0.00  0.00    +0.000 S 
ENDBRANCH   3   6
ENDBRANCH   1   2
BRANCH   1  11
ATOM     11  C   UNL     1       7.273   6.423  18.270  0.00  0.00    +0.000 C 
BRANCH  11  17
ATOM     12  C   UNL     1       5.099   6.619  16.093  0.00  0.00    +0.000 C 
ATOM     13  N   UNL     1       6.165   5.652  16.096  0.00  0.00    +0.000 N 
ATOM     14  C   UNL     1       6.457   4.668  15.189  0.00  0.00    +0.000 A 
ATOM     15  N   UNL     1       7.511   3.997  15.591  0.00  0.00    +0.000 NA
ATOM     16  N   UNL     1       7.941   4.548  16.770  0.00  0.00    +0.000 NA
ATOM     17  C   UNL     1       7.136   5.545  17.073  0.00  0.00    +0.000 A 
BRANCH  14  18
ATOM     18  S   UNL     1       5.608   4.318  13.723  0.00  0.00    +0.000 S 
ATOM     19  H   UNL     1       5.895   5.387  12.977  0.00  0.00    +0.000 HD
ENDBRANCH  14  18
ENDBRANCH  11  17
ENDBRANCH   1  11
TORSDOF 5
ENDMDL
MODEL 9
REMARK VINA RESULT:      -5.6      1.429      2.086
REMARK  Name = 
REMARK  6 active torsions:
REMARK  status: ('A' for Active; 'I' for Inactive)
REMARK    1  A    between atoms: C_1  and  N_2
REMARK    2  A    between atoms: C_3  and  S_4
REMARK    3  A    between atoms: C_7  and  C_8
REMARK    4  A    between atoms: C_8  and  C_9
REMARK    5  A    between atoms: C_9  and  N_10
REMARK    6  A    between atoms: C_11  and  C_13
REMARK                            x       y       z     vdW  Elec       q    Type
REMARK                         _______ _______ _______ _____ _____    ______ ____
ROOT
ATOM      1  C   UNL     1       6.534   5.661  17.954  0.00  0.00    +0.000 C 
ENDROOT
BRANCH   1   2
ATOM      2  N   UNL     1       6.580   4.998  16.661  0.00  0.00    +0.000 N 
ATOM      3  C   UNL     1       6.078   5.575  15.512  0.00  0.00    +0.000 C 
ATOM      4  O   UNL     1       5.495   6.659  15.549  0.00  0.00    +0.000 OA
ATOM      5  H   UNL     1       7.145   4.163  16.560  0.00  0.00    +0.000 HD
BRANCH   3   6
ATOM      6  C   UNL     1       6.269   4.831  14.275  0.00  0.00    +0.000 A 
ATOM      7  C   UNL     1       5.402   3.895  13.741  0.00  0.00    +0.000 A 
ATOM      8  C   UNL     1       5.866   3.348  12.512  0.00  0.00    +0.000 A 
ATOM      9  C   UNL     1       7.080   3.881  12.142  0.00  0.00    +0.000 A 
ATOM     10  S   UNL     1       7.649   5.028  13.277  0.00  0.00    +0.000 S 
ENDBRANCH   3   6
ENDBRANCH   1   2
BRANCH   1  11
ATOM     11  C   UNL     1       5.870   4.816  19.047  0.00  0.00    +0.000 C 
BRANCH  11  17
ATOM     12  C   UNL     1       4.250   2.332  19.890  0.00  0.00    +0.000 C 
ATOM     13  N   UNL     1       3.722   3.426  19.118  0.00  0.00    +0.000 N 
ATOM     14  C   UNL     1       2.461   3.618  18.621  0.00  0.00    +0.000 A 
ATOM     15  N   UNL     1       2.418   4.747  17.954  0.00  0.00    +0.000 NA
ATOM     16  N   UNL     1       3.658   5.327  18.019  0.00  0.00    +0.000 NA
ATOM     17  C   UNL     1       4.442   4.536  18.721  0.00  0.00    +0.000 A 
BRANCH  14  18
ATOM     18  S   UNL     1       1.096   2.573  18.813  0.00  0.00    +0.000 S 
ATOM     19  H   UNL     1       0.550   3.037  19.939  0.00  0.00    +0.000 HD
ENDBRANCH  14  18
ENDBRANCH  11  17
ENDBRANCH   1  11
TORSDOF 5
ENDMDL
