MODEL 1
REMARK VINA RESULT:      -8.7      0.000      0.000
REMARK  Name = 
REMARK  6 active torsions:
REMARK  status: ('A' for Active; 'I' for Inactive)
REMARK    1  A    between atoms: N_12  and  C_13
REMARK    2  A    between atoms: C_13  and  C_14
REMARK    3  A    between atoms: C_14  and  C_15
REMARK    4  A    between atoms: C_15  and  C_16
REMARK    5  A    between atoms: C_16  and  N_17
REMARK    6  A    between atoms: N_20  and  C_21
REMARK                            x       y       z     vdW  Elec       q    Type
REMARK                         _______ _______ _______ _____ _____    ______ ____
ROOT
ATOM      1  C   UNL     1       2.874   6.865  19.122  0.00  0.00    +0.000 C 
ENDROOT
BRANCH   1   2
ATOM      2  N   UNL     1       2.177   8.127  19.355  0.00  0.00    +0.000 NA
ATOM      3  C   UNL     1       1.208   8.121  20.469  0.00  0.00    +0.000 C 
ATOM      4  C   UNL     1       0.647   9.543  20.772  0.00  0.00    +0.000 C 
ATOM      5  N   UNL     1       0.100  10.118  19.534  0.00  0.00    +0.000 N 
ATOM      6  C   UNL     1       1.078  10.163  18.436  0.00  0.00    +0.000 C 
ATOM      7  C   UNL     1       1.569   8.722  18.149  0.00  0.00    +0.000 C 
BRANCH   5   8
ATOM      8  C   UNL     1      -1.045  10.895  19.495  0.00  0.00    +0.000 A 
ATOM      9  C   UNL     1      -1.352  11.797  20.540  0.00  0.00    +0.000 A 
ATOM     10  C   UNL     1      -2.506  12.575  20.545  0.00  0.00    +0.000 A 
ATOM     11  C   UNL     1      -3.421  12.482  19.503  0.00  0.00    +0.000 A 
ATOM     12  C   UNL     1      -3.161  11.578  18.461  0.00  0.00    +0.000 A 
ATOM     13  S   UNL     1      -4.180  11.289  17.097  0.00  0.00    +0.000 S 
ATOM     14  C   UNL     1      -3.135  10.105  16.471  0.00  0.00    +0.000 A 
ATOM     15  C   UNL     1      -2.037   9.923  17.274  0.00  0.00    +0.000 A 
ATOM     16  C   UNL     1      -2.005  10.789  18.431  0.00  0.00    +0.000 A 
ENDBRANCH   5   8
ENDBRANCH   1   2
BRANCH   1  17
ATOM     17  C   UNL     1       2.123   5.529  19.281  0.00  0.00    +0.000 C 
BRANCH  17  18
ATOM     18  C   UNL     1       2.802   4.709  20.395  0.00  0.00    +0.000 C 
BRANCH  18  19
ATOM     19  C   UNL     1       3.568   3.480  19.897  0.00  0.00    +0.000 C 
BRANCH  19  31
ATOM     20  O   UNL     1       6.229   4.810  19.702  0.00  0.00    +0.000 OA
ATOM     21  C   UNL     1       5.596   4.409  18.746  0.00  0.00    +0.000 C 
ATOM     22  C   UNL     1       6.048   4.504  17.360  0.00  0.00    +0.000 A 
ATOM     23  C   UNL     1       7.204   5.047  16.813  0.00  0.00    +0.000 A 
ATOM     24  C   UNL     1       7.350   4.977  15.423  0.00  0.00    +0.000 A 
ATOM     25  C   UNL     1       6.356   4.378  14.631  0.00  0.00    +0.000 A 
ATOM     26  F   UNL     1       6.528   4.329  13.302  0.00  0.00    +0.000 F 
ATOM     27  C   UNL     1       5.202   3.836  15.188  0.00  0.00    +0.000 A 
ATOM     28  C   UNL     1       5.080   3.917  16.562  0.00  0.00    +0.000 A 
ATOM     29  C   UNL     1       4.012   3.453  17.446  0.00  0.00    +0.000 C 
ATOM     30  O   UNL     1       3.024   2.863  17.055  0.00  0.00    +0.000 OA
ATOM     31  N   UNL     1       4.370   3.796  18.719  0.00  0.00    +0.000 N 
ENDBRANCH  19  31
ENDBRANCH  18  19
ENDBRANCH  17  18
ENDBRANCH   1  17
TORSDOF 6
ENDMDL
MODEL 2
REMARK VINA RESULT:      -8.2      7.384      9.321
REMARK  Name = 
REMARK  6 active torsions:
REMARK  status: ('A' for Active; 'I' for Inactive)
REMARK    1  A    between atoms: N_12  and  C_13
REMARK    2  A    between atoms: C_13  and  C_14
REMARK    3  A    between atoms: C_14  and  C_15
REMARK    4  A    between atoms: C_15  and  C_16
REMARK    5  A    between atoms: C_16  and  N_17
REMARK    6  A    between atoms: N_20  and  C_21
REMARK                            x       y       z     vdW  Elec       q    Type
REMARK                         _______ _______ _______ _____ _____    ______ ____
ROOT
ATOM      1  C   UNL     1       7.683   8.973  17.665  0.00  0.00    +0.000 C 
ENDROOT
BRANCH   1   2
ATOM      2  N   UNL     1       8.628  10.028  18.021  0.00  0.00    +0.000 NA
ATOM      3  C   UNL     1       9.181   9.950  19.387  0.00  0.00    +0.000 C 
ATOM      4  C   UNL     1      10.314  10.993  19.627  0.00  0.00    +0.000 C 
ATOM      5  N   UNL     1       9.815  12.333  19.282  0.00  0.00    +0.000 N 
ATOM      6  C   UNL     1       9.303  12.422  17.906  0.00  0.00    +0.000 C 
ATOM      7  C   UNL     1       8.153  11.396  17.737  0.00  0.00    +0.000 C 
BRANCH   5   8
ATOM      8  C   UNL     1      10.145  13.475  19.991  0.00  0.00    +0.000 A 
ATOM      9  C   UNL     1       9.623  13.710  21.284  0.00  0.00    +0.000 A 
ATOM     10  C   UNL     1       9.916  14.858  22.014  0.00  0.00    +0.000 A 
ATOM     11  C   UNL     1      10.741  15.840  21.479  0.00  0.00    +0.000 A 
ATOM     12  C   UNL     1      11.257  15.652  20.187  0.00  0.00    +0.000 A 
ATOM     13  S   UNL     1      12.270  16.759  19.333  0.00  0.00    +0.000 S 
ATOM     14  C   UNL     1      12.333  15.761  17.959  0.00  0.00    +0.000 A 
ATOM     15  C   UNL     1      11.601  14.614  18.134  0.00  0.00    +0.000 A 
ATOM     16  C   UNL     1      10.983  14.503  19.436  0.00  0.00    +0.000 A 
ENDBRANCH   5   8
ENDBRANCH   1   2
BRANCH   1  17
ATOM     17  C   UNL     1       8.006   7.505  17.998  0.00  0.00    +0.000 C 
BRANCH  17  18
ATOM     18  C   UNL     1       7.331   6.599  16.949  0.00  0.00    +0.000 C 
BRANCH  18  19
ATOM     19  C   UNL     1       7.225   5.128  17.360  0.00  0.00    +0.000 C 
BRANCH  19  31
ATOM     20  O   UNL     1       4.960   4.212  15.651  0.00  0.00    +0.000 OA
ATOM     21  C   UNL     1       4.890   4.358  16.856  0.00  0.00    +0.000 C 
ATOM     22  C   UNL     1       3.692   4.092  17.649  0.00  0.00    +0.000 A 
ATOM     23  C   UNL     1       2.425   3.663  17.272  0.00  0.00    +0.000 A 
ATOM     24  C   UNL     1       1.477   3.494  18.288  0.00  0.00    +0.000 A 
ATOM     25  C   UNL     1       1.814   3.752  19.627  0.00  0.00    +0.000 A 
ATOM     26  F   UNL     1       0.882   3.580  20.576  0.00  0.00    +0.000 F 
ATOM     27  C   UNL     1       3.086   4.179  19.995  0.00  0.00    +0.000 A 
ATOM     28  C   UNL     1       4.005   4.340  18.976  0.00  0.00    +0.000 A 
ATOM     29  C   UNL     1       5.402   4.767  19.020  0.00  0.00    +0.000 C 
ATOM     30  O   UNL     1       5.992   5.033  20.048  0.00  0.00    +0.000 OA
ATOM     31  N   UNL     1       5.857   4.777  17.732  0.00  0.00    +0.000 N 
ENDBRANCH  19  31
ENDBRANCH  18  19
ENDBRANCH  17  18
ENDBRANCH   1  17
TORSDOF 6
ENDMDL
MODEL 3
REMARK VINA RESULT:      -8.2      7.127      9.903
REMARK  Name = 
REMARK  6 active torsions:
REMARK  status: ('A' for Active; 'I' for Inactive)
REMARK    1  A    between atoms: N_12  and  C_13
REMARK    2  A    between atoms: C_13  and  C_14
REMARK    3  A    between atoms: C_14  and  C_15
REMARK    4  A    between atoms: C_15  and  C_16
REMARK    5  A    between atoms: C_16  and  N_17
REMARK    6  A    between atoms: N_20  and  C_21
REMARK                            x       y       z     vdW  Elec       q    Type
REMARK                         _______ _______ _______ _____ _____    ______ ____
ROOT
ATOM      1  C   UNL     1       7.929   8.101  17.200  0.00  0.00    +0.000 C 
ENDROOT
BRANCH   1   2
ATOM      2  N   UNL     1       7.128   6.886  17.083  0.00  0.00    +0.000 NA
ATOM      3  C   UNL     1       5.715   7.091  16.707  0.00  0.00    +0.000 C 
ATOM      4  C   UNL     1       4.978   5.748  16.421  0.00  0.00    +0.000 C 
ATOM      5  N   UNL     1       5.144   4.853  17.576  0.00  0.00    +0.000 N 
ATOM      6  C   UNL     1       6.553   4.614  17.924  0.00  0.00    +0.000 C 
ATOM      7  C   UNL     1       7.224   5.975  18.239  0.00  0.00    +0.000 C 
BRANCH   5   8
ATOM      8  C   UNL     1       4.148   4.009  18.036  0.00  0.00    +0.000 A 
ATOM      9  C   UNL     1       4.002   2.701  17.520  0.00  0.00    +0.000 A 
ATOM     10  C   UNL     1       2.997   1.835  17.942  0.00  0.00    +0.000 A 
ATOM     11  C   UNL     1       2.076   2.241  18.900  0.00  0.00    +0.000 A 
ATOM     12  C   UNL     1       2.176   3.544  19.416  0.00  0.00    +0.000 A 
ATOM     13  S   UNL     1       1.117   4.250  20.584  0.00  0.00    +0.000 S 
ATOM     14  C   UNL     1       1.945   5.734  20.547  0.00  0.00    +0.000 A 
ATOM     15  C   UNL     1       2.998   5.705  19.669  0.00  0.00    +0.000 A 
ATOM     16  C   UNL     1       3.181   4.430  19.012  0.00  0.00    +0.000 A 
ENDBRANCH   5   8
ENDBRANCH   1   2
BRANCH   1  17
ATOM     17  C   UNL     1       8.334   8.626  18.591  0.00  0.00    +0.000 C 
BRANCH  17  18
ATOM     18  C   UNL     1       8.841  10.074  18.445  0.00  0.00    +0.000 C 
BRANCH  18  19
ATOM     19  C   UNL     1       9.563  10.617  19.681  0.00  0.00    +0.000 C 
BRANCH  19  31
ATOM     20  O   UNL     1      11.842  11.549  18.000  0.00  0.00    +0.000 OA
ATOM     21  C   UNL     1      11.125  12.287  18.646  0.00  0.00    +0.000 C 
ATOM     22  C   UNL     1      11.262  13.741  18.686  0.00  0.00    +0.000 A 
ATOM     23  C   UNL     1      12.175  14.588  18.070  0.00  0.00    +0.000 A 
ATOM     24  C   UNL     1      12.036  15.961  18.306  0.00  0.00    +0.000 A 
ATOM     25  C   UNL     1      11.008  16.441  19.134  0.00  0.00    +0.000 A 
ATOM     26  F   UNL     1      10.904  17.762  19.338  0.00  0.00    +0.000 F 
ATOM     27  C   UNL     1      10.097  15.585  19.744  0.00  0.00    +0.000 A 
ATOM     28  C   UNL     1      10.254  14.235  19.498  0.00  0.00    +0.000 A 
ATOM     29  C   UNL     1       9.481  13.090  19.976  0.00  0.00    +0.000 C 
ATOM     30  O   UNL     1       8.503  13.189  20.689  0.00  0.00    +0.000 OA
ATOM     31  N   UNL     1      10.063  11.969  19.453  0.00  0.00    +0.000 N 
ENDBRANCH  19  31
ENDBRANCH  18  19
ENDBRANCH  17  18
ENDBRANCH   1  17
TORSDOF 6
ENDMDL
MODEL 4
REMARK VINA RESULT:      -8.1      7.240      9.026
REMARK  Name = 
REMARK  6 active torsions:
REMARK  status: ('A' for Active; 'I' for Inactive)
REMARK    1  A    between atoms: N_12  and  C_13
REMARK    2  A    between atoms: C_13  and  C_14
REMARK    3  A    between atoms: C_14  and  C_15
REMARK    4  A    between atoms: C_15  and  C_16
REMARK    5  A    between atoms: C_16  and  N_17
REMARK    6  A    between atoms: N_20  and  C_21
REMARK                            x       y       z     vdW  Elec       q    Type
REMARK                         _______ _______ _______ _____ _____    ______ ____
ROOT
ATOM      1  C   UNL     1       8.483   8.858  18.933  0.00  0.00    +0.000 C 
ENDROOT
BRANCH   1   2
ATOM      2  N   UNL     1       9.404   9.986  19.039  0.00  0.00    +0.000 NA
ATOM      3  C   UNL     1       9.337  10.742  20.305  0.00  0.00    +0.000 C 
ATOM      4  C   UNL     1      10.470  11.806  20.418  0.00  0.00    +0.000 C 
ATOM      5  N   UNL     1      10.440  12.670  19.228  0.00  0.00    +0.000 N 
ATOM      6  C   UNL     1      10.550  11.918  17.967  0.00  0.00    +0.000 C 
ATOM      7  C   UNL     1       9.378  10.908  17.888  0.00  0.00    +0.000 C 
BRANCH   5   8
ATOM      8  C   UNL     1      10.690  14.030  19.266  0.00  0.00    +0.000 A 
ATOM      9  C   UNL     1      11.922  14.534  19.744  0.00  0.00    +0.000 A 
ATOM     10  C   UNL     1      12.197  15.896  19.818  0.00  0.00    +0.000 A 
ATOM     11  C   UNL     1      11.244  16.829  19.426  0.00  0.00    +0.000 A 
ATOM     12  C   UNL     1       9.999  16.364  18.970  0.00  0.00    +0.000 A 
ATOM     13  S   UNL     1       8.675  17.353  18.470  0.00  0.00    +0.000 S 
ATOM     14  C   UNL     1       7.687  16.005  18.161  0.00  0.00    +0.000 A 
ATOM     15  C   UNL     1       8.337  14.828  18.434  0.00  0.00    +0.000 A 
ATOM     16  C   UNL     1       9.702  14.999  18.880  0.00  0.00    +0.000 A 
ENDBRANCH   5   8
ENDBRANCH   1   2
BRANCH   1  17
ATOM     17  C   UNL     1       8.144   8.267  17.551  0.00  0.00    +0.000 C 
BRANCH  17  18
ATOM     18  C   UNL     1       7.176   7.083  17.743  0.00  0.00    +0.000 C 
BRANCH  18  19
ATOM     19  C   UNL     1       5.866   7.205  16.958  0.00  0.00    +0.000 C 
BRANCH  19  31
ATOM     20  O   UNL     1       6.320   4.266  16.736  0.00  0.00    +0.000 OA
ATOM     21  C   UNL     1       5.282   4.769  17.121  0.00  0.00    +0.000 C 
ATOM     22  C   UNL     1       4.108   4.011  17.547  0.00  0.00    +0.000 A 
ATOM     23  C   UNL     1       3.876   2.642  17.601  0.00  0.00    +0.000 A 
ATOM     24  C   UNL     1       2.626   2.222  18.069  0.00  0.00    +0.000 A 
ATOM     25  C   UNL     1       1.660   3.161  18.465  0.00  0.00    +0.000 A 
ATOM     26  F   UNL     1       0.473   2.724  18.909  0.00  0.00    +0.000 F 
ATOM     27  C   UNL     1       1.903   4.531  18.410  0.00  0.00    +0.000 A 
ATOM     28  C   UNL     1       3.143   4.922  17.943  0.00  0.00    +0.000 A 
ATOM     29  C   UNL     1       3.707   6.259  17.764  0.00  0.00    +0.000 C 
ATOM     30  O   UNL     1       3.118   7.282  18.051  0.00  0.00    +0.000 OA
ATOM     31  N   UNL     1       4.964   6.096  17.254  0.00  0.00    +0.000 N 
ENDBRANCH  19  31
ENDBRANCH  18  19
ENDBRANCH  17  18
ENDBRANCH   1  17
TORSDOF 6
ENDMDL
MODEL 5
REMARK VINA RESULT:      -8.1      7.101      9.959
REMARK  Name = 
REMARK  6 active torsions:
REMARK  status: ('A' for Active; 'I' for Inactive)
REMARK    1  A    between atoms: N_12  and  C_13
REMARK    2  A    between atoms: C_13  and  C_14
REMARK    3  A    between atoms: C_14  and  C_15
REMARK    4  A    between atoms: C_15  and  C_16
REMARK    5  A    between atoms: C_16  and  N_17
REMARK    6  A    between atoms: N_20  and  C_21
REMARK                            x       y       z     vdW  Elec       q    Type
REMARK                         _______ _______ _______ _____ _____    ______ ____
ROOT
ATOM      1  C   UNL     1       8.306   8.026  18.259  0.00  0.00    +0.000 C 
ENDROOT
BRANCH   1   2
ATOM      2  N   UNL     1       7.464   6.892  17.890  0.00  0.00    +0.000 NA
ATOM      3  C   UNL     1       6.105   7.235  17.426  0.00  0.00    +0.000 C 
ATOM      4  C   UNL     1       5.337   5.994  16.877  0.00  0.00    +0.000 C 
ATOM      5  N   UNL     1       5.349   4.932  17.895  0.00  0.00    +0.000 N 
ATOM      6  C   UNL     1       6.705   4.561  18.326  0.00  0.00    +0.000 C 
ATOM      7  C   UNL     1       7.405   5.818  18.901  0.00  0.00    +0.000 C 
BRANCH   5   8
ATOM      8  C   UNL     1       4.275   4.093  18.133  0.00  0.00    +0.000 A 
ATOM      9  C   UNL     1       4.126   2.878  17.425  0.00  0.00    +0.000 A 
ATOM     10  C   UNL     1       3.046   2.022  17.623  0.00  0.00    +0.000 A 
ATOM     11  C   UNL     1       2.049   2.346  18.535  0.00  0.00    +0.000 A 
ATOM     12  C   UNL     1       2.152   3.558  19.237  0.00  0.00    +0.000 A 
ATOM     13  S   UNL     1       1.010   4.159  20.385  0.00  0.00    +0.000 S 
ATOM     14  C   UNL     1       1.901   5.584  20.639  0.00  0.00    +0.000 A 
ATOM     15  C   UNL     1       3.037   5.614  19.870  0.00  0.00    +0.000 A 
ATOM     16  C   UNL     1       3.231   4.432  19.061  0.00  0.00    +0.000 A 
ENDBRANCH   5   8
ENDBRANCH   1   2
BRANCH   1  17
ATOM     17  C   UNL     1       7.953   9.441  17.764  0.00  0.00    +0.000 C 
BRANCH  17  18
ATOM     18  C   UNL     1       9.084  10.405  18.174  0.00  0.00    +0.000 C 
BRANCH  18  19
ATOM     19  C   UNL     1       9.487  10.314  19.649  0.00  0.00    +0.000 C 
BRANCH  19  31
ATOM     20  O   UNL     1      11.289  12.474  18.660  0.00  0.00    +0.000 OA
ATOM     21  C   UNL     1      10.606  12.560  19.662  0.00  0.00    +0.000 C 
ATOM     22  C   UNL     1      10.554  13.739  20.523  0.00  0.00    +0.000 A 
ATOM     23  C   UNL     1      11.224  14.954  20.447  0.00  0.00    +0.000 A 
ATOM     24  C   UNL     1      10.948  15.901  21.441  0.00  0.00    +0.000 A 
ATOM     25  C   UNL     1      10.028  15.615  22.463  0.00  0.00    +0.000 A 
ATOM     26  F   UNL     1       9.787  16.544  23.399  0.00  0.00    +0.000 F 
ATOM     27  C   UNL     1       9.360  14.396  22.529  0.00  0.00    +0.000 A 
ATOM     28  C   UNL     1       9.649  13.476  21.538  0.00  0.00    +0.000 A 
ATOM     29  C   UNL     1       9.132  12.127  21.320  0.00  0.00    +0.000 C 
ATOM     30  O   UNL     1       8.291  11.607  22.026  0.00  0.00    +0.000 OA
ATOM     31  N   UNL     1       9.755  11.635  20.208  0.00  0.00    +0.000 N 
ENDBRANCH  19  31
ENDBRANCH  18  19
ENDBRANCH  17  18
ENDBRANCH   1  17
TORSDOF 6
ENDMDL
MODEL 6
REMARK VINA RESULT:      -8.0      2.278      3.146
REMARK  Name = 
REMARK  6 active torsions:
REMARK  status: ('A' for Active; 'I' for Inactive)
REMARK    1  A    between atoms: N_12  and  C_13
REMARK    2  A    between atoms: C_13  and  C_14
REMARK    3  A    between atoms: C_14  and  C_15
REMARK    4  A    between atoms: C_15  and  C_16
REMARK    5  A    between atoms: C_16  and  N_17
REMARK    6  A    between atoms: N_20  and  C_21
REMARK                            x       y       z     vdW  Elec       q    Type
REMARK                         _______ _______ _______ _____ _____    ______ ____
ROOT
ATOM      1  C   UNL     1       2.153   7.396  20.129  0.00  0.00    +0.000 C 
ENDROOT
BRANCH   1   2
ATOM      2  N   UNL     1       1.121   8.314  20.604  0.00  0.00    +0.000 NA
ATOM      3  C   UNL     1       0.839   9.463  19.720  0.00  0.00    +0.000 C 
ATOM      4  C   UNL     1      -0.394  10.288  20.200  0.00  0.00    +0.000 C 
ATOM      5  N   UNL     1      -0.197  10.675  21.604  0.00  0.00    +0.000 N 
ATOM      6  C   UNL     1       0.043   9.527  22.492  0.00  0.00    +0.000 C 
ATOM      7  C   UNL     1       1.301   8.770  21.996  0.00  0.00    +0.000 C 
BRANCH   5   8
ATOM      8  C   UNL     1      -0.585  11.900  22.119  0.00  0.00    +0.000 A 
ATOM      9  C   UNL     1      -1.719  12.015  22.955  0.00  0.00    +0.000 A 
ATOM     10  C   UNL     1      -2.151  13.234  23.471  0.00  0.00    +0.000 A 
ATOM     11  C   UNL     1      -1.472  14.407  23.164  0.00  0.00    +0.000 A 
ATOM     12  C   UNL     1      -0.356  14.333  22.315  0.00  0.00    +0.000 A 
ATOM     13  S   UNL     1       0.602  15.671  21.789  0.00  0.00    +0.000 S 
ATOM     14  C   UNL     1       1.604  14.678  20.842  0.00  0.00    +0.000 A 
ATOM     15  C   UNL     1       1.226  13.361  20.914  0.00  0.00    +0.000 A 
ATOM     16  C   UNL     1       0.102  13.119  21.790  0.00  0.00    +0.000 A 
ENDBRANCH   5   8
ENDBRANCH   1   2
BRANCH   1  17
ATOM     17  C   UNL     1       1.789   5.940  19.784  0.00  0.00    +0.000 C 
BRANCH  17  18
ATOM     18  C   UNL     1       2.748   4.998  20.540  0.00  0.00    +0.000 C 
BRANCH  18  19
ATOM     19  C   UNL     1       3.077   3.702  19.794  0.00  0.00    +0.000 C 
BRANCH  19  31
ATOM     20  O   UNL     1       5.928   4.576  19.813  0.00  0.00    +0.000 OA
ATOM     21  C   UNL     1       5.292   4.344  18.803  0.00  0.00    +0.000 C 
ATOM     22  C   UNL     1       5.832   4.444  17.449  0.00  0.00    +0.000 A 
ATOM     23  C   UNL     1       7.090   4.816  16.994  0.00  0.00    +0.000 A 
ATOM     24  C   UNL     1       7.301   4.805  15.610  0.00  0.00    +0.000 A 
ATOM     25  C   UNL     1       6.269   4.429  14.735  0.00  0.00    +0.000 A 
ATOM     26  F   UNL     1       6.505   4.430  13.415  0.00  0.00    +0.000 F 
ATOM     27  C   UNL     1       5.012   4.056  15.200  0.00  0.00    +0.000 A 
ATOM     28  C   UNL     1       4.827   4.075  16.569  0.00  0.00    +0.000 A 
ATOM     29  C   UNL     1       3.649   3.746  17.369  0.00  0.00    +0.000 C 
ATOM     30  O   UNL     1       2.601   3.354  16.895  0.00  0.00    +0.000 OA
ATOM     31  N   UNL     1       3.985   3.948  18.678  0.00  0.00    +0.000 N 
ENDBRANCH  19  31
ENDBRANCH  18  19
ENDBRANCH  17  18
ENDBRANCH   1  17
TORSDOF 6
ENDMDL
MODEL 7
REMARK VINA RESULT:      -7.9      1.350      2.340
REMARK  Name = 
REMARK  6 active torsions:
REMARK  status: ('A' for Active; 'I' for Inactive)
REMARK    1  A    between atoms: N_12  and  C_13
REMARK    2  A    between atoms: C_13  and  C_14
REMARK    3  A    between atoms: C_14  and  C_15
REMARK    4  A    between atoms: C_15  and  C_16
REMARK    5  A    between atoms: C_16  and  N_17
REMARK    6  A    between atoms: N_20  and  C_21
REMARK                            x       y       z     vdW  Elec       q    Type
REMARK                         _______ _______ _______ _____ _____    ______ ____
ROOT
ATOM      1  C   UNL     1       2.839   6.522  19.247  0.00  0.00    +0.000 C 
ENDROOT
BRANCH   1   2
ATOM      2  N   UNL     1       2.209   7.813  19.507  0.00  0.00    +0.000 NA
ATOM      3  C   UNL     1       1.177   7.814  20.563  0.00  0.00    +0.000 C 
ATOM      4  C   UNL     1       0.687   9.253  20.909  0.00  0.00    +0.000 C 
ATOM      5  N   UNL     1       0.250   9.923  19.674  0.00  0.00    +0.000 N 
ATOM      6  C   UNL     1       1.293   9.959  18.638  0.00  0.00    +0.000 C 
ATOM      7  C   UNL     1       1.711   8.505  18.302  0.00  0.00    +0.000 C 
BRANCH   5   8
ATOM      8  C   UNL     1      -0.841  10.772  19.613  0.00  0.00    +0.000 A 
ATOM      9  C   UNL     1      -1.100  11.705  20.643  0.00  0.00    +0.000 A 
ATOM     10  C   UNL     1      -2.200  12.558  20.625  0.00  0.00    +0.000 A 
ATOM     11  C   UNL     1      -3.107  12.511  19.574  0.00  0.00    +0.000 A 
ATOM     12  C   UNL     1      -2.896  11.579  18.545  0.00  0.00    +0.000 A 
ATOM     13  S   UNL     1      -3.917  11.339  17.174  0.00  0.00    +0.000 S 
ATOM     14  C   UNL     1      -2.945  10.081  16.574  0.00  0.00    +0.000 A 
ATOM     15  C   UNL     1      -1.870   9.839  17.392  0.00  0.00    +0.000 A 
ATOM     16  C   UNL     1      -1.794  10.716  18.539  0.00  0.00    +0.000 A 
ENDBRANCH   5   8
ENDBRANCH   1   2
BRANCH   1  17
ATOM     17  C   UNL     1       3.834   6.371  18.081  0.00  0.00    +0.000 C 
BRANCH  17  18
ATOM     18  C   UNL     1       5.264   6.320  18.654  0.00  0.00    +0.000 C 
BRANCH  18  19
ATOM     19  C   UNL     1       6.005   5.006  18.384  0.00  0.00    +0.000 C 
BRANCH  19  31
ATOM     20  O   UNL     1       4.486   3.136  16.628  0.00  0.00    +0.000 OA
ATOM     21  C   UNL     1       5.374   3.869  16.238  0.00  0.00    +0.000 C 
ATOM     22  C   UNL     1       5.820   3.956  14.849  0.00  0.00    +0.000 A 
ATOM     23  C   UNL     1       5.404   3.272  13.713  0.00  0.00    +0.000 A 
ATOM     24  C   UNL     1       6.036   3.590  12.506  0.00  0.00    +0.000 A 
ATOM     25  C   UNL     1       7.048   4.564  12.466  0.00  0.00    +0.000 A 
ATOM     26  F   UNL     1       7.633   4.845  11.293  0.00  0.00    +0.000 F 
ATOM     27  C   UNL     1       7.456   5.246  13.609  0.00  0.00    +0.000 A 
ATOM     28  C   UNL     1       6.819   4.914  14.789  0.00  0.00    +0.000 A 
ATOM     29  C   UNL     1       7.006   5.431  16.143  0.00  0.00    +0.000 C 
ATOM     30  O   UNL     1       7.794   6.312  16.424  0.00  0.00    +0.000 OA
ATOM     31  N   UNL     1       6.137   4.756  16.953  0.00  0.00    +0.000 N 
ENDBRANCH  19  31
ENDBRANCH  18  19
ENDBRANCH  17  18
ENDBRANCH   1  17
TORSDOF 6
ENDMDL
MODEL 8
REMARK VINA RESULT:      -7.9      1.975      3.019
REMARK  Name = 
REMARK  6 active torsions:
REMARK  status: ('A' for Active; 'I' for Inactive)
REMARK    1  A    between atoms: N_12  and  C_13
REMARK    2  A    between atoms: C_13  and  C_14
REMARK    3  A    between atoms: C_14  and  C_15
REMARK    4  A    between atoms: C_15  and  C_16
REMARK    5  A    between atoms: C_16  and  N_17
REMARK    6  A    between atoms: N_20  and  C_21
REMARK                            x       y       z     vdW  Elec       q    Type
REMARK                         _______ _______ _______ _____ _____    ______ ____
ROOT
ATOM      1  C   UNL     1       2.354   5.420  20.564  0.00  0.00    +0.000 C 
ENDROOT
BRANCH   1   2
ATOM      2  N   UNL     1       2.128   6.838  20.298  0.00  0.00    +0.000 NA
ATOM      3  C   UNL     1       1.085   7.480  21.122  0.00  0.00    +0.000 C 
ATOM      4  C   UNL     1       1.032   9.024  20.911  0.00  0.00    +0.000 C 
ATOM      5  N   UNL     1       0.891   9.310  19.475  0.00  0.00    +0.000 N 
ATOM      6  C   UNL     1       1.956   8.705  18.660  0.00  0.00    +0.000 C 
ATOM      7  C   UNL     1       1.934   7.170  18.873  0.00  0.00    +0.000 C 
BRANCH   5   8
ATOM      8  C   UNL     1       0.114  10.340  18.976  0.00  0.00    +0.000 A 
ATOM      9  C   UNL     1      -1.075  10.076  18.258  0.00  0.00    +0.000 A 
ATOM     10  C   UNL     1      -1.868  11.087  17.721  0.00  0.00    +0.000 A 
ATOM     11  C   UNL     1      -1.502  12.419  17.868  0.00  0.00    +0.000 A 
ATOM     12  C   UNL     1      -0.313  12.717  18.553  0.00  0.00    +0.000 A 
ATOM     13  S   UNL     1       0.333  14.297  18.815  0.00  0.00    +0.000 S 
ATOM     14  C   UNL     1       1.695  13.688  19.627  0.00  0.00    +0.000 A 
ATOM     15  C   UNL     1       1.672  12.318  19.699  0.00  0.00    +0.000 A 
ATOM     16  C   UNL     1       0.497  11.719  19.107  0.00  0.00    +0.000 A 
ENDBRANCH   5   8
ENDBRANCH   1   2
BRANCH   1  17
ATOM     17  C   UNL     1       1.217   4.405  20.344  0.00  0.00    +0.000 C 
BRANCH  17  18
ATOM     18  C   UNL     1       1.733   2.998  20.708  0.00  0.00    +0.000 C 
BRANCH  18  19
ATOM     19  C   UNL     1       2.302   2.209  19.526  0.00  0.00    +0.000 C 
BRANCH  19  31
ATOM     20  O   UNL     1       1.960   3.605  16.914  0.00  0.00    +0.000 OA
ATOM     21  C   UNL     1       2.987   3.617  17.564  0.00  0.00    +0.000 C 
ATOM     22  C   UNL     1       4.202   4.327  17.172  0.00  0.00    +0.000 A 
ATOM     23  C   UNL     1       4.489   5.091  16.048  0.00  0.00    +0.000 A 
ATOM     24  C   UNL     1       5.767   5.655  15.965  0.00  0.00    +0.000 A 
ATOM     25  C   UNL     1       6.706   5.446  16.989  0.00  0.00    +0.000 A 
ATOM     26  F   UNL     1       7.922   6.001  16.878  0.00  0.00    +0.000 F 
ATOM     27  C   UNL     1       6.408   4.682  18.113  0.00  0.00    +0.000 A 
ATOM     28  C   UNL     1       5.141   4.134  18.172  0.00  0.00    +0.000 A 
ATOM     29  C   UNL     1       4.519   3.296  19.196  0.00  0.00    +0.000 C 
ATOM     30  O   UNL     1       5.075   2.969  20.226  0.00  0.00    +0.000 OA
ATOM     31  N   UNL     1       3.255   3.009  18.763  0.00  0.00    +0.000 N 
ENDBRANCH  19  31
ENDBRANCH  18  19
ENDBRANCH  17  18
ENDBRANCH   1  17
TORSDOF 6
ENDMDL
MODEL 9
REMARK VINA RESULT:      -7.8      7.085      9.913
REMARK  Name = 
REMARK  6 active torsions:
REMARK  status: ('A' for Active; 'I' for Inactive)
REMARK    1  A    between atoms: N_12  and  C_13
REMARK    2  A    between atoms: C_13  and  C_14
REMARK    3  A    between atoms: C_14  and  C_15
REMARK    4  A    between atoms: C_15  and  C_16
REMARK    5  A    between atoms: C_16  and  N_17
REMARK    6  A    between atoms: N_20  and  C_21
REMARK                            x       y       z     vdW  Elec       q    Type
REMARK                         _______ _______ _______ _____ _____    ______ ____
ROOT
ATOM      1  C   UNL     1       8.203   7.873  18.376  0.00  0.00    +0.000 C 
ENDROOT
BRANCH   1   2
ATOM      2  N   UNL     1       7.366   6.738  17.997  0.00  0.00    +0.000 NA
ATOM      3  C   UNL     1       6.025   7.082  17.484  0.00  0.00    +0.000 C 
ATOM      4  C   UNL     1       5.267   5.838  16.929  0.00  0.00    +0.000 C 
ATOM      5  N   UNL     1       5.239   4.792  17.962  0.00  0.00    +0.000 N 
ATOM      6  C   UNL     1       6.579   4.419  18.442  0.00  0.00    +0.000 C 
ATOM      7  C   UNL     1       7.268   5.680  19.021  0.00  0.00    +0.000 C 
BRANCH   5   8
ATOM      8  C   UNL     1       4.153   3.962  18.177  0.00  0.00    +0.000 A 
ATOM      9  C   UNL     1       4.002   2.753  17.460  0.00  0.00    +0.000 A 
ATOM     10  C   UNL     1       2.910   1.908  17.635  0.00  0.00    +0.000 A 
ATOM     11  C   UNL     1       1.903   2.237  18.533  0.00  0.00    +0.000 A 
ATOM     12  C   UNL     1       2.007   3.444  19.244  0.00  0.00    +0.000 A 
ATOM     13  S   UNL     1       0.853   4.050  20.378  0.00  0.00    +0.000 S 
ATOM     14  C   UNL     1       1.755   5.463  20.654  0.00  0.00    +0.000 A 
ATOM     15  C   UNL     1       2.904   5.486  19.905  0.00  0.00    +0.000 A 
ATOM     16  C   UNL     1       3.098   4.307  19.091  0.00  0.00    +0.000 A 
ENDBRANCH   5   8
ENDBRANCH   1   2
BRANCH   1  17
ATOM     17  C   UNL     1       8.341   9.080  17.430  0.00  0.00    +0.000 C 
BRANCH  17  18
ATOM     18  C   UNL     1       8.449  10.363  18.277  0.00  0.00    +0.000 C 
BRANCH  18  19
ATOM     19  C   UNL     1       9.482  10.289  19.405  0.00  0.00    +0.000 C 
BRANCH  19  31
ATOM     20  O   UNL     1       8.462  11.841  21.738  0.00  0.00    +0.000 OA
ATOM     21  C   UNL     1       9.319  12.241  20.974  0.00  0.00    +0.000 C 
ATOM     22  C   UNL     1       9.989  13.535  21.092  0.00  0.00    +0.000 A 
ATOM     23  C   UNL     1       9.825  14.566  22.009  0.00  0.00    +0.000 A 
ATOM     24  C   UNL     1      10.637  15.696  21.854  0.00  0.00    +0.000 A 
ATOM     25  C   UNL     1      11.571  15.764  20.808  0.00  0.00    +0.000 A 
ATOM     26  F   UNL     1      12.333  16.862  20.688  0.00  0.00    +0.000 F 
ATOM     27  C   UNL     1      11.729  14.725  19.895  0.00  0.00    +0.000 A 
ATOM     28  C   UNL     1      10.917  13.621  20.068  0.00  0.00    +0.000 A 
ATOM     29  C   UNL     1      10.831  12.381  19.298  0.00  0.00    +0.000 C 
ATOM     30  O   UNL     1      11.541  12.130  18.345  0.00  0.00    +0.000 OA
ATOM     31  N   UNL     1       9.853  11.621  19.874  0.00  0.00    +0.000 N 
ENDBRANCH  19  31
ENDBRANCH  18  19
ENDBRANCH  17  18
ENDBRANCH   1  17
TORSDOF 6
ENDMDL
