MODEL 1
REMARK VINA RESULT:      -8.1      0.000      0.000
REMARK  Name = 
REMARK  9 active torsions:
REMARK  status: ('A' for Active; 'I' for Inactive)
REMARK    1  A    between atoms: C_1  and  O_2
REMARK    2  A    between atoms: O_2  and  C_3
REMARK    3  A    between atoms: C_6  and  C_7
REMARK    4  A    between atoms: C_15  and  C_16
REMARK    5  A    between atoms: C_16  and  C_17
REMARK    6  A    between atoms: C_16  and  C_21
REMARK    7  A    between atoms: C_17  and  C_18
REMARK    8  A    between atoms: C_18  and  O_20
REMARK    9  A    between atoms: C_24  and  C_25
REMARK                            x       y       z     vdW  Elec       q    Type
REMARK                         _______ _______ _______ _____ _____    ______ ____
ROOT
ATOM      1  C   UNL     1       2.798   4.162  20.449  0.00  0.00    +0.000 A 
ATOM      2  C   UNL     1       1.668   4.755  21.025  0.00  0.00    +0.000 A 
ATOM      3  C   UNL     1       1.305   6.062  20.704  0.00  0.00    +0.000 A 
ATOM      4  C   UNL     1       2.054   6.825  19.803  0.00  0.00    +0.000 A 
ATOM      5  C   UNL     1       3.150   6.196  19.181  0.00  0.00    +0.000 A 
ATOM      6  C   UNL     1       3.538   4.872  19.481  0.00  0.00    +0.000 A 
ENDROOT
BRANCH   4   7
ATOM      7  C   UNL     1       1.717   8.237  19.534  0.00  0.00    +0.000 A 
ATOM      8  C   UNL     1       1.080   9.035  20.505  0.00  0.00    +0.000 A 
ATOM      9  C   UNL     1       0.724  10.361  20.238  0.00  0.00    +0.000 A 
ATOM     10  C   UNL     1       1.016  10.931  19.001  0.00  0.00    +0.000 A 
ATOM     11  C   UNL     1       1.658  10.173  18.029  0.00  0.00    +0.000 A 
ATOM     12  C   UNL     1       1.992   8.846  18.295  0.00  0.00    +0.000 A 
ATOM     13  F   UNL     1       2.582   8.152  17.305  0.00  0.00    +0.000 F 
ENDBRANCH   4   7
BRANCH   1  15
ATOM     14  C   UNL     1       2.322   2.159  21.617  0.00  0.00    +0.000 C 
ATOM     15  O   UNL     1       3.208   2.890  20.765  0.00  0.00    +0.000 OA
ENDBRANCH   1  15
BRANCH   6  16
ATOM     16  C   UNL     1       4.708   4.226  18.739  0.00  0.00    +0.000 C 
BRANCH  16  17
ATOM     17  C   UNL     1       5.949   5.097  18.569  0.00  0.00    +0.000 A 
ATOM     18  N   UNL     1       7.016   5.025  19.351  0.00  0.00    +0.000 NA
ATOM     19  C   UNL     1       7.883   6.063  19.063  0.00  0.00    +0.000 A 
ATOM     20  C   UNL     1       7.481   6.910  18.053  0.00  0.00    +0.000 A 
ATOM     21  C   UNL     1       8.126   8.153  17.559  0.00  0.00    +0.000 C 
ATOM     22  S   UNL     1       6.002   6.352  17.389  0.00  0.00    +0.000 S 
ENDBRANCH  16  17
BRANCH  16  23
ATOM     23  C   UNL     1       4.285   3.615  17.389  0.00  0.00    +0.000 C 
BRANCH  23  24
ATOM     24  C   UNL     1       2.989   2.840  17.405  0.00  0.00    +0.000 C 
ATOM     25  O   UNL     1       1.935   3.298  16.991  0.00  0.00    +0.000 OA
BRANCH  24  26
ATOM     26  O   UNL     1       3.048   1.619  17.978  0.00  0.00    +0.000 OA
ATOM     27  H   UNL     1       2.442   0.960  17.562  0.00  0.00    +0.000 HD
ENDBRANCH  24  26
ENDBRANCH  23  24
ENDBRANCH  16  23
ENDBRANCH   6  16
TORSDOF 7
ENDMDL
MODEL 2
REMARK VINA RESULT:      -8.1      2.374      2.932
REMARK  Name = 
REMARK  9 active torsions:
REMARK  status: ('A' for Active; 'I' for Inactive)
REMARK    1  A    between atoms: C_1  and  O_2
REMARK    2  A    between atoms: O_2  and  C_3
REMARK    3  A    between atoms: C_6  and  C_7
REMARK    4  A    between atoms: C_15  and  C_16
REMARK    5  A    between atoms: C_16  and  C_17
REMARK    6  A    between atoms: C_16  and  C_21
REMARK    7  A    between atoms: C_17  and  C_18
REMARK    8  A    between atoms: C_18  and  O_20
REMARK    9  A    between atoms: C_24  and  C_25
REMARK                            x       y       z     vdW  Elec       q    Type
REMARK                         _______ _______ _______ _____ _____    ______ ____
ROOT
ATOM      1  C   UNL     1       3.505   3.984  17.759  0.00  0.00    +0.000 A 
ATOM      2  C   UNL     1       2.210   4.094  18.280  0.00  0.00    +0.000 A 
ATOM      3  C   UNL     1       1.671   5.339  18.599  0.00  0.00    +0.000 A 
ATOM      4  C   UNL     1       2.402   6.517  18.416  0.00  0.00    +0.000 A 
ATOM      5  C   UNL     1       3.678   6.399  17.831  0.00  0.00    +0.000 A 
ATOM      6  C   UNL     1       4.247   5.153  17.492  0.00  0.00    +0.000 A 
ENDROOT
BRANCH   4   7
ATOM      7  C   UNL     1       1.862   7.824  18.839  0.00  0.00    +0.000 A 
ATOM      8  C   UNL     1       1.726   8.890  17.926  0.00  0.00    +0.000 A 
ATOM      9  C   UNL     1       1.252  10.141  18.334  0.00  0.00    +0.000 A 
ATOM     10  C   UNL     1       0.880  10.354  19.660  0.00  0.00    +0.000 A 
ATOM     11  C   UNL     1       0.989   9.317  20.579  0.00  0.00    +0.000 A 
ATOM     12  C   UNL     1       1.481   8.078  20.170  0.00  0.00    +0.000 A 
ATOM     13  F   UNL     1       1.595   7.123  21.110  0.00  0.00    +0.000 F 
ENDBRANCH   4   7
BRANCH   1  15
ATOM     14  C   UNL     1       3.523   1.649  18.146  0.00  0.00    +0.000 C 
ATOM     15  O   UNL     1       4.083   2.774  17.464  0.00  0.00    +0.000 OA
ENDBRANCH   1  15
BRANCH   6  16
ATOM     16  C   UNL     1       5.617   5.090  16.815  0.00  0.00    +0.000 C 
BRANCH  16  17
ATOM     17  C   UNL     1       6.727   5.891  17.490  0.00  0.00    +0.000 A 
ATOM     18  N   UNL     1       7.428   5.454  18.526  0.00  0.00    +0.000 NA
ATOM     19  C   UNL     1       8.219   6.474  19.023  0.00  0.00    +0.000 A 
ATOM     20  C   UNL     1       8.130   7.676  18.355  0.00  0.00    +0.000 A 
ATOM     21  C   UNL     1       8.770   8.976  18.674  0.00  0.00    +0.000 C 
ATOM     22  S   UNL     1       7.075   7.509  17.013  0.00  0.00    +0.000 S 
ENDBRANCH  16  17
BRANCH  16  23
ATOM     23  C   UNL     1       5.548   5.420  15.311  0.00  0.00    +0.000 C 
BRANCH  23  24
ATOM     24  C   UNL     1       6.550   4.698  14.443  0.00  0.00    +0.000 C 
ATOM     25  O   UNL     1       6.335   3.602  13.949  0.00  0.00    +0.000 OA
BRANCH  24  26
ATOM     26  O   UNL     1       7.744   5.312  14.300  0.00  0.00    +0.000 OA
ATOM     27  H   UNL     1       7.732   6.263  14.565  0.00  0.00    +0.000 HD
ENDBRANCH  24  26
ENDBRANCH  23  24
ENDBRANCH  16  23
ENDBRANCH   6  16
TORSDOF 7
ENDMDL
MODEL 3
REMARK VINA RESULT:      -8.1      0.936      1.328
REMARK  Name = 
REMARK  9 active torsions:
REMARK  status: ('A' for Active; 'I' for Inactive)
REMARK    1  A    between atoms: C_1  and  O_2
REMARK    2  A    between atoms: O_2  and  C_3
REMARK    3  A    between atoms: C_6  and  C_7
REMARK    4  A    between atoms: C_15  and  C_16
REMARK    5  A    between atoms: C_16  and  C_17
REMARK    6  A    between atoms: C_16  and  C_21
REMARK    7  A    between atoms: C_17  and  C_18
REMARK    8  A    between atoms: C_18  and  O_20
REMARK    9  A    between atoms: C_24  and  C_25
REMARK                            x       y       z     vdW  Elec       q    Type
REMARK                         _______ _______ _______ _____ _____    ______ ____
ROOT
ATOM      1  C   UNL     1       2.840   4.145  20.467  0.00  0.00    +0.000 A 
ATOM      2  C   UNL     1       1.711   4.730  21.052  0.00  0.00    +0.000 A 
ATOM      3  C   UNL     1       1.325   6.027  20.721  0.00  0.00    +0.000 A 
ATOM      4  C   UNL     1       2.052   6.790  19.801  0.00  0.00    +0.000 A 
ATOM      5  C   UNL     1       3.147   6.168  19.170  0.00  0.00    +0.000 A 
ATOM      6  C   UNL     1       3.557   4.853  19.481  0.00  0.00    +0.000 A 
ENDROOT
BRANCH   4   7
ATOM      7  C   UNL     1       1.693   8.194  19.520  0.00  0.00    +0.000 A 
ATOM      8  C   UNL     1       1.944   8.777  18.262  0.00  0.00    +0.000 A 
ATOM      9  C   UNL     1       1.641  10.118  18.007  0.00  0.00    +0.000 A 
ATOM     10  C   UNL     1       1.058  10.907  18.997  0.00  0.00    +0.000 A 
ATOM     11  C   UNL     1       0.784  10.355  20.243  0.00  0.00    +0.000 A 
ATOM     12  C   UNL     1       1.107   9.023  20.497  0.00  0.00    +0.000 A 
ATOM     13  F   UNL     1       0.850   8.553  21.730  0.00  0.00    +0.000 F 
ENDBRANCH   4   7
BRANCH   1  15
ATOM     14  C   UNL     1       2.332   2.087  21.520  0.00  0.00    +0.000 C 
ATOM     15  O   UNL     1       3.271   2.882  20.792  0.00  0.00    +0.000 OA
ENDBRANCH   1  15
BRANCH   6  16
ATOM     16  C   UNL     1       4.724   4.213  18.729  0.00  0.00    +0.000 C 
BRANCH  16  17
ATOM     17  C   UNL     1       5.964   5.087  18.561  0.00  0.00    +0.000 A 
ATOM     18  N   UNL     1       7.031   5.014  19.343  0.00  0.00    +0.000 NA
ATOM     19  C   UNL     1       7.897   6.055  19.057  0.00  0.00    +0.000 A 
ATOM     20  C   UNL     1       7.493   6.904  18.050  0.00  0.00    +0.000 A 
ATOM     21  C   UNL     1       8.136   8.149  17.559  0.00  0.00    +0.000 C 
ATOM     22  S   UNL     1       6.015   6.345  17.385  0.00  0.00    +0.000 S 
ENDBRANCH  16  17
BRANCH  16  23
ATOM     23  C   UNL     1       4.297   3.612  17.376  0.00  0.00    +0.000 C 
BRANCH  23  24
ATOM     24  C   UNL     1       3.014   2.817  17.396  0.00  0.00    +0.000 C 
ATOM     25  O   UNL     1       1.960   3.243  16.948  0.00  0.00    +0.000 OA
BRANCH  24  26
ATOM     26  O   UNL     1       3.082   1.618  18.011  0.00  0.00    +0.000 OA
ATOM     27  H   UNL     1       2.199   1.257  18.269  0.00  0.00    +0.000 HD
ENDBRANCH  24  26
ENDBRANCH  23  24
ENDBRANCH  16  23
ENDBRANCH   6  16
TORSDOF 7
ENDMDL
MODEL 4
REMARK VINA RESULT:      -8.1      1.525      1.715
REMARK  Name = 
REMARK  9 active torsions:
REMARK  status: ('A' for Active; 'I' for Inactive)
REMARK    1  A    between atoms: C_1  and  O_2
REMARK    2  A    between atoms: O_2  and  C_3
REMARK    3  A    between atoms: C_6  and  C_7
REMARK    4  A    between atoms: C_15  and  C_16
REMARK    5  A    between atoms: C_16  and  C_17
REMARK    6  A    between atoms: C_16  and  C_21
REMARK    7  A    between atoms: C_17  and  C_18
REMARK    8  A    between atoms: C_18  and  O_20
REMARK    9  A    between atoms: C_24  and  C_25
REMARK                            x       y       z     vdW  Elec       q    Type
REMARK                         _______ _______ _______ _____ _____    ______ ____
ROOT
ATOM      1  C   UNL     1       3.245   3.829  19.754  0.00  0.00    +0.000 A 
ATOM      2  C   UNL     1       2.142   4.112  20.569  0.00  0.00    +0.000 A 
ATOM      3  C   UNL     1       1.627   5.405  20.650  0.00  0.00    +0.000 A 
ATOM      4  C   UNL     1       2.192   6.461  19.928  0.00  0.00    +0.000 A 
ATOM      5  C   UNL     1       3.259   6.152  19.063  0.00  0.00    +0.000 A 
ATOM      6  C   UNL     1       3.798   4.851  18.954  0.00  0.00    +0.000 A 
ENDROOT
BRANCH   4   7
ATOM      7  C   UNL     1       1.700   7.844  20.087  0.00  0.00    +0.000 A 
ATOM      8  C   UNL     1       1.282   8.333  21.340  0.00  0.00    +0.000 A 
ATOM      9  C   UNL     1       0.777   9.629  21.485  0.00  0.00    +0.000 A 
ATOM     10  C   UNL     1       0.697  10.479  20.384  0.00  0.00    +0.000 A 
ATOM     11  C   UNL     1       1.117  10.029  19.137  0.00  0.00    +0.000 A 
ATOM     12  C   UNL     1       1.600   8.729  18.996  0.00  0.00    +0.000 A 
ATOM     13  F   UNL     1       1.960   8.338  17.761  0.00  0.00    +0.000 F 
ENDBRANCH   4   7
BRANCH   1  15
ATOM     14  C   UNL     1       3.152   1.679  18.770  0.00  0.00    +0.000 C 
ATOM     15  O   UNL     1       3.802   2.578  19.672  0.00  0.00    +0.000 OA
ENDBRANCH   1  15
BRANCH   6  16
ATOM     16  C   UNL     1       4.925   4.565  17.962  0.00  0.00    +0.000 C 
BRANCH  16  17
ATOM     17  C   UNL     1       6.144   5.479  18.061  0.00  0.00    +0.000 A 
ATOM     18  N   UNL     1       7.173   5.254  18.864  0.00  0.00    +0.000 NA
ATOM     19  C   UNL     1       8.018   6.348  18.864  0.00  0.00    +0.000 A 
ATOM     20  C   UNL     1       7.638   7.394  18.051  0.00  0.00    +0.000 A 
ATOM     21  C   UNL     1       8.265   8.729  17.886  0.00  0.00    +0.000 C 
ATOM     22  S   UNL     1       6.213   6.969  17.199  0.00  0.00    +0.000 S 
ENDBRANCH  16  17
BRANCH  16  23
ATOM     23  C   UNL     1       4.424   4.485  16.507  0.00  0.00    +0.000 C 
BRANCH  23  24
ATOM     24  C   UNL     1       5.462   4.085  15.485  0.00  0.00    +0.000 C 
ATOM     25  O   UNL     1       5.706   4.749  14.489  0.00  0.00    +0.000 OA
BRANCH  24  26
ATOM     26  O   UNL     1       6.064   2.897  15.702  0.00  0.00    +0.000 OA
ATOM     27  H   UNL     1       6.422   2.481  14.881  0.00  0.00    +0.000 HD
ENDBRANCH  24  26
ENDBRANCH  23  24
ENDBRANCH  16  23
ENDBRANCH   6  16
TORSDOF 7
ENDMDL
MODEL 5
REMARK VINA RESULT:      -8.0      2.171      2.605
REMARK  Name = 
REMARK  9 active torsions:
REMARK  status: ('A' for Active; 'I' for Inactive)
REMARK    1  A    between atoms: C_1  and  O_2
REMARK    2  A    between atoms: O_2  and  C_3
REMARK    3  A    between atoms: C_6  and  C_7
REMARK    4  A    between atoms: C_15  and  C_16
REMARK    5  A    between atoms: C_16  and  C_17
REMARK    6  A    between atoms: C_16  and  C_21
REMARK    7  A    between atoms: C_17  and  C_18
REMARK    8  A    between atoms: C_18  and  O_20
REMARK    9  A    between atoms: C_24  and  C_25
REMARK                            x       y       z     vdW  Elec       q    Type
REMARK                         _______ _______ _______ _____ _____    ______ ____
ROOT
ATOM      1  C   UNL     1       3.483   3.811  17.943  0.00  0.00    +0.000 A 
ATOM      2  C   UNL     1       2.216   3.886  18.534  0.00  0.00    +0.000 A 
ATOM      3  C   UNL     1       1.701   5.106  18.968  0.00  0.00    +0.000 A 
ATOM      4  C   UNL     1       2.429   6.293  18.833  0.00  0.00    +0.000 A 
ATOM      5  C   UNL     1       3.673   6.215  18.178  0.00  0.00    +0.000 A 
ATOM      6  C   UNL     1       4.217   4.994  17.723  0.00  0.00    +0.000 A 
ENDROOT
BRANCH   4   7
ATOM      7  C   UNL     1       1.918   7.567  19.374  0.00  0.00    +0.000 A 
ATOM      8  C   UNL     1       1.584   7.703  20.737  0.00  0.00    +0.000 A 
ATOM      9  C   UNL     1       1.062   8.898  21.243  0.00  0.00    +0.000 A 
ATOM     10  C   UNL     1       0.880   9.995  20.406  0.00  0.00    +0.000 A 
ATOM     11  C   UNL     1       1.214   9.897  19.060  0.00  0.00    +0.000 A 
ATOM     12  C   UNL     1       1.716   8.697  18.558  0.00  0.00    +0.000 A 
ATOM     13  F   UNL     1       1.991   8.649  17.242  0.00  0.00    +0.000 F 
ENDBRANCH   4   7
BRANCH   1  15
ATOM     14  C   UNL     1       3.600   1.467  18.250  0.00  0.00    +0.000 C 
ATOM     15  O   UNL     1       4.039   2.624  17.533  0.00  0.00    +0.000 OA
ENDBRANCH   1  15
BRANCH   6  16
ATOM     16  C   UNL     1       5.552   4.978  16.976  0.00  0.00    +0.000 C 
BRANCH  16  17
ATOM     17  C   UNL     1       6.685   5.768  17.624  0.00  0.00    +0.000 A 
ATOM     18  N   UNL     1       7.409   5.324  18.639  0.00  0.00    +0.000 NA
ATOM     19  C   UNL     1       8.220   6.336  19.119  0.00  0.00    +0.000 A 
ATOM     20  C   UNL     1       8.122   7.541  18.457  0.00  0.00    +0.000 A 
ATOM     21  C   UNL     1       8.779   8.836  18.763  0.00  0.00    +0.000 C 
ATOM     22  S   UNL     1       7.032   7.386  17.143  0.00  0.00    +0.000 S 
ENDBRANCH  16  17
BRANCH  16  23
ATOM     23  C   UNL     1       5.402   5.363  15.491  0.00  0.00    +0.000 C 
BRANCH  23  24
ATOM     24  C   UNL     1       6.365   4.687  14.545  0.00  0.00    +0.000 C 
ATOM     25  O   UNL     1       6.095   3.659  13.942  0.00  0.00    +0.000 OA
BRANCH  24  26
ATOM     26  O   UNL     1       7.587   5.252  14.457  0.00  0.00    +0.000 OA
ATOM     27  H   UNL     1       8.149   4.867  13.741  0.00  0.00    +0.000 HD
ENDBRANCH  24  26
ENDBRANCH  23  24
ENDBRANCH  16  23
ENDBRANCH   6  16
TORSDOF 7
ENDMDL
MODEL 6
REMARK VINA RESULT:      -7.5      3.903      7.002
REMARK  Name = 
REMARK  9 active torsions:
REMARK  status: ('A' for Active; 'I' for Inactive)
REMARK    1  A    between atoms: C_1  and  O_2
REMARK    2  A    between atoms: O_2  and  C_3
REMARK    3  A    between atoms: C_6  and  C_7
REMARK    4  A    between atoms: C_15  and  C_16
REMARK    5  A    between atoms: C_16  and  C_17
REMARK    6  A    between atoms: C_16  and  C_21
REMARK    7  A    between atoms: C_17  and  C_18
REMARK    8  A    between atoms: C_18  and  O_20
REMARK    9  A    between atoms: C_24  and  C_25
REMARK                            x       y       z     vdW  Elec       q    Type
REMARK                         _______ _______ _______ _____ _____    ______ ____
ROOT
ATOM      1  C   UNL     1       6.458   5.287  18.273  0.00  0.00    +0.000 A 
ATOM      2  C   UNL     1       7.579   4.777  17.606  0.00  0.00    +0.000 A 
ATOM      3  C   UNL     1       7.540   4.517  16.238  0.00  0.00    +0.000 A 
ATOM      4  C   UNL     1       6.384   4.751  15.485  0.00  0.00    +0.000 A 
ATOM      5  C   UNL     1       5.285   5.325  16.153  0.00  0.00    +0.000 A 
ATOM      6  C   UNL     1       5.298   5.605  17.536  0.00  0.00    +0.000 A 
ENDROOT
BRANCH   4   7
ATOM      7  C   UNL     1       6.318   4.391  14.055  0.00  0.00    +0.000 A 
ATOM      8  C   UNL     1       5.274   3.592  13.548  0.00  0.00    +0.000 A 
ATOM      9  C   UNL     1       5.232   3.217  12.201  0.00  0.00    +0.000 A 
ATOM     10  C   UNL     1       6.221   3.648  11.321  0.00  0.00    +0.000 A 
ATOM     11  C   UNL     1       7.256   4.450  11.788  0.00  0.00    +0.000 A 
ATOM     12  C   UNL     1       7.302   4.804  13.136  0.00  0.00    +0.000 A 
ATOM     13  F   UNL     1       8.344   5.553  13.538  0.00  0.00    +0.000 F 
ENDBRANCH   4   7
BRANCH   1  15
ATOM     14  C   UNL     1       7.735   5.631  20.235  0.00  0.00    +0.000 C 
ATOM     15  O   UNL     1       6.446   5.524  19.624  0.00  0.00    +0.000 OA
ENDBRANCH   1  15
BRANCH   6  16
ATOM     16  C   UNL     1       4.092   6.273  18.198  0.00  0.00    +0.000 C 
BRANCH  16  17
ATOM     17  C   UNL     1       3.059   5.326  18.805  0.00  0.00    +0.000 A 
ATOM     18  N   UNL     1       2.904   5.138  20.106  0.00  0.00    +0.000 NA
ATOM     19  C   UNL     1       2.029   4.090  20.330  0.00  0.00    +0.000 A 
ATOM     20  C   UNL     1       1.511   3.497  19.200  0.00  0.00    +0.000 A 
ATOM     21  C   UNL     1       0.625   2.312  19.085  0.00  0.00    +0.000 C 
ATOM     22  S   UNL     1       2.078   4.321  17.807  0.00  0.00    +0.000 S 
ENDBRANCH  16  17
BRANCH  16  23
ATOM     23  C   UNL     1       3.409   7.303  17.278  0.00  0.00    +0.000 C 
BRANCH  23  24
ATOM     24  C   UNL     1       2.537   8.319  17.976  0.00  0.00    +0.000 C 
ATOM     25  O   UNL     1       2.200   9.373  17.460  0.00  0.00    +0.000 OA
BRANCH  24  26
ATOM     26  O   UNL     1       2.205   8.022  19.250  0.00  0.00    +0.000 OA
ATOM     27  H   UNL     1       1.437   7.406  19.323  0.00  0.00    +0.000 HD
ENDBRANCH  24  26
ENDBRANCH  23  24
ENDBRANCH  16  23
ENDBRANCH   6  16
TORSDOF 7
ENDMDL
MODEL 7
REMARK VINA RESULT:      -7.5      2.845      3.876
REMARK  Name = 
REMARK  9 active torsions:
REMARK  status: ('A' for Active; 'I' for Inactive)
REMARK    1  A    between atoms: C_1  and  O_2
REMARK    2  A    between atoms: O_2  and  C_3
REMARK    3  A    between atoms: C_6  and  C_7
REMARK    4  A    between atoms: C_15  and  C_16
REMARK    5  A    between atoms: C_16  and  C_17
REMARK    6  A    between atoms: C_16  and  C_21
REMARK    7  A    between atoms: C_17  and  C_18
REMARK    8  A    between atoms: C_18  and  O_20
REMARK    9  A    between atoms: C_24  and  C_25
REMARK                            x       y       z     vdW  Elec       q    Type
REMARK                         _______ _______ _______ _____ _____    ______ ____
ROOT
ATOM      1  C   UNL     1       3.977   4.300  18.182  0.00  0.00    +0.000 A 
ATOM      2  C   UNL     1       2.632   4.357  18.569  0.00  0.00    +0.000 A 
ATOM      3  C   UNL     1       1.990   5.582  18.744  0.00  0.00    +0.000 A 
ATOM      4  C   UNL     1       2.664   6.792  18.546  0.00  0.00    +0.000 A 
ATOM      5  C   UNL     1       3.995   6.722  18.093  0.00  0.00    +0.000 A 
ATOM      6  C   UNL     1       4.669   5.496  17.900  0.00  0.00    +0.000 A 
ENDROOT
BRANCH   4   7
ATOM      7  C   UNL     1       2.006   8.085  18.819  0.00  0.00    +0.000 A 
ATOM      8  C   UNL     1       1.911   9.082  17.828  0.00  0.00    +0.000 A 
ATOM      9  C   UNL     1       1.323  10.323  18.097  0.00  0.00    +0.000 A 
ATOM     10  C   UNL     1       0.797  10.592  19.359  0.00  0.00    +0.000 A 
ATOM     11  C   UNL     1       0.863   9.622  20.352  0.00  0.00    +0.000 A 
ATOM     12  C   UNL     1       1.467   8.394  20.083  0.00  0.00    +0.000 A 
ATOM     13  F   UNL     1       1.531   7.508  21.091  0.00  0.00    +0.000 F 
ENDBRANCH   4   7
BRANCH   1  15
ATOM     14  C   UNL     1       3.859   1.937  18.189  0.00  0.00    +0.000 C 
ATOM     15  O   UNL     1       4.653   3.116  18.031  0.00  0.00    +0.000 OA
ENDBRANCH   1  15
BRANCH   6  16
ATOM     16  C   UNL     1       6.100   5.481  17.362  0.00  0.00    +0.000 C 
BRANCH  16  17
ATOM     17  C   UNL     1       6.280   4.875  15.973  0.00  0.00    +0.000 A 
ATOM     18  N   UNL     1       7.421   4.893  15.301  0.00  0.00    +0.000 NA
ATOM     19  C   UNL     1       7.215   4.441  14.010  0.00  0.00    +0.000 A 
ATOM     20  C   UNL     1       5.924   4.065  13.711  0.00  0.00    +0.000 A 
ATOM     21  C   UNL     1       5.353   3.620  12.415  0.00  0.00    +0.000 C 
ATOM     22  S   UNL     1       4.944   4.213  15.110  0.00  0.00    +0.000 S 
ENDBRANCH  16  17
BRANCH  16  23
ATOM     23  C   UNL     1       7.099   4.860  18.358  0.00  0.00    +0.000 C 
BRANCH  23  24
ATOM     24  C   UNL     1       7.817   5.841  19.253  0.00  0.00    +0.000 C 
ATOM     25  O   UNL     1       8.275   6.899  18.848  0.00  0.00    +0.000 OA
BRANCH  24  26
ATOM     26  O   UNL     1       7.988   5.444  20.532  0.00  0.00    +0.000 OA
ATOM     27  H   UNL     1       8.621   6.009  21.038  0.00  0.00    +0.000 HD
ENDBRANCH  24  26
ENDBRANCH  23  24
ENDBRANCH  16  23
ENDBRANCH   6  16
TORSDOF 7
ENDMDL
MODEL 8
REMARK VINA RESULT:      -7.3      4.465      7.391
REMARK  Name = 
REMARK  9 active torsions:
REMARK  status: ('A' for Active; 'I' for Inactive)
REMARK    1  A    between atoms: C_1  and  O_2
REMARK    2  A    between atoms: O_2  and  C_3
REMARK    3  A    between atoms: C_6  and  C_7
REMARK    4  A    between atoms: C_15  and  C_16
REMARK    5  A    between atoms: C_16  and  C_17
REMARK    6  A    between atoms: C_16  and  C_21
REMARK    7  A    between atoms: C_17  and  C_18
REMARK    8  A    between atoms: C_18  and  O_20
REMARK    9  A    between atoms: C_24  and  C_25
REMARK                            x       y       z     vdW  Elec       q    Type
REMARK                         _______ _______ _______ _____ _____    ______ ____
ROOT
ATOM      1  C   UNL     1       0.502   9.314  20.296  0.00  0.00    +0.000 A 
ATOM      2  C   UNL     1       1.274   8.350  20.957  0.00  0.00    +0.000 A 
ATOM      3  C   UNL     1       2.128   7.509  20.246  0.00  0.00    +0.000 A 
ATOM      4  C   UNL     1       2.240   7.592  18.854  0.00  0.00    +0.000 A 
ATOM      5  C   UNL     1       1.508   8.608  18.208  0.00  0.00    +0.000 A 
ATOM      6  C   UNL     1       0.641   9.479  18.903  0.00  0.00    +0.000 A 
ENDROOT
BRANCH   4   7
ATOM      7  C   UNL     1       3.077   6.640  18.097  0.00  0.00    +0.000 A 
ATOM      8  C   UNL     1       4.213   7.071  17.384  0.00  0.00    +0.000 A 
ATOM      9  C   UNL     1       4.984   6.177  16.634  0.00  0.00    +0.000 A 
ATOM     10  C   UNL     1       4.652   4.825  16.594  0.00  0.00    +0.000 A 
ATOM     11  C   UNL     1       3.545   4.368  17.299  0.00  0.00    +0.000 A 
ATOM     12  C   UNL     1       2.769   5.268  18.029  0.00  0.00    +0.000 A 
ATOM     13  F   UNL     1       1.692   4.775  18.664  0.00  0.00    +0.000 F 
ENDBRANCH   4   7
BRANCH   1  15
ATOM     14  C   UNL     1      -0.180  10.226  22.371  0.00  0.00    +0.000 C 
ATOM     15  O   UNL     1      -0.374  10.138  20.957  0.00  0.00    +0.000 OA
ENDBRANCH   1  15
BRANCH   6  16
ATOM     16  C   UNL     1      -0.091  10.594  18.155  0.00  0.00    +0.000 C 
BRANCH  16  17
ATOM     17  C   UNL     1       0.237  12.017  18.598  0.00  0.00    +0.000 A 
ATOM     18  N   UNL     1      -0.667  12.974  18.740  0.00  0.00    +0.000 NA
ATOM     19  C   UNL     1      -0.039  14.186  18.964  0.00  0.00    +0.000 A 
ATOM     20  C   UNL     1       1.337  14.143  19.008  0.00  0.00    +0.000 A 
ATOM     21  C   UNL     1       2.307  15.259  19.144  0.00  0.00    +0.000 C 
ATOM     22  S   UNL     1       1.867  12.522  18.835  0.00  0.00    +0.000 S 
ENDBRANCH  16  17
BRANCH  16  23
ATOM     23  C   UNL     1      -1.617  10.376  18.118  0.00  0.00    +0.000 C 
BRANCH  23  24
ATOM     24  C   UNL     1      -2.258  10.517  16.759  0.00  0.00    +0.000 C 
ATOM     25  O   UNL     1      -2.732   9.572  16.145  0.00  0.00    +0.000 OA
BRANCH  24  26
ATOM     26  O   UNL     1      -2.216  11.753  16.220  0.00  0.00    +0.000 OA
ATOM     27  H   UNL     1      -3.108  12.128  16.023  0.00  0.00    +0.000 HD
ENDBRANCH  24  26
ENDBRANCH  23  24
ENDBRANCH  16  23
ENDBRANCH   6  16
TORSDOF 7
ENDMDL
MODEL 9
REMARK VINA RESULT:      -7.3      3.919      7.078
REMARK  Name = 
REMARK  9 active torsions:
REMARK  status: ('A' for Active; 'I' for Inactive)
REMARK    1  A    between atoms: C_1  and  O_2
REMARK    2  A    between atoms: O_2  and  C_3
REMARK    3  A    between atoms: C_6  and  C_7
REMARK    4  A    between atoms: C_15  and  C_16
REMARK    5  A    between atoms: C_16  and  C_17
REMARK    6  A    between atoms: C_16  and  C_21
REMARK    7  A    between atoms: C_17  and  C_18
REMARK    8  A    between atoms: C_18  and  O_20
REMARK    9  A    between atoms: C_24  and  C_25
REMARK                            x       y       z     vdW  Elec       q    Type
REMARK                         _______ _______ _______ _____ _____    ______ ____
ROOT
ATOM      1  C   UNL     1       6.455   5.272  18.245  0.00  0.00    +0.000 A 
ATOM      2  C   UNL     1       7.607   4.890  17.546  0.00  0.00    +0.000 A 
ATOM      3  C   UNL     1       7.558   4.624  16.179  0.00  0.00    +0.000 A 
ATOM      4  C   UNL     1       6.362   4.723  15.460  0.00  0.00    +0.000 A 
ATOM      5  C   UNL     1       5.225   5.171  16.160  0.00  0.00    +0.000 A 
ATOM      6  C   UNL     1       5.246   5.454  17.543  0.00  0.00    +0.000 A 
ENDROOT
BRANCH   4   7
ATOM      7  C   UNL     1       6.297   4.354  14.032  0.00  0.00    +0.000 A 
ATOM      8  C   UNL     1       5.252   3.553  13.531  0.00  0.00    +0.000 A 
ATOM      9  C   UNL     1       5.210   3.169  12.186  0.00  0.00    +0.000 A 
ATOM     10  C   UNL     1       6.200   3.594  11.303  0.00  0.00    +0.000 A 
ATOM     11  C   UNL     1       7.235   4.398  11.766  0.00  0.00    +0.000 A 
ATOM     12  C   UNL     1       7.281   4.761  13.112  0.00  0.00    +0.000 A 
ATOM     13  F   UNL     1       8.323   5.512  13.509  0.00  0.00    +0.000 F 
ENDBRANCH   4   7
BRANCH   1  15
ATOM     14  C   UNL     1       7.749   5.635  20.193  0.00  0.00    +0.000 C 
ATOM     15  O   UNL     1       6.455   5.510  19.597  0.00  0.00    +0.000 OA
ENDBRANCH   1  15
BRANCH   6  16
ATOM     16  C   UNL     1       3.991   5.983  18.239  0.00  0.00    +0.000 C 
BRANCH  16  17
ATOM     17  C   UNL     1       3.041   4.922  18.789  0.00  0.00    +0.000 A 
ATOM     18  N   UNL     1       1.976   4.477  18.141  0.00  0.00    +0.000 NA
ATOM     19  C   UNL     1       1.221   3.670  18.973  0.00  0.00    +0.000 A 
ATOM     20  C   UNL     1       1.723   3.491  20.244  0.00  0.00    +0.000 A 
ATOM     21  C   UNL     1       1.128   2.766  21.394  0.00  0.00    +0.000 C 
ATOM     22  S   UNL     1       3.228   4.301  20.385  0.00  0.00    +0.000 S 
ENDBRANCH  16  17
BRANCH  16  23
ATOM     23  C   UNL     1       3.223   7.004  17.377  0.00  0.00    +0.000 C 
BRANCH  23  24
ATOM     24  C   UNL     1       2.524   8.101  18.142  0.00  0.00    +0.000 C 
ATOM     25  O   UNL     1       2.182   7.986  19.310  0.00  0.00    +0.000 OA
BRANCH  24  26
ATOM     26  O   UNL     1       2.229   9.210  17.431  0.00  0.00    +0.000 OA
ATOM     27  H   UNL     1       1.707   9.877  17.939  0.00  0.00    +0.000 HD
ENDBRANCH  24  26
ENDBRANCH  23  24
ENDBRANCH  16  23
ENDBRANCH   6  16
TORSDOF 7
ENDMDL
