MODEL 1
REMARK VINA RESULT:      -7.0      0.000      0.000
REMARK  Name = 
REMARK  7 active torsions:
REMARK  status: ('A' for Active; 'I' for Inactive)
REMARK    1  A    between atoms: C_2  and  O_3
REMARK    2  A    between atoms: C_2  and  C_4
REMARK    3  A    between atoms: C_4  and  C_5
REMARK    4  A    between atoms: C_5  and  C_6
REMARK    5  A    between atoms: N_8  and  C_9
REMARK    6  A    between atoms: C_9  and  C_10
REMARK    7  A    between atoms: C_17  and  C_18
REMARK                            x       y       z     vdW  Elec       q    Type
REMARK                         _______ _______ _______ _____ _____    ______ ____
ROOT
ATOM      1  C   UNL     1       3.084   3.866  19.075  0.00  0.00    +0.000 C 
ATOM      2  O   UNL     1       3.316   2.654  18.992  0.00  0.00    +0.000 OA
ATOM      3  N   UNL     1       3.375   4.759  18.027  0.00  0.00    +0.000 N 
ATOM      4  C   UNL     1       3.009   6.107  18.141  0.00  0.00    +0.000 A 
ATOM      5  N   UNL     1       2.191   6.608  19.032  0.00  0.00    +0.000 NA
ATOM      6  C   UNL     1       2.109   7.983  18.939  0.00  0.00    +0.000 A 
ATOM      7  C   UNL     1       2.847   8.519  17.904  0.00  0.00    +0.000 A 
ATOM      8  S   UNL     1       3.655   7.268  17.055  0.00  0.00    +0.000 S 
ENDROOT
BRANCH   6   9
ATOM      9  C   UNL     1       1.318   8.749  19.896  0.00  0.00    +0.000 A 
ATOM     10  C   UNL     1       1.122   8.295  21.206  0.00  0.00    +0.000 A 
ATOM     11  C   UNL     1       0.335   9.020  22.103  0.00  0.00    +0.000 A 
ATOM     12  C   UNL     1      -0.267  10.210  21.698  0.00  0.00    +0.000 A 
ATOM     13  C   UNL     1      -0.081  10.679  20.398  0.00  0.00    +0.000 A 
ATOM     14  C   UNL     1       0.704   9.950  19.502  0.00  0.00    +0.000 A 
ENDBRANCH   6   9
BRANCH   1  15
ATOM     15  C   UNL     1       2.510   4.401  20.389  0.00  0.00    +0.000 C 
BRANCH  15  16
ATOM     16  C   UNL     1       1.303   3.657  20.942  0.00  0.00    +0.000 C 
BRANCH  16  18
ATOM     17  O   UNL     1       0.836   2.148  22.759  0.00  0.00    +0.000 OA
ATOM     18  C   UNL     1       1.650   2.631  21.987  0.00  0.00    +0.000 C 
BRANCH  18  19
ATOM     19  O   UNL     1       2.947   2.267  21.986  0.00  0.00    +0.000 OA
ATOM     20  H   UNL     1       3.090   1.314  21.765  0.00  0.00    +0.000 HD
ENDBRANCH  18  19
ENDBRANCH  16  18
ENDBRANCH  15  16
ENDBRANCH   1  15
BRANCH   3  21
ATOM     21  C   UNL     1       3.959   4.197  16.797  0.00  0.00    +0.000 C 
BRANCH  21  22
ATOM     22  C   UNL     1       5.432   4.406  16.694  0.00  0.00    +0.000 A 
ATOM     23  C   UNL     1       6.313   4.647  15.658  0.00  0.00    +0.000 A 
ATOM     24  C   UNL     1       7.597   4.787  16.244  0.00  0.00    +0.000 A 
ATOM     25  C   UNL     1       7.422   4.633  17.598  0.00  0.00    +0.000 A 
ATOM     26  O   UNL     1       6.115   4.403  17.880  0.00  0.00    +0.000 OA
ENDBRANCH  21  22
ENDBRANCH   3  21
TORSDOF 7
ENDMDL
MODEL 2
REMARK VINA RESULT:      -6.7      0.685      1.208
REMARK  Name = 
REMARK  7 active torsions:
REMARK  status: ('A' for Active; 'I' for Inactive)
REMARK    1  A    between atoms: C_2  and  O_3
REMARK    2  A    between atoms: C_2  and  C_4
REMARK    3  A    between atoms: C_4  and  C_5
REMARK    4  A    between atoms: C_5  and  C_6
REMARK    5  A    between atoms: N_8  and  C_9
REMARK    6  A    between atoms: C_9  and  C_10
REMARK    7  A    between atoms: C_17  and  C_18
REMARK                            x       y       z     vdW  Elec       q    Type
REMARK                         _______ _______ _______ _____ _____    ______ ____
ROOT
ATOM      1  C   UNL     1       2.508   3.788  18.693  0.00  0.00    +0.000 C 
ATOM      2  O   UNL     1       2.585   2.555  18.632  0.00  0.00    +0.000 OA
ATOM      3  N   UNL     1       3.214   4.628  17.812  0.00  0.00    +0.000 N 
ATOM      4  C   UNL     1       3.021   6.015  17.870  0.00  0.00    +0.000 A 
ATOM      5  N   UNL     1       2.053   6.630  18.504  0.00  0.00    +0.000 NA
ATOM      6  C   UNL     1       2.192   8.002  18.448  0.00  0.00    +0.000 A 
ATOM      7  C   UNL     1       3.268   8.425  17.696  0.00  0.00    +0.000 A 
ATOM      8  S   UNL     1       4.110   7.070  17.067  0.00  0.00    +0.000 S 
ENDROOT
BRANCH   6   9
ATOM      9  C   UNL     1       1.269   8.875  19.164  0.00  0.00    +0.000 A 
ATOM     10  C   UNL     1       0.555   9.880  18.500  0.00  0.00    +0.000 A 
ATOM     11  C   UNL     1      -0.300  10.731  19.202  0.00  0.00    +0.000 A 
ATOM     12  C   UNL     1      -0.450  10.587  20.581  0.00  0.00    +0.000 A 
ATOM     13  C   UNL     1       0.251   9.591  21.258  0.00  0.00    +0.000 A 
ATOM     14  C   UNL     1       1.109   8.743  20.554  0.00  0.00    +0.000 A 
ENDBRANCH   6   9
BRANCH   1  15
ATOM     15  C   UNL     1       1.653   4.402  19.804  0.00  0.00    +0.000 C 
BRANCH  15  16
ATOM     16  C   UNL     1       2.229   4.321  21.211  0.00  0.00    +0.000 C 
BRANCH  16  18
ATOM     17  O   UNL     1       1.249   2.437  22.346  0.00  0.00    +0.000 OA
ATOM     18  C   UNL     1       2.218   2.932  21.791  0.00  0.00    +0.000 C 
BRANCH  18  19
ATOM     19  O   UNL     1       3.375   2.261  21.626  0.00  0.00    +0.000 OA
ATOM     20  H   UNL     1       4.152   2.849  21.459  0.00  0.00    +0.000 HD
ENDBRANCH  18  19
ENDBRANCH  16  18
ENDBRANCH  15  16
ENDBRANCH   1  15
BRANCH   3  21
ATOM     21  C   UNL     1       4.051   3.987  16.784  0.00  0.00    +0.000 C 
BRANCH  21  22
ATOM     22  C   UNL     1       5.511   4.215  16.982  0.00  0.00    +0.000 A 
ATOM     23  C   UNL     1       6.601   4.345  16.145  0.00  0.00    +0.000 A 
ATOM     24  C   UNL     1       7.724   4.587  16.977  0.00  0.00    +0.000 A 
ATOM     25  C   UNL     1       7.251   4.601  18.267  0.00  0.00    +0.000 A 
ATOM     26  O   UNL     1       5.913   4.377  18.281  0.00  0.00    +0.000 OA
ENDBRANCH  21  22
ENDBRANCH   3  21
TORSDOF 7
ENDMDL
MODEL 3
REMARK VINA RESULT:      -6.7      0.561      1.182
REMARK  Name = 
REMARK  7 active torsions:
REMARK  status: ('A' for Active; 'I' for Inactive)
REMARK    1  A    between atoms: C_2  and  O_3
REMARK    2  A    between atoms: C_2  and  C_4
REMARK    3  A    between atoms: C_4  and  C_5
REMARK    4  A    between atoms: C_5  and  C_6
REMARK    5  A    between atoms: N_8  and  C_9
REMARK    6  A    between atoms: C_9  and  C_10
REMARK    7  A    between atoms: C_17  and  C_18
REMARK                            x       y       z     vdW  Elec       q    Type
REMARK                         _______ _______ _______ _____ _____    ______ ____
ROOT
ATOM      1  C   UNL     1       3.282   3.827  19.094  0.00  0.00    +0.000 C 
ATOM      2  O   UNL     1       3.557   2.625  19.005  0.00  0.00    +0.000 OA
ATOM      3  N   UNL     1       3.481   4.724  18.027  0.00  0.00    +0.000 N 
ATOM      4  C   UNL     1       3.070   6.057  18.155  0.00  0.00    +0.000 A 
ATOM      5  N   UNL     1       2.279   6.532  19.084  0.00  0.00    +0.000 NA
ATOM      6  C   UNL     1       2.138   7.902  18.989  0.00  0.00    +0.000 A 
ATOM      7  C   UNL     1       2.799   8.459  17.915  0.00  0.00    +0.000 A 
ATOM      8  S   UNL     1       3.610   7.236  17.030  0.00  0.00    +0.000 S 
ENDROOT
BRANCH   6   9
ATOM      9  C   UNL     1       1.369   8.643  19.982  0.00  0.00    +0.000 A 
ATOM     10  C   UNL     1       0.649   9.793  19.636  0.00  0.00    +0.000 A 
ATOM     11  C   UNL     1      -0.055  10.513  20.602  0.00  0.00    +0.000 A 
ATOM     12  C   UNL     1      -0.048  10.090  21.931  0.00  0.00    +0.000 A 
ATOM     13  C   UNL     1       0.661   8.946  22.294  0.00  0.00    +0.000 A 
ATOM     14  C   UNL     1       1.368   8.229  21.326  0.00  0.00    +0.000 A 
ENDBRANCH   6   9
BRANCH   1  15
ATOM     15  C   UNL     1       2.756   4.349  20.434  0.00  0.00    +0.000 C 
BRANCH  15  16
ATOM     16  C   UNL     1       2.656   3.324  21.555  0.00  0.00    +0.000 C 
BRANCH  16  18
ATOM     17  O   UNL     1       0.915   2.140  22.724  0.00  0.00    +0.000 OA
ATOM     18  C   UNL     1       1.275   2.750  21.728  0.00  0.00    +0.000 C 
BRANCH  18  19
ATOM     19  O   UNL     1       0.450   2.986  20.689  0.00  0.00    +0.000 OA
ATOM     20  H   UNL     1      -0.017   3.855  20.746  0.00  0.00    +0.000 HD
ENDBRANCH  18  19
ENDBRANCH  16  18
ENDBRANCH  15  16
ENDBRANCH   1  15
BRANCH   3  21
ATOM     21  C   UNL     1       4.023   4.177  16.772  0.00  0.00    +0.000 C 
BRANCH  21  22
ATOM     22  C   UNL     1       5.486   4.413  16.606  0.00  0.00    +0.000 A 
ATOM     23  C   UNL     1       6.312   4.707  15.540  0.00  0.00    +0.000 A 
ATOM     24  C   UNL     1       7.621   4.845  16.068  0.00  0.00    +0.000 A 
ATOM     25  C   UNL     1       7.514   4.638  17.423  0.00  0.00    +0.000 A 
ATOM     26  O   UNL     1       6.225   4.376  17.758  0.00  0.00    +0.000 OA
ENDBRANCH  21  22
ENDBRANCH   3  21
TORSDOF 7
ENDMDL
MODEL 4
REMARK VINA RESULT:      -6.6      0.973      1.004
REMARK  Name = 
REMARK  7 active torsions:
REMARK  status: ('A' for Active; 'I' for Inactive)
REMARK    1  A    between atoms: C_2  and  O_3
REMARK    2  A    between atoms: C_2  and  C_4
REMARK    3  A    between atoms: C_4  and  C_5
REMARK    4  A    between atoms: C_5  and  C_6
REMARK    5  A    between atoms: N_8  and  C_9
REMARK    6  A    between atoms: C_9  and  C_10
REMARK    7  A    between atoms: C_17  and  C_18
REMARK                            x       y       z     vdW  Elec       q    Type
REMARK                         _______ _______ _______ _____ _____    ______ ____
ROOT
ATOM      1  C   UNL     1       3.231   4.623  19.207  0.00  0.00    +0.000 C 
ATOM      2  O   UNL     1       3.613   3.461  19.026  0.00  0.00    +0.000 OA
ATOM      3  N   UNL     1       3.349   5.615  18.215  0.00  0.00    +0.000 N 
ATOM      4  C   UNL     1       2.820   6.892  18.443  0.00  0.00    +0.000 A 
ATOM      5  N   UNL     1       1.993   7.221  19.403  0.00  0.00    +0.000 NA
ATOM      6  C   UNL     1       1.730   8.576  19.415  0.00  0.00    +0.000 A 
ATOM      7  C   UNL     1       2.337   9.272  18.391  0.00  0.00    +0.000 A 
ATOM      8  S   UNL     1       3.252   8.198  17.417  0.00  0.00    +0.000 S 
ENDROOT
BRANCH   6   9
ATOM      9  C   UNL     1       0.900   9.166  20.459  0.00  0.00    +0.000 A 
ATOM     10  C   UNL     1       0.831   8.602  21.739  0.00  0.00    +0.000 A 
ATOM     11  C   UNL     1       0.006   9.155  22.720  0.00  0.00    +0.000 A 
ATOM     12  C   UNL     1      -0.762  10.282  22.431  0.00  0.00    +0.000 A 
ATOM     13  C   UNL     1      -0.704  10.859  21.163  0.00  0.00    +0.000 A 
ATOM     14  C   UNL     1       0.119  10.301  20.182  0.00  0.00    +0.000 A 
ENDBRANCH   6   9
BRANCH   1  15
ATOM     15  C   UNL     1       2.664   4.990  20.581  0.00  0.00    +0.000 C 
BRANCH  15  16
ATOM     16  C   UNL     1       1.313   4.381  20.928  0.00  0.00    +0.000 C 
BRANCH  16  18
ATOM     17  O   UNL     1       1.496   2.456  22.363  0.00  0.00    +0.000 OA
ATOM     18  C   UNL     1       1.373   2.909  21.235  0.00  0.00    +0.000 C 
BRANCH  18  19
ATOM     19  O   UNL     1       1.256   2.119  20.150  0.00  0.00    +0.000 OA
ATOM     20  H   UNL     1       1.880   1.352  20.151  0.00  0.00    +0.000 HD
ENDBRANCH  18  19
ENDBRANCH  16  18
ENDBRANCH  15  16
ENDBRANCH   1  15
BRANCH   3  21
ATOM     21  C   UNL     1       3.934   5.218  16.923  0.00  0.00    +0.000 C 
BRANCH  21  22
ATOM     22  C   UNL     1       5.413   5.034  16.975  0.00  0.00    +0.000 A 
ATOM     23  C   UNL     1       6.312   4.183  16.364  0.00  0.00    +0.000 A 
ATOM     24  C   UNL     1       7.601   4.558  16.824  0.00  0.00    +0.000 A 
ATOM     25  C   UNL     1       7.412   5.618  17.676  0.00  0.00    +0.000 A 
ATOM     26  O   UNL     1       6.091   5.915  17.774  0.00  0.00    +0.000 OA
ENDBRANCH  21  22
ENDBRANCH   3  21
TORSDOF 7
ENDMDL
MODEL 5
REMARK VINA RESULT:      -6.5      1.170      1.642
REMARK  Name = 
REMARK  7 active torsions:
REMARK  status: ('A' for Active; 'I' for Inactive)
REMARK    1  A    between atoms: C_2  and  O_3
REMARK    2  A    between atoms: C_2  and  C_4
REMARK    3  A    between atoms: C_4  and  C_5
REMARK    4  A    between atoms: C_5  and  C_6
REMARK    5  A    between atoms: N_8  and  C_9
REMARK    6  A    between atoms: C_9  and  C_10
REMARK    7  A    between atoms: C_17  and  C_18
REMARK                            x       y       z     vdW  Elec       q    Type
REMARK                         _______ _______ _______ _____ _____    ______ ____
ROOT
ATOM      1  C   UNL     1       2.932   4.711  19.346  0.00  0.00    +0.000 C 
ATOM      2  O   UNL     1       3.290   3.546  19.135  0.00  0.00    +0.000 OA
ATOM      3  N   UNL     1       3.051   5.721  18.373  0.00  0.00    +0.000 N 
ATOM      4  C   UNL     1       2.548   7.002  18.637  0.00  0.00    +0.000 A 
ATOM      5  N   UNL     1       1.742   7.324  19.617  0.00  0.00    +0.000 NA
ATOM      6  C   UNL     1       1.503   8.683  19.661  0.00  0.00    +0.000 A 
ATOM      7  C   UNL     1       2.106   9.390  18.642  0.00  0.00    +0.000 A 
ATOM      8  S   UNL     1       2.987   8.322  17.632  0.00  0.00    +0.000 S 
ENDROOT
BRANCH   6   9
ATOM      9  C   UNL     1       0.699   9.264  20.731  0.00  0.00    +0.000 A 
ATOM     10  C   UNL     1      -0.157  10.346  20.492  0.00  0.00    +0.000 A 
ATOM     11  C   UNL     1      -0.895  10.916  21.530  0.00  0.00    +0.000 A 
ATOM     12  C   UNL     1      -0.784  10.409  22.824  0.00  0.00    +0.000 A 
ATOM     13  C   UNL     1       0.062   9.331  23.081  0.00  0.00    +0.000 A 
ATOM     14  C   UNL     1       0.802   8.765  22.040  0.00  0.00    +0.000 A 
ENDBRANCH   6   9
BRANCH   1  15
ATOM     15  C   UNL     1       2.393   5.057  20.736  0.00  0.00    +0.000 C 
BRANCH  15  16
ATOM     16  C   UNL     1       2.466   3.947  21.776  0.00  0.00    +0.000 C 
BRANCH  16  18
ATOM     17  O   UNL     1       1.140   2.073  22.501  0.00  0.00    +0.000 OA
ATOM     18  C   UNL     1       1.349   2.944  21.670  0.00  0.00    +0.000 C 
BRANCH  18  19
ATOM     19  O   UNL     1       0.575   3.101  20.579  0.00  0.00    +0.000 OA
ATOM     20  H   UNL     1       0.686   3.979  20.138  0.00  0.00    +0.000 HD
ENDBRANCH  18  19
ENDBRANCH  16  18
ENDBRANCH  15  16
ENDBRANCH   1  15
BRANCH   3  21
ATOM     21  C   UNL     1       3.610   5.342  17.064  0.00  0.00    +0.000 C 
BRANCH  21  22
ATOM     22  C   UNL     1       5.100   5.368  17.027  0.00  0.00    +0.000 A 
ATOM     23  C   UNL     1       6.073   6.212  17.523  0.00  0.00    +0.000 A 
ATOM     24  C   UNL     1       7.323   5.643  17.166  0.00  0.00    +0.000 A 
ATOM     25  C   UNL     1       7.037   4.484  16.484  0.00  0.00    +0.000 A 
ATOM     26  O   UNL     1       5.694   4.309  16.395  0.00  0.00    +0.000 OA
ENDBRANCH  21  22
ENDBRANCH   3  21
TORSDOF 7
ENDMDL
MODEL 6
REMARK VINA RESULT:      -6.5      5.875      9.714
REMARK  Name = 
REMARK  7 active torsions:
REMARK  status: ('A' for Active; 'I' for Inactive)
REMARK    1  A    between atoms: C_2  and  O_3
REMARK    2  A    between atoms: C_2  and  C_4
REMARK    3  A    between atoms: C_4  and  C_5
REMARK    4  A    between atoms: C_5  and  C_6
REMARK    5  A    between atoms: N_8  and  C_9
REMARK    6  A    between atoms: C_9  and  C_10
REMARK    7  A    between atoms: C_17  and  C_18
REMARK                            x       y       z     vdW  Elec       q    Type
REMARK                         _______ _______ _______ _____ _____    ______ ____
ROOT
ATOM      1  C   UNL     1      -3.075  11.466  18.616  0.00  0.00    +0.000 C 
ATOM      2  O   UNL     1      -4.222  11.865  18.382  0.00  0.00    +0.000 OA
ATOM      3  N   UNL     1      -2.224  12.120  19.527  0.00  0.00    +0.000 N 
ATOM      4  C   UNL     1      -0.967  11.573  19.818  0.00  0.00    +0.000 A 
ATOM      5  N   UNL     1      -0.568  10.363  19.519  0.00  0.00    +0.000 NA
ATOM      6  C   UNL     1       0.755  10.158  19.859  0.00  0.00    +0.000 A 
ATOM      7  C   UNL     1       1.343  11.236  20.488  0.00  0.00    +0.000 A 
ATOM      8  S   UNL     1       0.212  12.515  20.637  0.00  0.00    +0.000 S 
ENDROOT
BRANCH   6   9
ATOM      9  C   UNL     1       1.424   8.905  19.532  0.00  0.00    +0.000 A 
ATOM     10  C   UNL     1       1.589   7.896  20.489  0.00  0.00    +0.000 A 
ATOM     11  C   UNL     1       2.261   6.714  20.174  0.00  0.00    +0.000 A 
ATOM     12  C   UNL     1       2.778   6.527  18.892  0.00  0.00    +0.000 A 
ATOM     13  C   UNL     1       2.621   7.519  17.925  0.00  0.00    +0.000 A 
ATOM     14  C   UNL     1       1.951   8.702  18.245  0.00  0.00    +0.000 A 
ENDBRANCH   6   9
BRANCH   1  15
ATOM     15  C   UNL     1      -2.562  10.250  17.839  0.00  0.00    +0.000 C 
BRANCH  15  16
ATOM     16  C   UNL     1      -3.416   9.804  16.660  0.00  0.00    +0.000 C 
BRANCH  16  18
ATOM     17  O   UNL     1      -2.537  10.047  14.432  0.00  0.00    +0.000 OA
ATOM     18  C   UNL     1      -3.120  10.544  15.384  0.00  0.00    +0.000 C 
BRANCH  18  19
ATOM     19  O   UNL     1      -3.576  11.812  15.368  0.00  0.00    +0.000 OA
ATOM     20  H   UNL     1      -4.562  11.876  15.344  0.00  0.00    +0.000 HD
ENDBRANCH  18  19
ENDBRANCH  16  18
ENDBRANCH  15  16
ENDBRANCH   1  15
BRANCH   3  21
ATOM     21  C   UNL     1      -2.753  13.306  20.221  0.00  0.00    +0.000 C 
BRANCH  21  22
ATOM     22  C   UNL     1      -3.357  12.995  21.549  0.00  0.00    +0.000 A 
ATOM     23  C   UNL     1      -2.858  12.672  22.795  0.00  0.00    +0.000 A 
ATOM     24  C   UNL     1      -3.977  12.532  23.654  0.00  0.00    +0.000 A 
ATOM     25  C   UNL     1      -5.088  12.786  22.886  0.00  0.00    +0.000 A 
ATOM     26  O   UNL     1      -4.722  13.068  21.609  0.00  0.00    +0.000 OA
ENDBRANCH  21  22
ENDBRANCH   3  21
TORSDOF 7
ENDMDL
MODEL 7
REMARK VINA RESULT:      -6.5      1.043      1.188
REMARK  Name = 
REMARK  7 active torsions:
REMARK  status: ('A' for Active; 'I' for Inactive)
REMARK    1  A    between atoms: C_2  and  O_3
REMARK    2  A    between atoms: C_2  and  C_4
REMARK    3  A    between atoms: C_4  and  C_5
REMARK    4  A    between atoms: C_5  and  C_6
REMARK    5  A    between atoms: N_8  and  C_9
REMARK    6  A    between atoms: C_9  and  C_10
REMARK    7  A    between atoms: C_17  and  C_18
REMARK                            x       y       z     vdW  Elec       q    Type
REMARK                         _______ _______ _______ _____ _____    ______ ____
ROOT
ATOM      1  C   UNL     1       2.355   3.706  18.181  0.00  0.00    +0.000 C 
ATOM      2  O   UNL     1       2.375   2.479  18.032  0.00  0.00    +0.000 OA
ATOM      3  N   UNL     1       3.233   4.561  17.487  0.00  0.00    +0.000 N 
ATOM      4  C   UNL     1       3.107   5.949  17.629  0.00  0.00    +0.000 A 
ATOM      5  N   UNL     1       2.088   6.578  18.159  0.00  0.00    +0.000 NA
ATOM      6  C   UNL     1       2.307   7.939  18.236  0.00  0.00    +0.000 A 
ATOM      7  C   UNL     1       3.508   8.344  17.691  0.00  0.00    +0.000 A 
ATOM      8  S   UNL     1       4.362   6.986  17.087  0.00  0.00    +0.000 S 
ENDROOT
BRANCH   6   9
ATOM      9  C   UNL     1       1.333   8.816  18.875  0.00  0.00    +0.000 A 
ATOM     10  C   UNL     1       1.133   8.795  20.261  0.00  0.00    +0.000 A 
ATOM     11  C   UNL     1       0.173   9.614  20.857  0.00  0.00    +0.000 A 
ATOM     12  C   UNL     1      -0.601  10.467  20.071  0.00  0.00    +0.000 A 
ATOM     13  C   UNL     1      -0.415  10.504  18.690  0.00  0.00    +0.000 A 
ATOM     14  C   UNL     1       0.545   9.680  18.096  0.00  0.00    +0.000 A 
ENDBRANCH   6   9
BRANCH   1  15
ATOM     15  C   UNL     1       1.373   4.293  19.198  0.00  0.00    +0.000 C 
BRANCH  15  16
ATOM     16  C   UNL     1       1.095   3.438  20.427  0.00  0.00    +0.000 C 
BRANCH  16  18
ATOM     17  O   UNL     1       2.395   2.758  22.336  0.00  0.00    +0.000 OA
ATOM     18  C   UNL     1       2.094   3.630  21.536  0.00  0.00    +0.000 C 
BRANCH  18  19
ATOM     19  O   UNL     1       2.654   4.856  21.562  0.00  0.00    +0.000 OA
ATOM     20  H   UNL     1       3.068   5.119  20.703  0.00  0.00    +0.000 HD
ENDBRANCH  18  19
ENDBRANCH  16  18
ENDBRANCH  15  16
ENDBRANCH   1  15
BRANCH   3  21
ATOM     21  C   UNL     1       4.183   3.942  16.547  0.00  0.00    +0.000 C 
BRANCH  21  22
ATOM     22  C   UNL     1       5.610   4.192  16.898  0.00  0.00    +0.000 A 
ATOM     23  C   UNL     1       6.771   4.393  16.179  0.00  0.00    +0.000 A 
ATOM     24  C   UNL     1       7.802   4.615  17.127  0.00  0.00    +0.000 A 
ATOM     25  C   UNL     1       7.208   4.546  18.364  0.00  0.00    +0.000 A 
ATOM     26  O   UNL     1       5.881   4.291  18.237  0.00  0.00    +0.000 OA
ENDBRANCH  21  22
ENDBRANCH   3  21
TORSDOF 7
ENDMDL
MODEL 8
REMARK VINA RESULT:      -6.5      0.732      1.303
REMARK  Name = 
REMARK  7 active torsions:
REMARK  status: ('A' for Active; 'I' for Inactive)
REMARK    1  A    between atoms: C_2  and  O_3
REMARK    2  A    between atoms: C_2  and  C_4
REMARK    3  A    between atoms: C_4  and  C_5
REMARK    4  A    between atoms: C_5  and  C_6
REMARK    5  A    between atoms: N_8  and  C_9
REMARK    6  A    between atoms: C_9  and  C_10
REMARK    7  A    between atoms: C_17  and  C_18
REMARK                            x       y       z     vdW  Elec       q    Type
REMARK                         _______ _______ _______ _____ _____    ______ ____
ROOT
ATOM      1  C   UNL     1       2.522   3.679  18.492  0.00  0.00    +0.000 C 
ATOM      2  O   UNL     1       2.603   2.467  18.258  0.00  0.00    +0.000 OA
ATOM      3  N   UNL     1       3.118   4.646  17.660  0.00  0.00    +0.000 N 
ATOM      4  C   UNL     1       2.921   6.007  17.925  0.00  0.00    +0.000 A 
ATOM      5  N   UNL     1       2.025   6.510  18.737  0.00  0.00    +0.000 NA
ATOM      6  C   UNL     1       2.145   7.880  18.851  0.00  0.00    +0.000 A 
ATOM      7  C   UNL     1       3.127   8.424  18.050  0.00  0.00    +0.000 A 
ATOM      8  S   UNL     1       3.905   7.185  17.157  0.00  0.00    +0.000 S 
ENDROOT
BRANCH   6   9
ATOM      9  C   UNL     1       1.300   8.628  19.775  0.00  0.00    +0.000 A 
ATOM     10  C   UNL     1       0.556   9.735  19.347  0.00  0.00    +0.000 A 
ATOM     11  C   UNL     1      -0.222  10.465  20.247  0.00  0.00    +0.000 A 
ATOM     12  C   UNL     1      -0.267  10.094  21.590  0.00  0.00    +0.000 A 
ATOM     13  C   UNL     1       0.465   8.993  22.034  0.00  0.00    +0.000 A 
ATOM     14  C   UNL     1       1.246   8.267  21.132  0.00  0.00    +0.000 A 
ENDBRANCH   6   9
BRANCH   1  15
ATOM     15  C   UNL     1       1.791   4.120  19.762  0.00  0.00    +0.000 C 
BRANCH  15  16
ATOM     16  C   UNL     1       0.949   3.055  20.451  0.00  0.00    +0.000 C 
BRANCH  16  18
ATOM     17  O   UNL     1       0.792   2.304  22.733  0.00  0.00    +0.000 OA
ATOM     18  C   UNL     1       1.494   2.622  21.785  0.00  0.00    +0.000 C 
BRANCH  18  19
ATOM     19  O   UNL     1       2.840   2.590  21.842  0.00  0.00    +0.000 OA
ATOM     20  H   UNL     1       3.257   3.486  21.826  0.00  0.00    +0.000 HD
ENDBRANCH  18  19
ENDBRANCH  16  18
ENDBRANCH  15  16
ENDBRANCH   1  15
BRANCH   3  21
ATOM     21  C   UNL     1       3.841   4.166  16.470  0.00  0.00    +0.000 C 
BRANCH  21  22
ATOM     22  C   UNL     1       5.319   4.345  16.563  0.00  0.00    +0.000 A 
ATOM     23  C   UNL     1       6.249   4.260  17.580  0.00  0.00    +0.000 A 
ATOM     24  C   UNL     1       7.515   4.510  16.992  0.00  0.00    +0.000 A 
ATOM     25  C   UNL     1       7.283   4.721  15.654  0.00  0.00    +0.000 A 
ATOM     26  O   UNL     1       5.957   4.622  15.384  0.00  0.00    +0.000 OA
ENDBRANCH  21  22
ENDBRANCH   3  21
TORSDOF 7
ENDMDL
MODEL 9
REMARK VINA RESULT:      -6.4      6.089     10.162
REMARK  Name = 
REMARK  7 active torsions:
REMARK  status: ('A' for Active; 'I' for Inactive)
REMARK    1  A    between atoms: C_2  and  O_3
REMARK    2  A    between atoms: C_2  and  C_4
REMARK    3  A    between atoms: C_4  and  C_5
REMARK    4  A    between atoms: C_5  and  C_6
REMARK    5  A    between atoms: N_8  and  C_9
REMARK    6  A    between atoms: C_9  and  C_10
REMARK    7  A    between atoms: C_17  and  C_18
REMARK                            x       y       z     vdW  Elec       q    Type
REMARK                         _______ _______ _______ _____ _____    ______ ____
ROOT
ATOM      1  C   UNL     1      -3.666  12.187  19.369  0.00  0.00    +0.000 C 
ATOM      2  O   UNL     1      -4.847  12.544  19.282  0.00  0.00    +0.000 OA
ATOM      3  N   UNL     1      -2.776  12.760  20.297  0.00  0.00    +0.000 N 
ATOM      4  C   UNL     1      -1.473  12.256  20.411  0.00  0.00    +0.000 A 
ATOM      5  N   UNL     1      -1.040  11.125  19.913  0.00  0.00    +0.000 NA
ATOM      6  C   UNL     1       0.315  10.957  20.119  0.00  0.00    +0.000 A 
ATOM      7  C   UNL     1       0.900  11.972  20.847  0.00  0.00    +0.000 A 
ATOM      8  S   UNL     1      -0.278  13.146  21.263  0.00  0.00    +0.000 S 
ENDROOT
BRANCH   6   9
ATOM      9  C   UNL     1       1.015   9.804  19.566  0.00  0.00    +0.000 A 
ATOM     10  C   UNL     1       1.272   8.668  20.343  0.00  0.00    +0.000 A 
ATOM     11  C   UNL     1       1.975   7.584  19.813  0.00  0.00    +0.000 A 
ATOM     12  C   UNL     1       2.429   7.624  18.496  0.00  0.00    +0.000 A 
ATOM     13  C   UNL     1       2.181   8.746  17.706  0.00  0.00    +0.000 A 
ATOM     14  C   UNL     1       1.481   9.831  18.240  0.00  0.00    +0.000 A 
ENDBRANCH   6   9
BRANCH   1  15
ATOM     15  C   UNL     1      -3.161  11.124  18.391  0.00  0.00    +0.000 C 
BRANCH  15  16
ATOM     16  C   UNL     1      -3.872  11.063  17.046  0.00  0.00    +0.000 C 
BRANCH  16  18
ATOM     17  O   UNL     1      -3.232  10.914  14.730  0.00  0.00    +0.000 OA
ATOM     18  C   UNL     1      -2.971  10.686  15.901  0.00  0.00    +0.000 C 
BRANCH  18  19
ATOM     19  O   UNL     1      -1.826  10.086  16.281  0.00  0.00    +0.000 OA
ATOM     20  H   UNL     1      -1.934   9.484  17.058  0.00  0.00    +0.000 HD
ENDBRANCH  18  19
ENDBRANCH  16  18
ENDBRANCH  15  16
ENDBRANCH   1  15
BRANCH   3  21
ATOM     21  C   UNL     1      -3.303  13.804  21.191  0.00  0.00    +0.000 C 
BRANCH  21  22
ATOM     22  C   UNL     1      -3.894  13.264  22.449  0.00  0.00    +0.000 A 
ATOM     23  C   UNL     1      -3.393  12.623  23.564  0.00  0.00    +0.000 A 
ATOM     24  C   UNL     1      -4.492  12.403  24.433  0.00  0.00    +0.000 A 
ATOM     25  C   UNL     1      -5.593  12.930  23.801  0.00  0.00    +0.000 A 
ATOM     26  O   UNL     1      -5.241  13.454  22.600  0.00  0.00    +0.000 OA
ENDBRANCH  21  22
ENDBRANCH   3  21
TORSDOF 7
ENDMDL
