MODEL 1
REMARK VINA RESULT:      -6.7      0.000      0.000
REMARK  Name = 
REMARK  13 active torsions:
REMARK  status: ('A' for Active; 'I' for Inactive)
REMARK    1  A    between atoms: C_1  and  O_2
REMARK    2  A    between atoms: O_2  and  C_3
REMARK    3  A    between atoms: C_8  and  O_9
REMARK    4  A    between atoms: O_9  and  C_10
REMARK    5  A    between atoms: C_10  and  C_11
REMARK    6  A    between atoms: C_11  and  N_12
REMARK    7  A    between atoms: N_12  and  C_13
REMARK    8  A    between atoms: C_13  and  C_14
REMARK    9  A    between atoms: C_14  and  O_15
REMARK   10  A    between atoms: C_14  and  C_16
REMARK   11  A    between atoms: C_16  and  C_17
REMARK   12  A    between atoms: C_20  and  O_21
REMARK   13  A    between atoms: C_22  and  O_23
REMARK                            x       y       z     vdW  Elec       q    Type
REMARK                         _______ _______ _______ _____ _____    ______ ____
ROOT
ATOM      1  C   UNL     1       2.435   2.625  19.246  0.00  0.00    +0.000 C 
ENDROOT
BRANCH   1   2
ATOM      2  N   UNL     1       2.884   2.839  20.629  0.00  0.00    +0.000 NA
ATOM      3  H   UNL     1       2.821   1.960  21.144  0.00  0.00    +0.000 HD
BRANCH   2   4
ATOM      4  C   UNL     1       2.068   3.861  21.328  0.00  0.00    +0.000 C 
BRANCH   4   5
ATOM      5  C   UNL     1       1.631   5.022  20.418  0.00  0.00    +0.000 C 
BRANCH   5   6
ATOM      6  O   UNL     1       2.598   6.059  20.323  0.00  0.00    +0.000 OA
BRANCH   6  12
ATOM      7  C   UNL     1       1.381   8.265  20.419  0.00  0.00    +0.000 A 
ATOM      8  C   UNL     1       1.090   9.446  19.712  0.00  0.00    +0.000 A 
ATOM      9  C   UNL     1       1.453   9.585  18.375  0.00  0.00    +0.000 A 
ATOM     10  C   UNL     1       2.131   8.556  17.732  0.00  0.00    +0.000 A 
ATOM     11  C   UNL     1       2.478   7.403  18.438  0.00  0.00    +0.000 A 
ATOM     12  C   UNL     1       2.127   7.247  19.786  0.00  0.00    +0.000 A 
BRANCH   7  14
ATOM     13  C   UNL     1       0.907   9.368  22.470  0.00  0.00    +0.000 C 
ATOM     14  O   UNL     1       0.991   8.154  21.725  0.00  0.00    +0.000 OA
ENDBRANCH   7  14
ENDBRANCH   6  12
ENDBRANCH   5   6
ENDBRANCH   4   5
ENDBRANCH   2   4
ENDBRANCH   1   2
BRANCH   1  15
ATOM     15  C   UNL     1       3.562   2.722  18.189  0.00  0.00    +0.000 C 
BRANCH  15  16
ATOM     16  O   UNL     1       4.848   2.653  18.810  0.00  0.00    +0.000 OA
ATOM     17  H   UNL     1       5.020   1.720  19.024  0.00  0.00    +0.000 HD
ENDBRANCH  15  16
BRANCH  15  18
ATOM     18  C   UNL     1       3.408   4.068  17.460  0.00  0.00    +0.000 C 
BRANCH  18  19
ATOM     19  C   UNL     1       4.593   4.467  16.620  0.00  0.00    +0.000 A 
ATOM     20  C   UNL     1       4.954   3.690  15.504  0.00  0.00    +0.000 A 
ATOM     21  C   UNL     1       6.087   3.997  14.753  0.00  0.00    +0.000 A 
ATOM     22  C   UNL     1       6.862   5.089  15.121  0.00  0.00    +0.000 A 
ATOM     23  C   UNL     1       6.499   5.877  16.209  0.00  0.00    +0.000 A 
ATOM     24  C   UNL     1       5.368   5.584  16.956  0.00  0.00    +0.000 A 
BRANCH  22  25
ATOM     25  O   UNL     1       8.001   5.425  14.440  0.00  0.00    +0.000 OA
ATOM     26  H   UNL     1       8.676   5.671  15.095  0.00  0.00    +0.000 HD
ENDBRANCH  22  25
BRANCH  23  27
ATOM     27  O   UNL     1       7.277   6.942  16.566  0.00  0.00    +0.000 OA
ATOM     28  H   UNL     1       8.121   6.538  16.850  0.00  0.00    +0.000 HD
ENDBRANCH  23  27
ENDBRANCH  18  19
ENDBRANCH  15  18
ENDBRANCH   1  15
TORSDOF 12
ENDMDL
MODEL 2
REMARK VINA RESULT:      -6.7      5.187      7.314
REMARK  Name = 
REMARK  13 active torsions:
REMARK  status: ('A' for Active; 'I' for Inactive)
REMARK    1  A    between atoms: C_1  and  O_2
REMARK    2  A    between atoms: O_2  and  C_3
REMARK    3  A    between atoms: C_8  and  O_9
REMARK    4  A    between atoms: O_9  and  C_10
REMARK    5  A    between atoms: C_10  and  C_11
REMARK    6  A    between atoms: C_11  and  N_12
REMARK    7  A    between atoms: N_12  and  C_13
REMARK    8  A    between atoms: C_13  and  C_14
REMARK    9  A    between atoms: C_14  and  O_15
REMARK   10  A    between atoms: C_14  and  C_16
REMARK   11  A    between atoms: C_16  and  C_17
REMARK   12  A    between atoms: C_20  and  O_21
REMARK   13  A    between atoms: C_22  and  O_23
REMARK                            x       y       z     vdW  Elec       q    Type
REMARK                         _______ _______ _______ _____ _____    ______ ____
ROOT
ATOM      1  C   UNL     1       7.606   6.156  18.221  0.00  0.00    +0.000 C 
ENDROOT
BRANCH   1   2
ATOM      2  N   UNL     1       7.757   7.129  17.129  0.00  0.00    +0.000 NA
ATOM      3  H   UNL     1       8.721   7.112  16.792  0.00  0.00    +0.000 HD
BRANCH   2   4
ATOM      4  C   UNL     1       7.426   8.508  17.561  0.00  0.00    +0.000 C 
BRANCH   4   5
ATOM      5  C   UNL     1       8.550   9.183  18.365  0.00  0.00    +0.000 C 
BRANCH   5   6
ATOM      6  O   UNL     1       8.676  10.574  18.101  0.00  0.00    +0.000 OA
BRANCH   6  12
ATOM      7  C   UNL     1       9.869  11.563  20.090  0.00  0.00    +0.000 A 
ATOM      8  C   UNL     1      11.089  12.091  20.550  0.00  0.00    +0.000 A 
ATOM      9  C   UNL     1      12.139  12.331  19.669  0.00  0.00    +0.000 A 
ATOM     10  C   UNL     1      11.994  12.026  18.320  0.00  0.00    +0.000 A 
ATOM     11  C   UNL     1      10.811  11.447  17.861  0.00  0.00    +0.000 A 
ATOM     12  C   UNL     1       9.744  11.192  18.733  0.00  0.00    +0.000 A 
BRANCH   7  14
ATOM     13  C   UNL     1       8.884  12.137  22.176  0.00  0.00    +0.000 C 
ATOM     14  O   UNL     1       8.850  11.359  20.980  0.00  0.00    +0.000 OA
ENDBRANCH   7  14
ENDBRANCH   6  12
ENDBRANCH   5   6
ENDBRANCH   4   5
ENDBRANCH   2   4
ENDBRANCH   1   2
BRANCH   1  15
ATOM     15  C   UNL     1       6.971   4.811  17.792  0.00  0.00    +0.000 C 
BRANCH  15  16
ATOM     16  O   UNL     1       7.845   4.092  16.920  0.00  0.00    +0.000 OA
ATOM     17  H   UNL     1       7.871   3.170  17.226  0.00  0.00    +0.000 HD
ENDBRANCH  15  16
BRANCH  15  18
ATOM     18  C   UNL     1       5.653   5.126  17.064  0.00  0.00    +0.000 C 
BRANCH  18  19
ATOM     19  C   UNL     1       4.410   4.713  17.808  0.00  0.00    +0.000 A 
ATOM     20  C   UNL     1       3.504   3.815  17.215  0.00  0.00    +0.000 A 
ATOM     21  C   UNL     1       2.313   3.473  17.853  0.00  0.00    +0.000 A 
ATOM     22  C   UNL     1       2.028   4.033  19.091  0.00  0.00    +0.000 A 
ATOM     23  C   UNL     1       2.929   4.904  19.695  0.00  0.00    +0.000 A 
ATOM     24  C   UNL     1       4.121   5.242  19.073  0.00  0.00    +0.000 A 
BRANCH  22  25
ATOM     25  O   UNL     1       0.862   3.757  19.754  0.00  0.00    +0.000 OA
ATOM     26  H   UNL     1       0.843   2.801  19.933  0.00  0.00    +0.000 HD
ENDBRANCH  22  25
BRANCH  23  27
ATOM     27  O   UNL     1       2.631   5.455  20.910  0.00  0.00    +0.000 OA
ATOM     28  H   UNL     1       3.504   5.625  21.315  0.00  0.00    +0.000 HD
ENDBRANCH  23  27
ENDBRANCH  18  19
ENDBRANCH  15  18
ENDBRANCH   1  15
TORSDOF 12
ENDMDL
MODEL 3
REMARK VINA RESULT:      -6.6      1.239      2.442
REMARK  Name = 
REMARK  13 active torsions:
REMARK  status: ('A' for Active; 'I' for Inactive)
REMARK    1  A    between atoms: C_1  and  O_2
REMARK    2  A    between atoms: O_2  and  C_3
REMARK    3  A    between atoms: C_8  and  O_9
REMARK    4  A    between atoms: O_9  and  C_10
REMARK    5  A    between atoms: C_10  and  C_11
REMARK    6  A    between atoms: C_11  and  N_12
REMARK    7  A    between atoms: N_12  and  C_13
REMARK    8  A    between atoms: C_13  and  C_14
REMARK    9  A    between atoms: C_14  and  O_15
REMARK   10  A    between atoms: C_14  and  C_16
REMARK   11  A    between atoms: C_16  and  C_17
REMARK   12  A    between atoms: C_20  and  O_21
REMARK   13  A    between atoms: C_22  and  O_23
REMARK                            x       y       z     vdW  Elec       q    Type
REMARK                         _______ _______ _______ _____ _____    ______ ____
ROOT
ATOM      1  C   UNL     1       2.394   2.193  19.599  0.00  0.00    +0.000 C 
ENDROOT
BRANCH   1   2
ATOM      2  N   UNL     1       2.804   2.831  20.859  0.00  0.00    +0.000 NA
ATOM      3  H   UNL     1       3.045   2.110  21.540  0.00  0.00    +0.000 HD
BRANCH   2   4
ATOM      4  C   UNL     1       1.732   3.685  21.426  0.00  0.00    +0.000 C 
BRANCH   4   5
ATOM      5  C   UNL     1       1.412   4.918  20.564  0.00  0.00    +0.000 C 
BRANCH   5   6
ATOM      6  O   UNL     1       2.452   5.886  20.556  0.00  0.00    +0.000 OA
BRANCH   6  12
ATOM      7  C   UNL     1       2.433   7.492  18.612  0.00  0.00    +0.000 A 
ATOM      8  C   UNL     1       1.920   8.712  18.138  0.00  0.00    +0.000 A 
ATOM      9  C   UNL     1       1.195   9.555  18.976  0.00  0.00    +0.000 A 
ATOM     10  C   UNL     1       0.953   9.179  20.293  0.00  0.00    +0.000 A 
ATOM     11  C   UNL     1       1.404   7.945  20.759  0.00  0.00    +0.000 A 
ATOM     12  C   UNL     1       2.131   7.080  19.929  0.00  0.00    +0.000 A 
BRANCH   7  14
ATOM     13  C   UNL     1       4.275   7.309  17.121  0.00  0.00    +0.000 C 
ATOM     14  O   UNL     1       3.159   6.697  17.767  0.00  0.00    +0.000 OA
ENDBRANCH   7  14
ENDBRANCH   6  12
ENDBRANCH   5   6
ENDBRANCH   4   5
ENDBRANCH   2   4
ENDBRANCH   1   2
BRANCH   1  15
ATOM     15  C   UNL     1       3.413   2.353  18.445  0.00  0.00    +0.000 C 
BRANCH  15  16
ATOM     16  O   UNL     1       4.136   1.138  18.233  0.00  0.00    +0.000 OA
ATOM     17  H   UNL     1       4.823   1.082  18.919  0.00  0.00    +0.000 HD
ENDBRANCH  15  16
BRANCH  15  18
ATOM     18  C   UNL     1       4.388   3.477  18.832  0.00  0.00    +0.000 C 
BRANCH  18  19
ATOM     19  C   UNL     1       5.305   3.924  17.723  0.00  0.00    +0.000 A 
ATOM     20  C   UNL     1       6.543   4.517  18.034  0.00  0.00    +0.000 A 
ATOM     21  C   UNL     1       7.377   5.003  17.028  0.00  0.00    +0.000 A 
ATOM     22  C   UNL     1       6.969   4.894  15.705  0.00  0.00    +0.000 A 
ATOM     23  C   UNL     1       5.757   4.288  15.388  0.00  0.00    +0.000 A 
ATOM     24  C   UNL     1       4.926   3.792  16.382  0.00  0.00    +0.000 A 
BRANCH  22  25
ATOM     25  O   UNL     1       7.731   5.377  14.676  0.00  0.00    +0.000 OA
ATOM     26  H   UNL     1       7.303   6.185  14.344  0.00  0.00    +0.000 HD
ENDBRANCH  22  25
BRANCH  23  27
ATOM     27  O   UNL     1       5.364   4.196  14.082  0.00  0.00    +0.000 OA
ATOM     28  H   UNL     1       5.084   5.104  13.853  0.00  0.00    +0.000 HD
ENDBRANCH  23  27
ENDBRANCH  18  19
ENDBRANCH  15  18
ENDBRANCH   1  15
TORSDOF 12
ENDMDL
MODEL 4
REMARK VINA RESULT:      -6.5      0.949      1.012
REMARK  Name = 
REMARK  13 active torsions:
REMARK  status: ('A' for Active; 'I' for Inactive)
REMARK    1  A    between atoms: C_1  and  O_2
REMARK    2  A    between atoms: O_2  and  C_3
REMARK    3  A    between atoms: C_8  and  O_9
REMARK    4  A    between atoms: O_9  and  C_10
REMARK    5  A    between atoms: C_10  and  C_11
REMARK    6  A    between atoms: C_11  and  N_12
REMARK    7  A    between atoms: N_12  and  C_13
REMARK    8  A    between atoms: C_13  and  C_14
REMARK    9  A    between atoms: C_14  and  O_15
REMARK   10  A    between atoms: C_14  and  C_16
REMARK   11  A    between atoms: C_16  and  C_17
REMARK   12  A    between atoms: C_20  and  O_21
REMARK   13  A    between atoms: C_22  and  O_23
REMARK                            x       y       z     vdW  Elec       q    Type
REMARK                         _______ _______ _______ _____ _____    ______ ____
ROOT
ATOM      1  C   UNL     1       2.971   2.233  19.863  0.00  0.00    +0.000 C 
ENDROOT
BRANCH   1   2
ATOM      2  N   UNL     1       2.665   3.227  20.901  0.00  0.00    +0.000 NA
ATOM      3  H   UNL     1       2.879   2.835  21.819  0.00  0.00    +0.000 HD
BRANCH   2   4
ATOM      4  C   UNL     1       1.239   3.636  20.878  0.00  0.00    +0.000 C 
BRANCH   4   5
ATOM      5  C   UNL     1       1.037   5.132  20.582  0.00  0.00    +0.000 C 
BRANCH   5   6
ATOM      6  O   UNL     1       2.254   5.834  20.369  0.00  0.00    +0.000 OA
BRANCH   6  12
ATOM      7  C   UNL     1       1.530   8.231  20.071  0.00  0.00    +0.000 A 
ATOM      8  C   UNL     1       1.600   9.353  19.226  0.00  0.00    +0.000 A 
ATOM      9  C   UNL     1       2.170   9.259  17.959  0.00  0.00    +0.000 A 
ATOM     10  C   UNL     1       2.700   8.047  17.528  0.00  0.00    +0.000 A 
ATOM     11  C   UNL     1       2.691   6.942  18.379  0.00  0.00    +0.000 A 
ATOM     12  C   UNL     1       2.126   7.018  19.660  0.00  0.00    +0.000 A 
BRANCH   7  14
ATOM     13  C   UNL     1       0.372   9.625  21.609  0.00  0.00    +0.000 C 
ATOM     14  O   UNL     1       0.944   8.354  21.300  0.00  0.00    +0.000 OA
ENDBRANCH   7  14
ENDBRANCH   6  12
ENDBRANCH   5   6
ENDBRANCH   4   5
ENDBRANCH   2   4
ENDBRANCH   1   2
BRANCH   1  15
ATOM     15  C   UNL     1       4.396   2.351  19.270  0.00  0.00    +0.000 C 
BRANCH  15  16
ATOM     16  O   UNL     1       5.339   1.631  20.066  0.00  0.00    +0.000 OA
ATOM     17  H   UNL     1       4.968   1.552  20.962  0.00  0.00    +0.000 HD
ENDBRANCH  15  16
BRANCH  15  18
ATOM     18  C   UNL     1       4.771   3.843  19.242  0.00  0.00    +0.000 C 
BRANCH  18  19
ATOM     19  C   UNL     1       5.302   4.333  17.921  0.00  0.00    +0.000 A 
ATOM     20  C   UNL     1       4.893   3.711  16.727  0.00  0.00    +0.000 A 
ATOM     21  C   UNL     1       5.425   4.100  15.498  0.00  0.00    +0.000 A 
ATOM     22  C   UNL     1       6.369   5.117  15.465  0.00  0.00    +0.000 A 
ATOM     23  C   UNL     1       6.761   5.754  16.638  0.00  0.00    +0.000 A 
ATOM     24  C   UNL     1       6.230   5.381  17.864  0.00  0.00    +0.000 A 
BRANCH  22  25
ATOM     25  O   UNL     1       6.946   5.524  14.293  0.00  0.00    +0.000 OA
ATOM     26  H   UNL     1       6.763   4.845  13.621  0.00  0.00    +0.000 HD
ENDBRANCH  22  25
BRANCH  23  27
ATOM     27  O   UNL     1       7.698   6.747  16.592  0.00  0.00    +0.000 OA
ATOM     28  H   UNL     1       8.240   6.601  17.393  0.00  0.00    +0.000 HD
ENDBRANCH  23  27
ENDBRANCH  18  19
ENDBRANCH  15  18
ENDBRANCH   1  15
TORSDOF 12
ENDMDL
MODEL 5
REMARK VINA RESULT:      -6.4      5.027      7.472
REMARK  Name = 
REMARK  13 active torsions:
REMARK  status: ('A' for Active; 'I' for Inactive)
REMARK    1  A    between atoms: C_1  and  O_2
REMARK    2  A    between atoms: O_2  and  C_3
REMARK    3  A    between atoms: C_8  and  O_9
REMARK    4  A    between atoms: O_9  and  C_10
REMARK    5  A    between atoms: C_10  and  C_11
REMARK    6  A    between atoms: C_11  and  N_12
REMARK    7  A    between atoms: N_12  and  C_13
REMARK    8  A    between atoms: C_13  and  C_14
REMARK    9  A    between atoms: C_14  and  O_15
REMARK   10  A    between atoms: C_14  and  C_16
REMARK   11  A    between atoms: C_16  and  C_17
REMARK   12  A    between atoms: C_20  and  O_21
REMARK   13  A    between atoms: C_22  and  O_23
REMARK                            x       y       z     vdW  Elec       q    Type
REMARK                         _______ _______ _______ _____ _____    ______ ____
ROOT
ATOM      1  C   UNL     1       6.094   6.722  17.759  0.00  0.00    +0.000 C 
ENDROOT
BRANCH   1   2
ATOM      2  N   UNL     1       7.361   7.134  17.138  0.00  0.00    +0.000 NA
ATOM      3  H   UNL     1       7.890   6.303  16.868  0.00  0.00    +0.000 HD
BRANCH   2   4
ATOM      4  C   UNL     1       8.191   7.952  18.054  0.00  0.00    +0.000 C 
BRANCH   4   5
ATOM      5  C   UNL     1       8.174   9.453  17.718  0.00  0.00    +0.000 C 
BRANCH   5   6
ATOM      6  O   UNL     1       8.633  10.275  18.783  0.00  0.00    +0.000 OA
BRANCH   6  12
ATOM      7  C   UNL     1       9.150  12.497  17.708  0.00  0.00    +0.000 A 
ATOM      8  C   UNL     1      10.146  13.469  17.508  0.00  0.00    +0.000 A 
ATOM      9  C   UNL     1      11.460  13.238  17.906  0.00  0.00    +0.000 A 
ATOM     10  C   UNL     1      11.792  12.041  18.530  0.00  0.00    +0.000 A 
ATOM     11  C   UNL     1      10.803  11.092  18.788  0.00  0.00    +0.000 A 
ATOM     12  C   UNL     1       9.474  11.308  18.400  0.00  0.00    +0.000 A 
BRANCH   7  14
ATOM     13  C   UNL     1       7.315  14.006  17.661  0.00  0.00    +0.000 C 
ATOM     14  O   UNL     1       7.874  12.748  17.285  0.00  0.00    +0.000 OA
ENDBRANCH   7  14
ENDBRANCH   6  12
ENDBRANCH   5   6
ENDBRANCH   4   5
ENDBRANCH   2   4
ENDBRANCH   1   2
BRANCH   1  15
ATOM     15  C   UNL     1       5.070   6.112  16.771  0.00  0.00    +0.000 C 
BRANCH  15  16
ATOM     16  O   UNL     1       5.112   6.789  15.513  0.00  0.00    +0.000 OA
ATOM     17  H   UNL     1       6.047   6.882  15.261  0.00  0.00    +0.000 HD
ENDBRANCH  15  16
BRANCH  15  18
ATOM     18  C   UNL     1       3.671   6.260  17.394  0.00  0.00    +0.000 C 
BRANCH  18  19
ATOM     19  C   UNL     1       3.031   4.963  17.816  0.00  0.00    +0.000 A 
ATOM     20  C   UNL     1       3.348   3.772  17.137  0.00  0.00    +0.000 A 
ATOM     21  C   UNL     1       2.716   2.572  17.461  0.00  0.00    +0.000 A 
ATOM     22  C   UNL     1       1.762   2.566  18.470  0.00  0.00    +0.000 A 
ATOM     23  C   UNL     1       1.459   3.735  19.162  0.00  0.00    +0.000 A 
ATOM     24  C   UNL     1       2.090   4.930  18.853  0.00  0.00    +0.000 A 
BRANCH  22  25
ATOM     25  O   UNL     1       1.088   1.426  18.815  0.00  0.00    +0.000 OA
ATOM     26  H   UNL     1       0.297   1.689  19.316  0.00  0.00    +0.000 HD
ENDBRANCH  22  25
BRANCH  23  27
ATOM     27  O   UNL     1       0.511   3.716  20.146  0.00  0.00    +0.000 OA
ATOM     28  H   UNL     1       0.111   4.608  20.109  0.00  0.00    +0.000 HD
ENDBRANCH  23  27
ENDBRANCH  18  19
ENDBRANCH  15  18
ENDBRANCH   1  15
TORSDOF 12
ENDMDL
MODEL 6
REMARK VINA RESULT:      -6.4      5.023      7.355
REMARK  Name = 
REMARK  13 active torsions:
REMARK  status: ('A' for Active; 'I' for Inactive)
REMARK    1  A    between atoms: C_1  and  O_2
REMARK    2  A    between atoms: O_2  and  C_3
REMARK    3  A    between atoms: C_8  and  O_9
REMARK    4  A    between atoms: O_9  and  C_10
REMARK    5  A    between atoms: C_10  and  C_11
REMARK    6  A    between atoms: C_11  and  N_12
REMARK    7  A    between atoms: N_12  and  C_13
REMARK    8  A    between atoms: C_13  and  C_14
REMARK    9  A    between atoms: C_14  and  O_15
REMARK   10  A    between atoms: C_14  and  C_16
REMARK   11  A    between atoms: C_16  and  C_17
REMARK   12  A    between atoms: C_20  and  O_21
REMARK   13  A    between atoms: C_22  and  O_23
REMARK                            x       y       z     vdW  Elec       q    Type
REMARK                         _______ _______ _______ _____ _____    ______ ____
ROOT
ATOM      1  C   UNL     1       6.913   5.819  17.032  0.00  0.00    +0.000 C 
ENDROOT
BRANCH   1   2
ATOM      2  N   UNL     1       7.070   6.853  18.065  0.00  0.00    +0.000 NA
ATOM      3  H   UNL     1       6.161   7.051  18.486  0.00  0.00    +0.000 HD
BRANCH   2   4
ATOM      4  C   UNL     1       7.626   8.112  17.513  0.00  0.00    +0.000 C 
BRANCH   4   5
ATOM      5  C   UNL     1       8.502   8.884  18.514  0.00  0.00    +0.000 C 
BRANCH   5   6
ATOM      6  O   UNL     1       8.450  10.293  18.340  0.00  0.00    +0.000 OA
BRANCH   6  12
ATOM      7  C   UNL     1       9.806  11.442  20.129  0.00  0.00    +0.000 A 
ATOM      8  C   UNL     1      11.047  12.032  20.425  0.00  0.00    +0.000 A 
ATOM      9  C   UNL     1      11.993  12.244  19.426  0.00  0.00    +0.000 A 
ATOM     10  C   UNL     1      11.720  11.849  18.121  0.00  0.00    +0.000 A 
ATOM     11  C   UNL     1      10.517  11.208  17.824  0.00  0.00    +0.000 A 
ATOM     12  C   UNL     1       9.554  10.981  18.818  0.00  0.00    +0.000 A 
BRANCH   7  14
ATOM     13  C   UNL     1       8.983  12.162  22.239  0.00  0.00    +0.000 C 
ATOM     14  O   UNL     1       8.891  11.268  21.131  0.00  0.00    +0.000 OA
ENDBRANCH   7  14
ENDBRANCH   6  12
ENDBRANCH   5   6
ENDBRANCH   4   5
ENDBRANCH   2   4
ENDBRANCH   1   2
BRANCH   1  15
ATOM     15  C   UNL     1       5.483   5.717  16.448  0.00  0.00    +0.000 C 
BRANCH  15  16
ATOM     16  O   UNL     1       5.377   6.456  15.230  0.00  0.00    +0.000 OA
ATOM     17  H   UNL     1       6.239   6.875  15.065  0.00  0.00    +0.000 HD
ENDBRANCH  15  16
BRANCH  15  18
ATOM     18  C   UNL     1       4.508   6.290  17.491  0.00  0.00    +0.000 C 
BRANCH  18  19
ATOM     19  C   UNL     1       3.631   5.265  18.162  0.00  0.00    +0.000 A 
ATOM     20  C   UNL     1       3.074   5.540  19.424  0.00  0.00    +0.000 A 
ATOM     21  C   UNL     1       2.318   4.581  20.098  0.00  0.00    +0.000 A 
ATOM     22  C   UNL     1       2.119   3.343  19.502  0.00  0.00    +0.000 A 
ATOM     23  C   UNL     1       2.647   3.071  18.244  0.00  0.00    +0.000 A 
ATOM     24  C   UNL     1       3.391   4.022  17.563  0.00  0.00    +0.000 A 
BRANCH  22  25
ATOM     25  O   UNL     1       1.409   2.352  20.126  0.00  0.00    +0.000 OA
ATOM     26  H   UNL     1       0.800   2.775  20.755  0.00  0.00    +0.000 HD
ENDBRANCH  22  25
BRANCH  23  27
ATOM     27  O   UNL     1       2.451   1.844  17.675  0.00  0.00    +0.000 OA
ATOM     28  H   UNL     1       1.572   1.568  18.001  0.00  0.00    +0.000 HD
ENDBRANCH  23  27
ENDBRANCH  18  19
ENDBRANCH  15  18
ENDBRANCH   1  15
TORSDOF 12
ENDMDL
MODEL 7
REMARK VINA RESULT:      -6.3      5.611      7.624
REMARK  Name = 
REMARK  13 active torsions:
REMARK  status: ('A' for Active; 'I' for Inactive)
REMARK    1  A    between atoms: C_1  and  O_2
REMARK    2  A    between atoms: O_2  and  C_3
REMARK    3  A    between atoms: C_8  and  O_9
REMARK    4  A    between atoms: O_9  and  C_10
REMARK    5  A    between atoms: C_10  and  C_11
REMARK    6  A    between atoms: C_11  and  N_12
REMARK    7  A    between atoms: N_12  and  C_13
REMARK    8  A    between atoms: C_13  and  C_14
REMARK    9  A    between atoms: C_14  and  O_15
REMARK   10  A    between atoms: C_14  and  C_16
REMARK   11  A    between atoms: C_16  and  C_17
REMARK   12  A    between atoms: C_20  and  O_21
REMARK   13  A    between atoms: C_22  and  O_23
REMARK                            x       y       z     vdW  Elec       q    Type
REMARK                         _______ _______ _______ _____ _____    ______ ____
ROOT
ATOM      1  C   UNL     1       7.229   6.789  17.895  0.00  0.00    +0.000 C 
ENDROOT
BRANCH   1   2
ATOM      2  N   UNL     1       7.773   7.931  17.146  0.00  0.00    +0.000 NA
ATOM      3  H   UNL     1       8.734   7.725  16.867  0.00  0.00    +0.000 HD
BRANCH   2   4
ATOM      4  C   UNL     1       7.766   9.178  17.949  0.00  0.00    +0.000 C 
BRANCH   4   5
ATOM      5  C   UNL     1       9.055   9.391  18.759  0.00  0.00    +0.000 C 
BRANCH   5   6
ATOM      6  O   UNL     1       8.995  10.511  19.632  0.00  0.00    +0.000 OA
BRANCH   6  12
ATOM      7  C   UNL     1      10.393  12.505  20.286  0.00  0.00    +0.000 A 
ATOM      8  C   UNL     1      11.490  13.305  19.920  0.00  0.00    +0.000 A 
ATOM      9  C   UNL     1      12.114  13.141  18.687  0.00  0.00    +0.000 A 
ATOM     10  C   UNL     1      11.665  12.159  17.811  0.00  0.00    +0.000 A 
ATOM     11  C   UNL     1      10.617  11.318  18.185  0.00  0.00    +0.000 A 
ATOM     12  C   UNL     1       9.979  11.465  19.424  0.00  0.00    +0.000 A 
BRANCH   7  14
ATOM     13  C   UNL     1       9.646  14.064  21.917  0.00  0.00    +0.000 C 
ATOM     14  O   UNL     1       9.789  12.708  21.496  0.00  0.00    +0.000 OA
ENDBRANCH   7  14
ENDBRANCH   6  12
ENDBRANCH   5   6
ENDBRANCH   4   5
ENDBRANCH   2   4
ENDBRANCH   1   2
BRANCH   1  15
ATOM     15  C   UNL     1       6.321   5.855  17.059  0.00  0.00    +0.000 C 
BRANCH  15  16
ATOM     16  O   UNL     1       6.563   6.027  15.661  0.00  0.00    +0.000 OA
ATOM     17  H   UNL     1       7.087   5.266  15.358  0.00  0.00    +0.000 HD
ENDBRANCH  15  16
BRANCH  15  18
ATOM     18  C   UNL     1       4.859   6.210  17.381  0.00  0.00    +0.000 C 
BRANCH  18  19
ATOM     19  C   UNL     1       3.956   5.024  17.597  0.00  0.00    +0.000 A 
ATOM     20  C   UNL     1       2.582   5.222  17.827  0.00  0.00    +0.000 A 
ATOM     21  C   UNL     1       1.739   4.146  18.099  0.00  0.00    +0.000 A 
ATOM     22  C   UNL     1       2.275   2.865  18.141  0.00  0.00    +0.000 A 
ATOM     23  C   UNL     1       3.628   2.658  17.892  0.00  0.00    +0.000 A 
ATOM     24  C   UNL     1       4.472   3.722  17.610  0.00  0.00    +0.000 A 
BRANCH  22  25
ATOM     25  O   UNL     1       1.503   1.772  18.431  0.00  0.00    +0.000 OA
ATOM     26  H   UNL     1       0.946   1.998  19.195  0.00  0.00    +0.000 HD
ENDBRANCH  22  25
BRANCH  23  27
ATOM     27  O   UNL     1       4.144   1.394  17.946  0.00  0.00    +0.000 OA
ATOM     28  H   UNL     1       4.129   1.090  17.017  0.00  0.00    +0.000 HD
ENDBRANCH  23  27
ENDBRANCH  18  19
ENDBRANCH  15  18
ENDBRANCH   1  15
TORSDOF 12
ENDMDL
MODEL 8
REMARK VINA RESULT:      -6.3      1.779      5.886
REMARK  Name = 
REMARK  13 active torsions:
REMARK  status: ('A' for Active; 'I' for Inactive)
REMARK    1  A    between atoms: C_1  and  O_2
REMARK    2  A    between atoms: O_2  and  C_3
REMARK    3  A    between atoms: C_8  and  O_9
REMARK    4  A    between atoms: O_9  and  C_10
REMARK    5  A    between atoms: C_10  and  C_11
REMARK    6  A    between atoms: C_11  and  N_12
REMARK    7  A    between atoms: N_12  and  C_13
REMARK    8  A    between atoms: C_13  and  C_14
REMARK    9  A    between atoms: C_14  and  O_15
REMARK   10  A    between atoms: C_14  and  C_16
REMARK   11  A    between atoms: C_16  and  C_17
REMARK   12  A    between atoms: C_20  and  O_21
REMARK   13  A    between atoms: C_22  and  O_23
REMARK                            x       y       z     vdW  Elec       q    Type
REMARK                         _______ _______ _______ _____ _____    ______ ____
ROOT
ATOM      1  C   UNL     1       1.612   3.107  19.464  0.00  0.00    +0.000 C 
ENDROOT
BRANCH   1   2
ATOM      2  N   UNL     1       1.924   1.740  19.022  0.00  0.00    +0.000 NA
ATOM      3  H   UNL     1       1.893   1.110  19.825  0.00  0.00    +0.000 HD
BRANCH   2   4
ATOM      4  C   UNL     1       3.264   1.650  18.394  0.00  0.00    +0.000 C 
BRANCH   4   5
ATOM      5  C   UNL     1       3.616   2.869  17.525  0.00  0.00    +0.000 C 
BRANCH   5   6
ATOM      6  O   UNL     1       4.784   3.552  17.959  0.00  0.00    +0.000 OA
BRANCH   6  12
ATOM      7  C   UNL     1       6.912   4.504  16.998  0.00  0.00    +0.000 A 
ATOM      8  C   UNL     1       7.562   4.894  15.813  0.00  0.00    +0.000 A 
ATOM      9  C   UNL     1       6.876   4.931  14.603  0.00  0.00    +0.000 A 
ATOM     10  C   UNL     1       5.537   4.558  14.555  0.00  0.00    +0.000 A 
ATOM     11  C   UNL     1       4.897   4.113  15.711  0.00  0.00    +0.000 A 
ATOM     12  C   UNL     1       5.572   4.063  16.939  0.00  0.00    +0.000 A 
BRANCH   7  14
ATOM     13  C   UNL     1       7.700   5.745  18.866  0.00  0.00    +0.000 C 
ATOM     14  O   UNL     1       7.611   4.500  18.174  0.00  0.00    +0.000 OA
ENDBRANCH   7  14
ENDBRANCH   6  12
ENDBRANCH   5   6
ENDBRANCH   4   5
ENDBRANCH   2   4
ENDBRANCH   1   2
BRANCH   1  15
ATOM     15  C   UNL     1       2.555   3.649  20.566  0.00  0.00    +0.000 C 
BRANCH  15  16
ATOM     16  O   UNL     1       2.698   2.701  21.625  0.00  0.00    +0.000 OA
ATOM     17  H   UNL     1       1.825   2.591  22.040  0.00  0.00    +0.000 HD
ENDBRANCH  15  16
BRANCH  15  18
ATOM     18  C   UNL     1       1.941   4.950  21.111  0.00  0.00    +0.000 C 
BRANCH  18  19
ATOM     19  C   UNL     1       1.986   6.115  20.157  0.00  0.00    +0.000 A 
ATOM     20  C   UNL     1       2.604   5.968  18.901  0.00  0.00    +0.000 A 
ATOM     21  C   UNL     1       2.721   7.051  18.030  0.00  0.00    +0.000 A 
ATOM     22  C   UNL     1       2.216   8.285  18.419  0.00  0.00    +0.000 A 
ATOM     23  C   UNL     1       1.584   8.433  19.649  0.00  0.00    +0.000 A 
ATOM     24  C   UNL     1       1.453   7.359  20.517  0.00  0.00    +0.000 A 
BRANCH  22  25
ATOM     25  O   UNL     1       2.326   9.390  17.619  0.00  0.00    +0.000 OA
ATOM     26  H   UNL     1       1.496   9.476  17.118  0.00  0.00    +0.000 HD
ENDBRANCH  22  25
BRANCH  23  27
ATOM     27  O   UNL     1       1.101   9.655  20.022  0.00  0.00    +0.000 OA
ATOM     28  H   UNL     1       1.577   9.856  20.852  0.00  0.00    +0.000 HD
ENDBRANCH  23  27
ENDBRANCH  18  19
ENDBRANCH  15  18
ENDBRANCH   1  15
TORSDOF 12
ENDMDL
MODEL 9
REMARK VINA RESULT:      -6.3      1.811      6.040
REMARK  Name = 
REMARK  13 active torsions:
REMARK  status: ('A' for Active; 'I' for Inactive)
REMARK    1  A    between atoms: C_1  and  O_2
REMARK    2  A    between atoms: O_2  and  C_3
REMARK    3  A    between atoms: C_8  and  O_9
REMARK    4  A    between atoms: O_9  and  C_10
REMARK    5  A    between atoms: C_10  and  C_11
REMARK    6  A    between atoms: C_11  and  N_12
REMARK    7  A    between atoms: N_12  and  C_13
REMARK    8  A    between atoms: C_13  and  C_14
REMARK    9  A    between atoms: C_14  and  O_15
REMARK   10  A    between atoms: C_14  and  C_16
REMARK   11  A    between atoms: C_16  and  C_17
REMARK   12  A    between atoms: C_20  and  O_21
REMARK   13  A    between atoms: C_22  and  O_23
REMARK                            x       y       z     vdW  Elec       q    Type
REMARK                         _______ _______ _______ _____ _____    ______ ____
ROOT
ATOM      1  C   UNL     1       1.894   3.882  18.508  0.00  0.00    +0.000 C 
ENDROOT
BRANCH   1   2
ATOM      2  N   UNL     1       1.905   2.449  18.176  0.00  0.00    +0.000 NA
ATOM      3  H   UNL     1       1.605   1.912  18.991  0.00  0.00    +0.000 HD
BRANCH   2   4
ATOM      4  C   UNL     1       3.251   1.983  17.765  0.00  0.00    +0.000 C 
BRANCH   4   5
ATOM      5  C   UNL     1       4.375   2.971  18.121  0.00  0.00    +0.000 C 
BRANCH   5   6
ATOM      6  O   UNL     1       4.784   3.778  17.025  0.00  0.00    +0.000 OA
BRANCH   6  12
ATOM      7  C   UNL     1       6.383   5.644  16.462  0.00  0.00    +0.000 A 
ATOM      8  C   UNL     1       7.278   6.588  16.997  0.00  0.00    +0.000 A 
ATOM      9  C   UNL     1       7.617   6.564  18.347  0.00  0.00    +0.000 A 
ATOM     10  C   UNL     1       7.050   5.611  19.186  0.00  0.00    +0.000 A 
ATOM     11  C   UNL     1       6.115   4.707  18.680  0.00  0.00    +0.000 A 
ATOM     12  C   UNL     1       5.757   4.718  17.325  0.00  0.00    +0.000 A 
BRANCH   7  14
ATOM     13  C   UNL     1       6.789   4.760  14.293  0.00  0.00    +0.000 C 
ATOM     14  O   UNL     1       6.088   5.683  15.127  0.00  0.00    +0.000 OA
ENDBRANCH   7  14
ENDBRANCH   6  12
ENDBRANCH   5   6
ENDBRANCH   4   5
ENDBRANCH   2   4
ENDBRANCH   1   2
BRANCH   1  15
ATOM     15  C   UNL     1       1.960   4.184  20.024  0.00  0.00    +0.000 C 
BRANCH  15  16
ATOM     16  O   UNL     1       0.672   4.540  20.529  0.00  0.00    +0.000 OA
ATOM     17  H   UNL     1       0.115   4.780  19.769  0.00  0.00    +0.000 HD
ENDBRANCH  15  16
BRANCH  15  18
ATOM     18  C   UNL     1       2.940   5.353  20.227  0.00  0.00    +0.000 C 
BRANCH  18  19
ATOM     19  C   UNL     1       2.530   6.640  19.559  0.00  0.00    +0.000 A 
ATOM     20  C   UNL     1       2.945   6.909  18.243  0.00  0.00    +0.000 A 
ATOM     21  C   UNL     1       2.639   8.123  17.629  0.00  0.00    +0.000 A 
ATOM     22  C   UNL     1       1.912   9.070  18.338  0.00  0.00    +0.000 A 
ATOM     23  C   UNL     1       1.478   8.803  19.632  0.00  0.00    +0.000 A 
ATOM     24  C   UNL     1       1.769   7.594  20.247  0.00  0.00    +0.000 A 
BRANCH  22  25
ATOM     25  O   UNL     1       1.604  10.290  17.799  0.00  0.00    +0.000 OA
ATOM     26  H   UNL     1       0.799  10.613  18.238  0.00  0.00    +0.000 HD
ENDBRANCH  22  25
BRANCH  23  27
ATOM     27  O   UNL     1       0.772   9.748  20.321  0.00  0.00    +0.000 OA
ATOM     28  H   UNL     1       0.326  10.268  19.624  0.00  0.00    +0.000 HD
ENDBRANCH  23  27
ENDBRANCH  18  19
ENDBRANCH  15  18
ENDBRANCH   1  15
TORSDOF 12
ENDMDL
