MODEL 1
REMARK VINA RESULT:      -8.0      0.000      0.000
REMARK  Name = 
REMARK  7 active torsions:
REMARK  status: ('A' for Active; 'I' for Inactive)
REMARK    1  A    between atoms: C_1  and  O_2
REMARK    2  A    between atoms: O_2  and  C_3
REMARK    3  A    between atoms: C_7  and  C_8
REMARK    4  A    between atoms: C_8  and  N_9
REMARK    5  A    between atoms: N_9  and  S_10
REMARK    6  A    between atoms: S_10  and  C_13
REMARK    7  A    between atoms: C_19  and  C_20
REMARK                            x       y       z     vdW  Elec       q    Type
REMARK                         _______ _______ _______ _____ _____    ______ ____
ROOT
ATOM      1  C   UNL     1       5.160   4.333  19.044  0.00  0.00    +0.000 A 
ATOM      2  C   UNL     1       5.037   3.038  19.514  0.00  0.00    +0.000 A 
ATOM      3  N   UNL     1       3.839   2.825  20.135  0.00  0.00    +0.000 NA
ATOM      4  C   UNL     1       3.223   3.985  20.066  0.00  0.00    +0.000 A 
ATOM      5  C   UNL     1       1.973   4.372  20.574  0.00  0.00    +0.000 A 
ATOM      6  C   UNL     1       1.546   5.624  20.386  0.00  0.00    +0.000 A 
ATOM      7  C   UNL     1       2.431   6.547  19.619  0.00  0.00    +0.000 A 
ATOM      8  N   UNL     1       3.597   6.225  19.135  0.00  0.00    +0.000 NA
ATOM      9  N   UNL     1       3.978   4.937  19.392  0.00  0.00    +0.000 N 
ENDROOT
BRANCH   7  10
ATOM     10  C   UNL     1       1.915   7.924  19.422  0.00  0.00    +0.000 A 
ATOM     11  C   UNL     1       2.038   8.601  18.203  0.00  0.00    +0.000 A 
ATOM     12  C   UNL     1       1.524   9.886  18.078  0.00  0.00    +0.000 A 
ATOM     13  C   UNL     1       0.912  10.457  19.181  0.00  0.00    +0.000 A 
ATOM     14  N   UNL     1       0.781   9.836  20.374  0.00  0.00    +0.000 NA
ATOM     15  C   UNL     1       1.285   8.582  20.471  0.00  0.00    +0.000 A 
ENDBRANCH   7  10
BRANCH   1  16
ATOM     16  S   UNL     1       6.481   5.112  18.222  0.00  0.00    +0.000 S 
ATOM     17  O   UNL     1       7.337   4.020  17.811  0.00  0.00    +0.000 OA
ATOM     18  O   UNL     1       6.976   6.171  19.067  0.00  0.00    +0.000 OA
BRANCH  16  19
ATOM     19  N   UNL     1       5.889   5.778  16.791  0.00  0.00    +0.000 NA
ATOM     20  H   UNL     1       5.390   6.643  17.008  0.00  0.00    +0.000 HD
BRANCH  19  21
ATOM     21  C   UNL     1       5.103   4.859  15.955  0.00  0.00    +0.000 C 
BRANCH  21  26
ATOM     22  C   UNL     1       5.718   3.537  12.422  0.00  0.00    +0.000 A 
ATOM     23  C   UNL     1       6.996   4.036  12.167  0.00  0.00    +0.000 A 
ATOM     24  C   UNL     1       7.653   4.820  13.118  0.00  0.00    +0.000 A 
ATOM     25  C   UNL     1       7.037   5.102  14.337  0.00  0.00    +0.000 A 
ATOM     26  C   UNL     1       5.753   4.614  14.612  0.00  0.00    +0.000 A 
ATOM     27  C   UNL     1       5.096   3.841  13.636  0.00  0.00    +0.000 A 
BRANCH  22  29
ATOM     28  C   UNL     1       3.830   3.002  11.078  0.00  0.00    +0.000 C 
ATOM     29  O   UNL     1       5.189   2.759  11.428  0.00  0.00    +0.000 OA
ENDBRANCH  22  29
ENDBRANCH  21  26
ENDBRANCH  19  21
ENDBRANCH  16  19
ENDBRANCH   1  16
TORSDOF 6
ENDMDL
MODEL 2
REMARK VINA RESULT:      -7.9      0.776      1.079
REMARK  Name = 
REMARK  7 active torsions:
REMARK  status: ('A' for Active; 'I' for Inactive)
REMARK    1  A    between atoms: C_1  and  O_2
REMARK    2  A    between atoms: O_2  and  C_3
REMARK    3  A    between atoms: C_7  and  C_8
REMARK    4  A    between atoms: C_8  and  N_9
REMARK    5  A    between atoms: N_9  and  S_10
REMARK    6  A    between atoms: S_10  and  C_13
REMARK    7  A    between atoms: C_19  and  C_20
REMARK                            x       y       z     vdW  Elec       q    Type
REMARK                         _______ _______ _______ _____ _____    ______ ____
ROOT
ATOM      1  C   UNL     1       4.932   4.283  19.108  0.00  0.00    +0.000 A 
ATOM      2  C   UNL     1       4.790   2.990  19.577  0.00  0.00    +0.000 A 
ATOM      3  N   UNL     1       3.613   2.809  20.247  0.00  0.00    +0.000 NA
ATOM      4  C   UNL     1       3.030   3.987  20.208  0.00  0.00    +0.000 A 
ATOM      5  C   UNL     1       1.814   4.408  20.770  0.00  0.00    +0.000 A 
ATOM      6  C   UNL     1       1.417   5.673  20.605  0.00  0.00    +0.000 A 
ATOM      7  C   UNL     1       2.296   6.574  19.806  0.00  0.00    +0.000 A 
ATOM      8  N   UNL     1       3.431   6.220  19.272  0.00  0.00    +0.000 NA
ATOM      9  N   UNL     1       3.784   4.920  19.508  0.00  0.00    +0.000 N 
ENDROOT
BRANCH   7  10
ATOM     10  C   UNL     1       1.814   7.966  19.636  0.00  0.00    +0.000 A 
ATOM     11  C   UNL     1       1.185   8.671  20.669  0.00  0.00    +0.000 A 
ATOM     12  C   UNL     1       0.765   9.977  20.451  0.00  0.00    +0.000 A 
ATOM     13  C   UNL     1       0.977  10.534  19.201  0.00  0.00    +0.000 A 
ATOM     14  N   UNL     1       1.574   9.882  18.179  0.00  0.00    +0.000 NA
ATOM     15  C   UNL     1       1.980   8.611  18.416  0.00  0.00    +0.000 A 
ENDBRANCH   7  10
BRANCH   1  16
ATOM     16  S   UNL     1       6.240   5.026  18.235  0.00  0.00    +0.000 S 
ATOM     17  O   UNL     1       7.417   4.696  19.008  0.00  0.00    +0.000 OA
ATOM     18  O   UNL     1       5.882   6.399  17.970  0.00  0.00    +0.000 OA
BRANCH  16  19
ATOM     19  N   UNL     1       6.423   4.212  16.770  0.00  0.00    +0.000 NA
ATOM     20  H   UNL     1       7.358   4.395  16.402  0.00  0.00    +0.000 HD
BRANCH  19  21
ATOM     21  C   UNL     1       5.362   4.458  15.784  0.00  0.00    +0.000 C 
BRANCH  21  26
ATOM     22  C   UNL     1       5.570   3.343  12.134  0.00  0.00    +0.000 A 
ATOM     23  C   UNL     1       6.811   3.865  11.763  0.00  0.00    +0.000 A 
ATOM     24  C   UNL     1       7.572   4.598  12.677  0.00  0.00    +0.000 A 
ATOM     25  C   UNL     1       7.098   4.806  13.973  0.00  0.00    +0.000 A 
ATOM     26  C   UNL     1       5.854   4.294  14.363  0.00  0.00    +0.000 A 
ATOM     27  C   UNL     1       5.091   3.573  13.426  0.00  0.00    +0.000 A 
BRANCH  22  29
ATOM     28  C   UNL     1       3.630   3.059  10.788  0.00  0.00    +0.000 C 
ATOM     29  O   UNL     1       4.931   2.619  11.164  0.00  0.00    +0.000 OA
ENDBRANCH  22  29
ENDBRANCH  21  26
ENDBRANCH  19  21
ENDBRANCH  16  19
ENDBRANCH   1  16
TORSDOF 6
ENDMDL
MODEL 3
REMARK VINA RESULT:      -7.8      3.655      6.895
REMARK  Name = 
REMARK  7 active torsions:
REMARK  status: ('A' for Active; 'I' for Inactive)
REMARK    1  A    between atoms: C_1  and  O_2
REMARK    2  A    between atoms: O_2  and  C_3
REMARK    3  A    between atoms: C_7  and  C_8
REMARK    4  A    between atoms: C_8  and  N_9
REMARK    5  A    between atoms: N_9  and  S_10
REMARK    6  A    between atoms: S_10  and  C_13
REMARK    7  A    between atoms: C_19  and  C_20
REMARK                            x       y       z     vdW  Elec       q    Type
REMARK                         _______ _______ _______ _____ _____    ______ ____
ROOT
ATOM      1  C   UNL     1       2.415   3.432  19.260  0.00  0.00    +0.000 A 
ATOM      2  C   UNL     1       1.873   2.336  18.615  0.00  0.00    +0.000 A 
ATOM      3  N   UNL     1       2.577   1.996  17.493  0.00  0.00    +0.000 NA
ATOM      4  C   UNL     1       3.543   2.885  17.431  0.00  0.00    +0.000 A 
ATOM      5  C   UNL     1       4.550   3.055  16.466  0.00  0.00    +0.000 A 
ATOM      6  C   UNL     1       5.434   4.046  16.608  0.00  0.00    +0.000 A 
ATOM      7  C   UNL     1       5.309   4.918  17.811  0.00  0.00    +0.000 A 
ATOM      8  N   UNL     1       4.388   4.793  18.724  0.00  0.00    +0.000 NA
ATOM      9  N   UNL     1       3.503   3.776  18.497  0.00  0.00    +0.000 N 
ENDROOT
BRANCH   7  10
ATOM     10  C   UNL     1       6.318   5.998  17.936  0.00  0.00    +0.000 A 
ATOM     11  C   UNL     1       7.387   5.922  18.838  0.00  0.00    +0.000 A 
ATOM     12  C   UNL     1       8.306   6.962  18.901  0.00  0.00    +0.000 A 
ATOM     13  C   UNL     1       8.120   8.051  18.066  0.00  0.00    +0.000 A 
ATOM     14  N   UNL     1       7.098   8.161  17.189  0.00  0.00    +0.000 NA
ATOM     15  C   UNL     1       6.217   7.133  17.142  0.00  0.00    +0.000 A 
ENDBRANCH   7  10
BRANCH   1  16
ATOM     16  S   UNL     1       1.888   4.270  20.691  0.00  0.00    +0.000 S 
ATOM     17  O   UNL     1       2.508   3.543  21.776  0.00  0.00    +0.000 OA
ATOM     18  O   UNL     1       0.456   4.427  20.620  0.00  0.00    +0.000 OA
BRANCH  16  19
ATOM     19  N   UNL     1       2.610   5.793  20.702  0.00  0.00    +0.000 NA
ATOM     20  H   UNL     1       3.420   5.773  21.325  0.00  0.00    +0.000 HD
BRANCH  19  21
ATOM     21  C   UNL     1       1.699   6.911  20.984  0.00  0.00    +0.000 C 
BRANCH  21  26
ATOM     22  C   UNL     1       1.075  10.167  19.082  0.00  0.00    +0.000 A 
ATOM     23  C   UNL     1       1.699   9.891  17.864  0.00  0.00    +0.000 A 
ATOM     24  C   UNL     1       2.344   8.669  17.660  0.00  0.00    +0.000 A 
ATOM     25  C   UNL     1       2.360   7.710  18.673  0.00  0.00    +0.000 A 
ATOM     26  C   UNL     1       1.743   7.969  19.904  0.00  0.00    +0.000 A 
ATOM     27  C   UNL     1       1.113   9.212  20.101  0.00  0.00    +0.000 A 
BRANCH  22  29
ATOM     28  C   UNL     1       1.184  12.508  18.673  0.00  0.00    +0.000 C 
ATOM     29  O   UNL     1       0.452  11.384  19.153  0.00  0.00    +0.000 OA
ENDBRANCH  22  29
ENDBRANCH  21  26
ENDBRANCH  19  21
ENDBRANCH  16  19
ENDBRANCH   1  16
TORSDOF 6
ENDMDL
MODEL 4
REMARK VINA RESULT:      -7.8      3.616      6.902
REMARK  Name = 
REMARK  7 active torsions:
REMARK  status: ('A' for Active; 'I' for Inactive)
REMARK    1  A    between atoms: C_1  and  O_2
REMARK    2  A    between atoms: O_2  and  C_3
REMARK    3  A    between atoms: C_7  and  C_8
REMARK    4  A    between atoms: C_8  and  N_9
REMARK    5  A    between atoms: N_9  and  S_10
REMARK    6  A    between atoms: S_10  and  C_13
REMARK    7  A    between atoms: C_19  and  C_20
REMARK                            x       y       z     vdW  Elec       q    Type
REMARK                         _______ _______ _______ _____ _____    ______ ____
ROOT
ATOM      1  C   UNL     1       2.311   3.553  19.122  0.00  0.00    +0.000 A 
ATOM      2  C   UNL     1       1.689   2.567  18.381  0.00  0.00    +0.000 A 
ATOM      3  N   UNL     1       2.347   2.304  17.212  0.00  0.00    +0.000 NA
ATOM      4  C   UNL     1       3.367   3.134  17.218  0.00  0.00    +0.000 A 
ATOM      5  C   UNL     1       4.364   3.342  16.251  0.00  0.00    +0.000 A 
ATOM      6  C   UNL     1       5.312   4.256  16.471  0.00  0.00    +0.000 A 
ATOM      7  C   UNL     1       5.267   5.002  17.762  0.00  0.00    +0.000 A 
ATOM      8  N   UNL     1       4.358   4.838  18.680  0.00  0.00    +0.000 NA
ATOM      9  N   UNL     1       3.405   3.907  18.371  0.00  0.00    +0.000 N 
ENDROOT
BRANCH   7  10
ATOM     10  C   UNL     1       6.345   5.998  17.973  0.00  0.00    +0.000 A 
ATOM     11  C   UNL     1       6.434   7.175  17.221  0.00  0.00    +0.000 A 
ATOM     12  C   UNL     1       7.462   8.074  17.473  0.00  0.00    +0.000 A 
ATOM     13  C   UNL     1       8.377   7.762  18.464  0.00  0.00    +0.000 A 
ATOM     14  N   UNL     1       8.326   6.633  19.205  0.00  0.00    +0.000 NA
ATOM     15  C   UNL     1       7.313   5.773  18.945  0.00  0.00    +0.000 A 
ENDBRANCH   7  10
BRANCH   1  16
ATOM     16  S   UNL     1       1.867   4.266  20.646  0.00  0.00    +0.000 S 
ATOM     17  O   UNL     1       2.566   3.467  21.629  0.00  0.00    +0.000 OA
ATOM     18  O   UNL     1       0.431   4.402  20.679  0.00  0.00    +0.000 OA
BRANCH  16  19
ATOM     19  N   UNL     1       2.569   5.796  20.733  0.00  0.00    +0.000 NA
ATOM     20  H   UNL     1       3.330   5.775  21.414  0.00  0.00    +0.000 HD
BRANCH  19  21
ATOM     21  C   UNL     1       1.626   6.900  20.963  0.00  0.00    +0.000 C 
BRANCH  21  26
ATOM     22  C   UNL     1       1.047  10.139  19.017  0.00  0.00    +0.000 A 
ATOM     23  C   UNL     1       1.738   9.869  17.834  0.00  0.00    +0.000 A 
ATOM     24  C   UNL     1       2.412   8.657  17.669  0.00  0.00    +0.000 A 
ATOM     25  C   UNL     1       2.392   7.702  18.686  0.00  0.00    +0.000 A 
ATOM     26  C   UNL     1       1.708   7.955  19.882  0.00  0.00    +0.000 A 
ATOM     27  C   UNL     1       1.049   9.188  20.041  0.00  0.00    +0.000 A 
BRANCH  22  29
ATOM     28  C   UNL     1      -0.995  11.318  19.328  0.00  0.00    +0.000 C 
ATOM     29  O   UNL     1       0.402  11.345  19.051  0.00  0.00    +0.000 OA
ENDBRANCH  22  29
ENDBRANCH  21  26
ENDBRANCH  19  21
ENDBRANCH  16  19
ENDBRANCH   1  16
TORSDOF 6
ENDMDL
MODEL 5
REMARK VINA RESULT:      -7.8      2.660      7.081
REMARK  Name = 
REMARK  7 active torsions:
REMARK  status: ('A' for Active; 'I' for Inactive)
REMARK    1  A    between atoms: C_1  and  O_2
REMARK    2  A    between atoms: O_2  and  C_3
REMARK    3  A    between atoms: C_7  and  C_8
REMARK    4  A    between atoms: C_8  and  N_9
REMARK    5  A    between atoms: N_9  and  S_10
REMARK    6  A    between atoms: S_10  and  C_13
REMARK    7  A    between atoms: C_19  and  C_20
REMARK                            x       y       z     vdW  Elec       q    Type
REMARK                         _______ _______ _______ _____ _____    ______ ____
ROOT
ATOM      1  C   UNL     1       4.613   3.459  18.745  0.00  0.00    +0.000 A 
ATOM      2  C   UNL     1       4.906   4.104  19.933  0.00  0.00    +0.000 A 
ATOM      3  N   UNL     1       5.827   5.099  19.767  0.00  0.00    +0.000 NA
ATOM      4  C   UNL     1       6.119   5.066  18.486  0.00  0.00    +0.000 A 
ATOM      5  C   UNL     1       7.037   5.834  17.751  0.00  0.00    +0.000 A 
ATOM      6  C   UNL     1       7.171   5.619  16.440  0.00  0.00    +0.000 A 
ATOM      7  C   UNL     1       6.311   4.571  15.819  0.00  0.00    +0.000 A 
ATOM      8  N   UNL     1       5.451   3.838  16.468  0.00  0.00    +0.000 NA
ATOM      9  N   UNL     1       5.390   4.095  17.810  0.00  0.00    +0.000 N 
ENDROOT
BRANCH   7  10
ATOM     10  C   UNL     1       6.482   4.373  14.359  0.00  0.00    +0.000 A 
ATOM     11  C   UNL     1       5.660   3.516  13.618  0.00  0.00    +0.000 A 
ATOM     12  C   UNL     1       5.864   3.381  12.251  0.00  0.00    +0.000 A 
ATOM     13  C   UNL     1       6.892   4.102  11.669  0.00  0.00    +0.000 A 
ATOM     14  N   UNL     1       7.709   4.933  12.352  0.00  0.00    +0.000 NA
ATOM     15  C   UNL     1       7.489   5.052  13.683  0.00  0.00    +0.000 A 
ENDBRANCH   7  10
BRANCH   1  16
ATOM     16  S   UNL     1       3.546   2.124  18.423  0.00  0.00    +0.000 S 
ATOM     17  O   UNL     1       2.938   1.837  19.703  0.00  0.00    +0.000 OA
ATOM     18  O   UNL     1       4.289   1.115  17.707  0.00  0.00    +0.000 OA
BRANCH  16  19
ATOM     19  N   UNL     1       2.290   2.679  17.445  0.00  0.00    +0.000 NA
ATOM     20  H   UNL     1       2.673   3.303  16.733  0.00  0.00    +0.000 HD
BRANCH  19  21
ATOM     21  C   UNL     1       1.153   3.267  18.168  0.00  0.00    +0.000 C 
BRANCH  21  26
ATOM     22  C   UNL     1       2.418   6.855  18.540  0.00  0.00    +0.000 A 
ATOM     23  C   UNL     1       2.262   7.053  19.913  0.00  0.00    +0.000 A 
ATOM     24  C   UNL     1       1.727   6.045  20.719  0.00  0.00    +0.000 A 
ATOM     25  C   UNL     1       1.352   4.826  20.154  0.00  0.00    +0.000 A 
ATOM     26  C   UNL     1       1.496   4.608  18.778  0.00  0.00    +0.000 A 
ATOM     27  C   UNL     1       2.019   5.639  17.977  0.00  0.00    +0.000 A 
BRANCH  22  29
ATOM     28  C   UNL     1       2.221   9.107  17.800  0.00  0.00    +0.000 C 
ATOM     29  O   UNL     1       2.979   7.902  17.861  0.00  0.00    +0.000 OA
ENDBRANCH  22  29
ENDBRANCH  21  26
ENDBRANCH  19  21
ENDBRANCH  16  19
ENDBRANCH   1  16
TORSDOF 6
ENDMDL
MODEL 6
REMARK VINA RESULT:      -7.6      3.628      7.670
REMARK  Name = 
REMARK  7 active torsions:
REMARK  status: ('A' for Active; 'I' for Inactive)
REMARK    1  A    between atoms: C_1  and  O_2
REMARK    2  A    between atoms: O_2  and  C_3
REMARK    3  A    between atoms: C_7  and  C_8
REMARK    4  A    between atoms: C_8  and  N_9
REMARK    5  A    between atoms: N_9  and  S_10
REMARK    6  A    between atoms: S_10  and  C_13
REMARK    7  A    between atoms: C_19  and  C_20
REMARK                            x       y       z     vdW  Elec       q    Type
REMARK                         _______ _______ _______ _____ _____    ______ ____
ROOT
ATOM      1  C   UNL     1       2.282   3.750  19.159  0.00  0.00    +0.000 A 
ATOM      2  C   UNL     1       1.667   2.728  18.459  0.00  0.00    +0.000 A 
ATOM      3  N   UNL     1       2.361   2.381  17.334  0.00  0.00    +0.000 NA
ATOM      4  C   UNL     1       3.395   3.192  17.324  0.00  0.00    +0.000 A 
ATOM      5  C   UNL     1       4.429   3.321  16.381  0.00  0.00    +0.000 A 
ATOM      6  C   UNL     1       5.386   4.231  16.577  0.00  0.00    +0.000 A 
ATOM      7  C   UNL     1       5.310   5.059  17.816  0.00  0.00    +0.000 A 
ATOM      8  N   UNL     1       4.366   4.970  18.710  0.00  0.00    +0.000 NA
ATOM      9  N   UNL     1       3.407   4.037  18.426  0.00  0.00    +0.000 N 
ENDROOT
BRANCH   7  10
ATOM     10  C   UNL     1       6.399   6.049  18.002  0.00  0.00    +0.000 A 
ATOM     11  C   UNL     1       6.499   7.206  17.221  0.00  0.00    +0.000 A 
ATOM     12  C   UNL     1       7.537   8.101  17.451  0.00  0.00    +0.000 A 
ATOM     13  C   UNL     1       8.449   7.803  18.448  0.00  0.00    +0.000 A 
ATOM     14  N   UNL     1       8.388   6.693  19.217  0.00  0.00    +0.000 NA
ATOM     15  C   UNL     1       7.365   5.837  18.978  0.00  0.00    +0.000 A 
ENDBRANCH   7  10
BRANCH   1  16
ATOM     16  S   UNL     1       1.799   4.566  20.617  0.00  0.00    +0.000 S 
ATOM     17  O   UNL     1       2.501   3.862  21.668  0.00  0.00    +0.000 OA
ATOM     18  O   UNL     1       0.360   4.669  20.620  0.00  0.00    +0.000 OA
BRANCH  16  19
ATOM     19  N   UNL     1       2.463   6.115  20.596  0.00  0.00    +0.000 NA
ATOM     20  H   UNL     1       2.322   6.551  21.509  0.00  0.00    +0.000 HD
BRANCH  19  21
ATOM     21  C   UNL     1       2.022   6.966  19.482  0.00  0.00    +0.000 C 
BRANCH  21  26
ATOM     22  C   UNL     1       0.735   9.769  21.739  0.00  0.00    +0.000 A 
ATOM     23  C   UNL     1       0.577  10.806  20.817  0.00  0.00    +0.000 A 
ATOM     24  C   UNL     1       0.908  10.615  19.474  0.00  0.00    +0.000 A 
ATOM     25  C   UNL     1       1.392   9.380  19.042  0.00  0.00    +0.000 A 
ATOM     26  C   UNL     1       1.561   8.327  19.951  0.00  0.00    +0.000 A 
ATOM     27  C   UNL     1       1.240   8.540  21.305  0.00  0.00    +0.000 A 
BRANCH  22  29
ATOM     28  C   UNL     1      -0.982  10.538  23.195  0.00  0.00    +0.000 C 
ATOM     29  O   UNL     1       0.350  10.065  23.019  0.00  0.00    +0.000 OA
ENDBRANCH  22  29
ENDBRANCH  21  26
ENDBRANCH  19  21
ENDBRANCH  16  19
ENDBRANCH   1  16
TORSDOF 6
ENDMDL
MODEL 7
REMARK VINA RESULT:      -7.6      4.319      5.904
REMARK  Name = 
REMARK  7 active torsions:
REMARK  status: ('A' for Active; 'I' for Inactive)
REMARK    1  A    between atoms: C_1  and  O_2
REMARK    2  A    between atoms: O_2  and  C_3
REMARK    3  A    between atoms: C_7  and  C_8
REMARK    4  A    between atoms: C_8  and  N_9
REMARK    5  A    between atoms: N_9  and  S_10
REMARK    6  A    between atoms: S_10  and  C_13
REMARK    7  A    between atoms: C_19  and  C_20
REMARK                            x       y       z     vdW  Elec       q    Type
REMARK                         _______ _______ _______ _____ _____    ______ ____
ROOT
ATOM      1  C   UNL     1       5.593   5.472  17.685  0.00  0.00    +0.000 A 
ATOM      2  C   UNL     1       5.939   4.212  18.137  0.00  0.00    +0.000 A 
ATOM      3  N   UNL     1       5.076   3.751  19.091  0.00  0.00    +0.000 NA
ATOM      4  C   UNL     1       4.206   4.724  19.244  0.00  0.00    +0.000 A 
ATOM      5  C   UNL     1       3.114   4.826  20.123  0.00  0.00    +0.000 A 
ATOM      6  C   UNL     1       2.360   5.928  20.106  0.00  0.00    +0.000 A 
ATOM      7  C   UNL     1       2.715   6.995  19.127  0.00  0.00    +0.000 A 
ATOM      8  N   UNL     1       3.720   6.937  18.300  0.00  0.00    +0.000 NA
ATOM      9  N   UNL     1       4.463   5.793  18.395  0.00  0.00    +0.000 N 
ENDROOT
BRANCH   7  10
ATOM     10  C   UNL     1       1.844   8.196  19.133  0.00  0.00    +0.000 A 
ATOM     11  C   UNL     1       1.567   8.925  17.970  0.00  0.00    +0.000 A 
ATOM     12  C   UNL     1       0.735  10.035  18.039  0.00  0.00    +0.000 A 
ATOM     13  C   UNL     1       0.214  10.387  19.272  0.00  0.00    +0.000 A 
ATOM     14  N   UNL     1       0.464   9.711  20.415  0.00  0.00    +0.000 NA
ATOM     15  C   UNL     1       1.274   8.630  20.324  0.00  0.00    +0.000 A 
ENDBRANCH   7  10
BRANCH   1  16
ATOM     16  S   UNL     1       6.369   6.500  16.515  0.00  0.00    +0.000 S 
ATOM     17  O   UNL     1       5.330   6.788  15.551  0.00  0.00    +0.000 OA
ATOM     18  O   UNL     1       7.606   5.875  16.115  0.00  0.00    +0.000 OA
BRANCH  16  19
ATOM     19  N   UNL     1       6.710   7.975  17.258  0.00  0.00    +0.000 NA
ATOM     20  H   UNL     1       6.582   8.727  16.580  0.00  0.00    +0.000 HD
BRANCH  19  21
ATOM     21  C   UNL     1       8.008   8.039  17.945  0.00  0.00    +0.000 C 
BRANCH  21  26
ATOM     22  C   UNL     1       9.660  11.085  19.559  0.00  0.00    +0.000 A 
ATOM     23  C   UNL     1       9.180  12.113  18.746  0.00  0.00    +0.000 A 
ATOM     24  C   UNL     1       8.345  11.829  17.663  0.00  0.00    +0.000 A 
ATOM     25  C   UNL     1       7.978  10.511  17.392  0.00  0.00    +0.000 A 
ATOM     26  C   UNL     1       8.452   9.463  18.192  0.00  0.00    +0.000 A 
ATOM     27  C   UNL     1       9.307   9.764  19.269  0.00  0.00    +0.000 A 
BRANCH  22  29
ATOM     28  C   UNL     1      11.432  12.476  20.322  0.00  0.00    +0.000 C 
ATOM     29  O   UNL     1      10.445  11.489  20.605  0.00  0.00    +0.000 OA
ENDBRANCH  22  29
ENDBRANCH  21  26
ENDBRANCH  19  21
ENDBRANCH  16  19
ENDBRANCH   1  16
TORSDOF 6
ENDMDL
MODEL 8
REMARK VINA RESULT:      -7.5      5.264     10.428
REMARK  Name = 
REMARK  7 active torsions:
REMARK  status: ('A' for Active; 'I' for Inactive)
REMARK    1  A    between atoms: C_1  and  O_2
REMARK    2  A    between atoms: O_2  and  C_3
REMARK    3  A    between atoms: C_7  and  C_8
REMARK    4  A    between atoms: C_8  and  N_9
REMARK    5  A    between atoms: N_9  and  S_10
REMARK    6  A    between atoms: S_10  and  C_13
REMARK    7  A    between atoms: C_19  and  C_20
REMARK                            x       y       z     vdW  Elec       q    Type
REMARK                         _______ _______ _______ _____ _____    ______ ____
ROOT
ATOM      1  C   UNL     1       1.043   9.635  20.322  0.00  0.00    +0.000 A 
ATOM      2  C   UNL     1       1.056  10.595  19.327  0.00  0.00    +0.000 A 
ATOM      3  N   UNL     1       1.600  10.126  18.164  0.00  0.00    +0.000 NA
ATOM      4  C   UNL     1       1.938   8.885  18.437  0.00  0.00    +0.000 A 
ATOM      5  C   UNL     1       2.578   7.928  17.632  0.00  0.00    +0.000 A 
ATOM      6  C   UNL     1       2.829   6.715  18.129  0.00  0.00    +0.000 A 
ATOM      7  C   UNL     1       2.393   6.437  19.528  0.00  0.00    +0.000 A 
ATOM      8  N   UNL     1       1.800   7.299  20.305  0.00  0.00    +0.000 NA
ATOM      9  N   UNL     1       1.602   8.527  19.736  0.00  0.00    +0.000 N 
ENDROOT
BRANCH   7  10
ATOM     10  C   UNL     1       2.679   5.073  20.037  0.00  0.00    +0.000 A 
ATOM     11  C   UNL     1       1.984   4.516  21.116  0.00  0.00    +0.000 A 
ATOM     12  C   UNL     1       2.292   3.229  21.540  0.00  0.00    +0.000 A 
ATOM     13  C   UNL     1       3.295   2.544  20.876  0.00  0.00    +0.000 A 
ATOM     14  N   UNL     1       3.991   3.052  19.836  0.00  0.00    +0.000 NA
ATOM     15  C   UNL     1       3.671   4.306  19.437  0.00  0.00    +0.000 A 
ENDBRANCH   7  10
BRANCH   1  16
ATOM     16  S   UNL     1       0.495   9.730  21.970  0.00  0.00    +0.000 S 
ATOM     17  O   UNL     1       1.682   9.472  22.755  0.00  0.00    +0.000 OA
ATOM     18  O   UNL     1      -0.681   8.905  22.103  0.00  0.00    +0.000 OA
BRANCH  16  19
ATOM     19  N   UNL     1       0.084  11.332  22.295  0.00  0.00    +0.000 NA
ATOM     20  H   UNL     1       0.894  11.810  22.693  0.00  0.00    +0.000 HD
BRANCH  19  21
ATOM     21  C   UNL     1      -1.135  11.512  23.096  0.00  0.00    +0.000 C 
BRANCH  21  26
ATOM     22  C   UNL     1      -4.588  12.845  22.140  0.00  0.00    +0.000 A 
ATOM     23  C   UNL     1      -4.414  13.088  20.776  0.00  0.00    +0.000 A 
ATOM     24  C   UNL     1      -3.181  12.848  20.166  0.00  0.00    +0.000 A 
ATOM     25  C   UNL     1      -2.114  12.354  20.917  0.00  0.00    +0.000 A 
ATOM     26  C   UNL     1      -2.266  12.108  22.288  0.00  0.00    +0.000 A 
ATOM     27  C   UNL     1      -3.509  12.372  22.892  0.00  0.00    +0.000 A 
BRANCH  22  29
ATOM     28  C   UNL     1      -6.936  12.699  21.788  0.00  0.00    +0.000 C 
ATOM     29  O   UNL     1      -5.847  13.090  22.618  0.00  0.00    +0.000 OA
ENDBRANCH  22  29
ENDBRANCH  21  26
ENDBRANCH  19  21
ENDBRANCH  16  19
ENDBRANCH   1  16
TORSDOF 6
ENDMDL
MODEL 9
REMARK VINA RESULT:      -7.5      5.431     10.955
REMARK  Name = 
REMARK  7 active torsions:
REMARK  status: ('A' for Active; 'I' for Inactive)
REMARK    1  A    between atoms: C_1  and  O_2
REMARK    2  A    between atoms: O_2  and  C_3
REMARK    3  A    between atoms: C_7  and  C_8
REMARK    4  A    between atoms: C_8  and  N_9
REMARK    5  A    between atoms: N_9  and  S_10
REMARK    6  A    between atoms: S_10  and  C_13
REMARK    7  A    between atoms: C_19  and  C_20
REMARK                            x       y       z     vdW  Elec       q    Type
REMARK                         _______ _______ _______ _____ _____    ______ ____
ROOT
ATOM      1  C   UNL     1       0.924   9.649  20.555  0.00  0.00    +0.000 A 
ATOM      2  C   UNL     1       0.884  10.670  19.624  0.00  0.00    +0.000 A 
ATOM      3  N   UNL     1       1.423  10.298  18.425  0.00  0.00    +0.000 NA
ATOM      4  C   UNL     1       1.810   9.056  18.611  0.00  0.00    +0.000 A 
ATOM      5  C   UNL     1       2.469   8.177  17.735  0.00  0.00    +0.000 A 
ATOM      6  C   UNL     1       2.773   6.944  18.148  0.00  0.00    +0.000 A 
ATOM      7  C   UNL     1       2.372   6.560  19.532  0.00  0.00    +0.000 A 
ATOM      8  N   UNL     1       1.764   7.348  20.373  0.00  0.00    +0.000 NA
ATOM      9  N   UNL     1       1.512   8.602  19.889  0.00  0.00    +0.000 N 
ENDROOT
BRANCH   7  10
ATOM     10  C   UNL     1       2.717   5.178  19.947  0.00  0.00    +0.000 A 
ATOM     11  C   UNL     1       2.007   4.497  20.942  0.00  0.00    +0.000 A 
ATOM     12  C   UNL     1       2.373   3.199  21.279  0.00  0.00    +0.000 A 
ATOM     13  C   UNL     1       3.445   2.628  20.615  0.00  0.00    +0.000 A 
ATOM     14  N   UNL     1       4.157   3.258  19.654  0.00  0.00    +0.000 NA
ATOM     15  C   UNL     1       3.780   4.520  19.340  0.00  0.00    +0.000 A 
ENDBRANCH   7  10
BRANCH   1  16
ATOM     16  S   UNL     1       0.404   9.617  22.215  0.00  0.00    +0.000 S 
ATOM     17  O   UNL     1       1.629   9.464  22.968  0.00  0.00    +0.000 OA
ATOM     18  O   UNL     1      -0.669   8.659  22.333  0.00  0.00    +0.000 OA
BRANCH  16  19
ATOM     19  N   UNL     1      -0.178  11.148  22.612  0.00  0.00    +0.000 NA
ATOM     20  H   UNL     1       0.511  11.625  23.197  0.00  0.00    +0.000 HD
BRANCH  19  21
ATOM     21  C   UNL     1      -1.530  11.171  23.187  0.00  0.00    +0.000 C 
BRANCH  21  26
ATOM     22  C   UNL     1      -4.055  14.022  22.869  0.00  0.00    +0.000 A 
ATOM     23  C   UNL     1      -3.230  15.134  23.048  0.00  0.00    +0.000 A 
ATOM     24  C   UNL     1      -1.865  14.970  23.297  0.00  0.00    +0.000 A 
ATOM     25  C   UNL     1      -1.316  13.689  23.359  0.00  0.00    +0.000 A 
ATOM     26  C   UNL     1      -2.127  12.560  23.186  0.00  0.00    +0.000 A 
ATOM     27  C   UNL     1      -3.504  12.741  22.954  0.00  0.00    +0.000 A 
BRANCH  22  29
ATOM     28  C   UNL     1      -6.302  14.065  23.649  0.00  0.00    +0.000 C 
ATOM     29  O   UNL     1      -5.367  14.309  22.603  0.00  0.00    +0.000 OA
ENDBRANCH  22  29
ENDBRANCH  21  26
ENDBRANCH  19  21
ENDBRANCH  16  19
ENDBRANCH   1  16
TORSDOF 6
ENDMDL
