MODEL 1
REMARK VINA RESULT:      -8.4      0.000      0.000
REMARK  Name = 
REMARK  4 active torsions:
REMARK  status: ('A' for Active; 'I' for Inactive)
REMARK    1  A    between atoms: C_2  and  C_3
REMARK    2  A    between atoms: C_3  and  C_20
REMARK    3  A    between atoms: C_4  and  C_5
REMARK    4  A    between atoms: C_6  and  C_7
REMARK                            x       y       z     vdW  Elec       q    Type
REMARK                         _______ _______ _______ _____ _____    ______ ____
ROOT
ATOM      1  C   UNL     1       3.196   5.441  17.619  0.00  0.00    +0.000 A 
ATOM      2  C   UNL     1       3.356   6.788  17.910  0.00  0.00    +0.000 A 
ATOM      3  N   UNL     1       4.596   7.143  17.415  0.00  0.00    +0.000 N 
ATOM      4  C   UNL     1       5.210   6.078  16.804  0.00  0.00    +0.000 A 
ATOM      5  C   UNL     1       6.477   5.985  16.200  0.00  0.00    +0.000 A 
ATOM      6  C   UNL     1       6.845   4.751  15.653  0.00  0.00    +0.000 A 
ATOM      7  C   UNL     1       5.972   3.669  15.680  0.00  0.00    +0.000 A 
ATOM      8  C   UNL     1       4.711   3.780  16.277  0.00  0.00    +0.000 A 
ATOM      9  C   UNL     1       4.330   5.000  16.872  0.00  0.00    +0.000 A 
ATOM     10  H   UNL     1       5.005   8.061  17.487  0.00  0.00    +0.000 HD
ENDROOT
BRANCH   2  11
ATOM     11  C   UNL     1       2.488   7.739  18.625  0.00  0.00    +0.000 A 
ATOM     12  C   UNL     1       2.140   7.552  19.969  0.00  0.00    +0.000 A 
ATOM     13  C   UNL     1       1.245   8.424  20.599  0.00  0.00    +0.000 A 
ATOM     14  C   UNL     1       0.692   9.490  19.894  0.00  0.00    +0.000 A 
ATOM     15  C   UNL     1       1.054   9.709  18.572  0.00  0.00    +0.000 A 
ATOM     16  C   UNL     1       1.959   8.848  17.950  0.00  0.00    +0.000 A 
ENDBRANCH   2  11
BRANCH   1  18
ATOM     17  C   UNL     1       2.180   3.590  18.917  0.00  0.00    +0.000 C 
ATOM     18  C   UNL     1       2.094   4.616  18.041  0.00  0.00    +0.000 C 
BRANCH  17  19
ATOM     19  C   UNL     1       0.967   2.808  19.259  0.00  0.00    +0.000 C 
ATOM     20  N   UNL     1       0.540   2.853  20.550  0.00  0.00    +0.000 N 
ATOM     21  O   UNL     1       0.364   2.131  18.433  0.00  0.00    +0.000 OA
ATOM     22  H   UNL     1       0.981   3.377  21.296  0.00  0.00    +0.000 HD
ATOM     23  H   UNL     1      -0.273   2.297  20.786  0.00  0.00    +0.000 HD
ENDBRANCH  17  19
BRANCH  17  25
ATOM     24  N   UNL     1       4.667   2.933  19.973  0.00  0.00    +0.000 NA
ATOM     25  C   UNL     1       3.539   3.230  19.494  0.00  0.00    +0.000 C 
ENDBRANCH  17  25
ENDBRANCH   1  18
TORSDOF 4
ENDMDL
MODEL 2
REMARK VINA RESULT:      -8.4      0.078      1.029
REMARK  Name = 
REMARK  4 active torsions:
REMARK  status: ('A' for Active; 'I' for Inactive)
REMARK    1  A    between atoms: C_2  and  C_3
REMARK    2  A    between atoms: C_3  and  C_20
REMARK    3  A    between atoms: C_4  and  C_5
REMARK    4  A    between atoms: C_6  and  C_7
REMARK                            x       y       z     vdW  Elec       q    Type
REMARK                         _______ _______ _______ _____ _____    ______ ____
ROOT
ATOM      1  C   UNL     1       3.176   5.420  17.597  0.00  0.00    +0.000 A 
ATOM      2  C   UNL     1       3.312   6.769  17.888  0.00  0.00    +0.000 A 
ATOM      3  N   UNL     1       4.551   7.143  17.406  0.00  0.00    +0.000 N 
ATOM      4  C   UNL     1       5.188   6.087  16.803  0.00  0.00    +0.000 A 
ATOM      5  C   UNL     1       6.464   6.014  16.213  0.00  0.00    +0.000 A 
ATOM      6  C   UNL     1       6.858   4.786  15.671  0.00  0.00    +0.000 A 
ATOM      7  C   UNL     1       6.002   3.690  15.691  0.00  0.00    +0.000 A 
ATOM      8  C   UNL     1       4.733   3.781  16.274  0.00  0.00    +0.000 A 
ATOM      9  C   UNL     1       4.326   4.996  16.863  0.00  0.00    +0.000 A 
ATOM     10  H   UNL     1       4.944   8.068  17.480  0.00  0.00    +0.000 HD
ENDROOT
BRANCH   2  11
ATOM     11  C   UNL     1       2.421   7.707  18.592  0.00  0.00    +0.000 A 
ATOM     12  C   UNL     1       1.908   8.849  17.963  0.00  0.00    +0.000 A 
ATOM     13  C   UNL     1       1.133   9.767  18.679  0.00  0.00    +0.000 A 
ATOM     14  C   UNL     1       0.863   9.553  20.029  0.00  0.00    +0.000 A 
ATOM     15  C   UNL     1       1.335   8.409  20.658  0.00  0.00    +0.000 A 
ATOM     16  C   UNL     1       2.094   7.487  19.937  0.00  0.00    +0.000 A 
ENDBRANCH   2  11
BRANCH   1  18
ATOM     17  C   UNL     1       2.173   3.563  18.897  0.00  0.00    +0.000 C 
ATOM     18  C   UNL     1       2.084   4.577  18.008  0.00  0.00    +0.000 C 
BRANCH  17  19
ATOM     19  C   UNL     1       0.970   2.761  19.226  0.00  0.00    +0.000 C 
ATOM     20  N   UNL     1       0.525   2.804  20.511  0.00  0.00    +0.000 N 
ATOM     21  O   UNL     1       0.391   2.069  18.395  0.00  0.00    +0.000 OA
ATOM     22  H   UNL     1       0.946   3.338  21.261  0.00  0.00    +0.000 HD
ATOM     23  H   UNL     1      -0.281   2.234  20.739  0.00  0.00    +0.000 HD
ENDBRANCH  17  19
BRANCH  17  25
ATOM     24  N   UNL     1       4.654   2.965  20.004  0.00  0.00    +0.000 NA
ATOM     25  C   UNL     1       3.529   3.236  19.503  0.00  0.00    +0.000 C 
ENDBRANCH  17  25
ENDBRANCH   1  18
TORSDOF 4
ENDMDL
MODEL 3
REMARK VINA RESULT:      -8.1      1.498      5.222
REMARK  Name = 
REMARK  4 active torsions:
REMARK  status: ('A' for Active; 'I' for Inactive)
REMARK    1  A    between atoms: C_2  and  C_3
REMARK    2  A    between atoms: C_3  and  C_20
REMARK    3  A    between atoms: C_4  and  C_5
REMARK    4  A    between atoms: C_6  and  C_7
REMARK                            x       y       z     vdW  Elec       q    Type
REMARK                         _______ _______ _______ _____ _____    ______ ____
ROOT
ATOM      1  C   UNL     1       3.155   6.456  19.192  0.00  0.00    +0.000 A 
ATOM      2  C   UNL     1       3.755   6.710  17.967  0.00  0.00    +0.000 A 
ATOM      3  N   UNL     1       3.178   7.872  17.491  0.00  0.00    +0.000 N 
ATOM      4  C   UNL     1       2.257   8.369  18.379  0.00  0.00    +0.000 A 
ATOM      5  C   UNL     1       1.424   9.499  18.284  0.00  0.00    +0.000 A 
ATOM      6  C   UNL     1       0.568   9.764  19.359  0.00  0.00    +0.000 A 
ATOM      7  C   UNL     1       0.569   8.954  20.489  0.00  0.00    +0.000 A 
ATOM      8  C   UNL     1       1.410   7.839  20.572  0.00  0.00    +0.000 A 
ATOM      9  C   UNL     1       2.254   7.525  19.486  0.00  0.00    +0.000 A 
ATOM     10  H   UNL     1       3.399   8.306  16.609  0.00  0.00    +0.000 HD
ENDROOT
BRANCH   2  11
ATOM     11  C   UNL     1       4.769   5.961  17.206  0.00  0.00    +0.000 A 
ATOM     12  C   UNL     1       4.457   4.771  16.537  0.00  0.00    +0.000 A 
ATOM     13  C   UNL     1       5.458   4.035  15.893  0.00  0.00    +0.000 A 
ATOM     14  C   UNL     1       6.777   4.480  15.912  0.00  0.00    +0.000 A 
ATOM     15  C   UNL     1       7.096   5.675  16.542  0.00  0.00    +0.000 A 
ATOM     16  C   UNL     1       6.094   6.416  17.169  0.00  0.00    +0.000 A 
ENDBRANCH   2  11
BRANCH   1  18
ATOM     17  C   UNL     1       2.788   4.083  19.806  0.00  0.00    +0.000 C 
ATOM     18  C   UNL     1       3.368   5.288  20.005  0.00  0.00    +0.000 C 
BRANCH  17  19
ATOM     19  C   UNL     1       3.084   2.960  20.728  0.00  0.00    +0.000 C 
ATOM     20  N   UNL     1       2.258   2.797  21.797  0.00  0.00    +0.000 N 
ATOM     21  O   UNL     1       4.035   2.204  20.563  0.00  0.00    +0.000 OA
ATOM     22  H   UNL     1       1.458   3.379  22.015  0.00  0.00    +0.000 HD
ATOM     23  H   UNL     1       2.478   2.046  22.439  0.00  0.00    +0.000 HD
ENDBRANCH  17  19
BRANCH  17  25
ATOM     24  N   UNL     1       0.980   3.794  17.712  0.00  0.00    +0.000 NA
ATOM     25  C   UNL     1       1.801   3.925  18.661  0.00  0.00    +0.000 C 
ENDBRANCH  17  25
ENDBRANCH   1  18
TORSDOF 4
ENDMDL
MODEL 4
REMARK VINA RESULT:      -8.1      1.503      5.218
REMARK  Name = 
REMARK  4 active torsions:
REMARK  status: ('A' for Active; 'I' for Inactive)
REMARK    1  A    between atoms: C_2  and  C_3
REMARK    2  A    between atoms: C_3  and  C_20
REMARK    3  A    between atoms: C_4  and  C_5
REMARK    4  A    between atoms: C_6  and  C_7
REMARK                            x       y       z     vdW  Elec       q    Type
REMARK                         _______ _______ _______ _____ _____    ______ ____
ROOT
ATOM      1  C   UNL     1       3.165   6.435  19.210  0.00  0.00    +0.000 A 
ATOM      2  C   UNL     1       3.806   6.651  17.998  0.00  0.00    +0.000 A 
ATOM      3  N   UNL     1       3.266   7.813  17.480  0.00  0.00    +0.000 N 
ATOM      4  C   UNL     1       2.329   8.346  18.330  0.00  0.00    +0.000 A 
ATOM      5  C   UNL     1       1.520   9.488  18.186  0.00  0.00    +0.000 A 
ATOM      6  C   UNL     1       0.638   9.793  19.229  0.00  0.00    +0.000 A 
ATOM      7  C   UNL     1       0.590   9.008  20.375  0.00  0.00    +0.000 A 
ATOM      8  C   UNL     1       1.407   7.879  20.506  0.00  0.00    +0.000 A 
ATOM      9  C   UNL     1       2.276   7.526  19.454  0.00  0.00    +0.000 A 
ATOM     10  H   UNL     1       3.521   8.224  16.597  0.00  0.00    +0.000 HD
ENDROOT
BRANCH   2  11
ATOM     11  C   UNL     1       4.828   5.867  17.285  0.00  0.00    +0.000 A 
ATOM     12  C   UNL     1       6.182   6.224  17.312  0.00  0.00    +0.000 A 
ATOM     13  C   UNL     1       7.120   5.511  16.557  0.00  0.00    +0.000 A 
ATOM     14  C   UNL     1       6.714   4.437  15.769  0.00  0.00    +0.000 A 
ATOM     15  C   UNL     1       5.381   4.049  15.758  0.00  0.00    +0.000 A 
ATOM     16  C   UNL     1       4.451   4.751  16.525  0.00  0.00    +0.000 A 
ENDBRANCH   2  11
BRANCH   1  18
ATOM     17  C   UNL     1       2.741   4.081  19.858  0.00  0.00    +0.000 C 
ATOM     18  C   UNL     1       3.331   5.281  20.054  0.00  0.00    +0.000 C 
BRANCH  17  19
ATOM     19  C   UNL     1       2.987   2.973  20.813  0.00  0.00    +0.000 C 
ATOM     20  N   UNL     1       2.116   2.839  21.850  0.00  0.00    +0.000 N 
ATOM     21  O   UNL     1       3.936   2.204  20.701  0.00  0.00    +0.000 OA
ATOM     22  H   UNL     1       1.314   3.432  22.024  0.00  0.00    +0.000 HD
ATOM     23  H   UNL     1       2.302   2.099  22.515  0.00  0.00    +0.000 HD
ENDBRANCH  17  19
BRANCH  17  25
ATOM     24  N   UNL     1       1.005   3.775  17.707  0.00  0.00    +0.000 NA
ATOM     25  C   UNL     1       1.792   3.913  18.683  0.00  0.00    +0.000 C 
ENDBRANCH  17  25
ENDBRANCH   1  18
TORSDOF 4
ENDMDL
MODEL 5
REMARK VINA RESULT:      -8.0      2.383      4.492
REMARK  Name = 
REMARK  4 active torsions:
REMARK  status: ('A' for Active; 'I' for Inactive)
REMARK    1  A    between atoms: C_2  and  C_3
REMARK    2  A    between atoms: C_3  and  C_20
REMARK    3  A    between atoms: C_4  and  C_5
REMARK    4  A    between atoms: C_6  and  C_7
REMARK                            x       y       z     vdW  Elec       q    Type
REMARK                         _______ _______ _______ _____ _____    ______ ____
ROOT
ATOM      1  C   UNL     1       3.260   5.661  18.993  0.00  0.00    +0.000 A 
ATOM      2  C   UNL     1       2.415   6.542  19.652  0.00  0.00    +0.000 A 
ATOM      3  N   UNL     1       1.901   5.847  20.730  0.00  0.00    +0.000 N 
ATOM      4  C   UNL     1       2.409   4.573  20.786  0.00  0.00    +0.000 A 
ATOM      5  C   UNL     1       2.137   3.527  21.688  0.00  0.00    +0.000 A 
ATOM      6  C   UNL     1       2.811   2.315  21.497  0.00  0.00    +0.000 A 
ATOM      7  C   UNL     1       3.738   2.168  20.471  0.00  0.00    +0.000 A 
ATOM      8  C   UNL     1       4.003   3.221  19.587  0.00  0.00    +0.000 A 
ATOM      9  C   UNL     1       3.308   4.439  19.732  0.00  0.00    +0.000 A 
ATOM     10  H   UNL     1       1.241   6.217  21.394  0.00  0.00    +0.000 HD
ENDROOT
BRANCH   2  11
ATOM     11  C   UNL     1       2.028   7.930  19.349  0.00  0.00    +0.000 A 
ATOM     12  C   UNL     1       1.317   8.714  20.267  0.00  0.00    +0.000 A 
ATOM     13  C   UNL     1       0.889  10.000  19.920  0.00  0.00    +0.000 A 
ATOM     14  C   UNL     1       1.166  10.514  18.656  0.00  0.00    +0.000 A 
ATOM     15  C   UNL     1       1.899   9.763  17.748  0.00  0.00    +0.000 A 
ATOM     16  C   UNL     1       2.340   8.487  18.101  0.00  0.00    +0.000 A 
ENDBRANCH   2  11
BRANCH   1  18
ATOM     17  C   UNL     1       5.277   5.918  17.575  0.00  0.00    +0.000 C 
ATOM     18  C   UNL     1       3.936   5.918  17.749  0.00  0.00    +0.000 C 
BRANCH  17  19
ATOM     19  C   UNL     1       5.849   6.211  16.239  0.00  0.00    +0.000 C 
ATOM     20  N   UNL     1       7.142   5.849  16.022  0.00  0.00    +0.000 N 
ATOM     21  O   UNL     1       5.207   6.769  15.355  0.00  0.00    +0.000 OA
ATOM     22  H   UNL     1       7.746   5.395  16.696  0.00  0.00    +0.000 HD
ATOM     23  H   UNL     1       7.538   6.075  15.117  0.00  0.00    +0.000 HD
ENDBRANCH  17  19
BRANCH  17  25
ATOM     24  N   UNL     1       6.915   5.455  19.775  0.00  0.00    +0.000 NA
ATOM     25  C   UNL     1       6.172   5.665  18.778  0.00  0.00    +0.000 C 
ENDBRANCH  17  25
ENDBRANCH   1  18
TORSDOF 4
ENDMDL
MODEL 6
REMARK VINA RESULT:      -8.0      2.385      4.567
REMARK  Name = 
REMARK  4 active torsions:
REMARK  status: ('A' for Active; 'I' for Inactive)
REMARK    1  A    between atoms: C_2  and  C_3
REMARK    2  A    between atoms: C_3  and  C_20
REMARK    3  A    between atoms: C_4  and  C_5
REMARK    4  A    between atoms: C_6  and  C_7
REMARK                            x       y       z     vdW  Elec       q    Type
REMARK                         _______ _______ _______ _____ _____    ______ ____
ROOT
ATOM      1  C   UNL     1       3.246   5.684  18.957  0.00  0.00    +0.000 A 
ATOM      2  C   UNL     1       2.381   6.557  19.600  0.00  0.00    +0.000 A 
ATOM      3  N   UNL     1       1.867   5.865  20.679  0.00  0.00    +0.000 N 
ATOM      4  C   UNL     1       2.394   4.599  20.751  0.00  0.00    +0.000 A 
ATOM      5  C   UNL     1       2.128   3.557  21.659  0.00  0.00    +0.000 A 
ATOM      6  C   UNL     1       2.822   2.354  21.486  0.00  0.00    +0.000 A 
ATOM      7  C   UNL     1       3.761   2.212  20.470  0.00  0.00    +0.000 A 
ATOM      8  C   UNL     1       4.019   3.261  19.580  0.00  0.00    +0.000 A 
ATOM      9  C   UNL     1       3.305   4.469  19.706  0.00  0.00    +0.000 A 
ATOM     10  H   UNL     1       1.195   6.231  21.333  0.00  0.00    +0.000 HD
ENDROOT
BRANCH   2  11
ATOM     11  C   UNL     1       1.977   7.937  19.280  0.00  0.00    +0.000 A 
ATOM     12  C   UNL     1       2.303   8.535  18.056  0.00  0.00    +0.000 A 
ATOM     13  C   UNL     1       1.980   9.875  17.812  0.00  0.00    +0.000 A 
ATOM     14  C   UNL     1       1.329  10.627  18.787  0.00  0.00    +0.000 A 
ATOM     15  C   UNL     1       0.969  10.039  19.991  0.00  0.00    +0.000 A 
ATOM     16  C   UNL     1       1.277   8.698  20.226  0.00  0.00    +0.000 A 
ENDBRANCH   2  11
BRANCH   1  18
ATOM     17  C   UNL     1       5.272   5.930  17.550  0.00  0.00    +0.000 C 
ATOM     18  C   UNL     1       3.931   5.940  17.717  0.00  0.00    +0.000 C 
BRANCH  17  19
ATOM     19  C   UNL     1       5.853   6.224  16.218  0.00  0.00    +0.000 C 
ATOM     20  N   UNL     1       7.158   5.894  16.021  0.00  0.00    +0.000 N 
ATOM     21  O   UNL     1       5.208   6.754  15.319  0.00  0.00    +0.000 OA
ATOM     22  H   UNL     1       7.765   5.463  16.707  0.00  0.00    +0.000 HD
ATOM     23  H   UNL     1       7.559   6.120  15.119  0.00  0.00    +0.000 HD
ENDBRANCH  17  19
BRANCH  17  25
ATOM     24  N   UNL     1       6.894   5.449  19.758  0.00  0.00    +0.000 NA
ATOM     25  C   UNL     1       6.159   5.667  18.756  0.00  0.00    +0.000 C 
ENDBRANCH  17  25
ENDBRANCH   1  18
TORSDOF 4
ENDMDL
MODEL 7
REMARK VINA RESULT:      -7.7      1.657      1.868
REMARK  Name = 
REMARK  4 active torsions:
REMARK  status: ('A' for Active; 'I' for Inactive)
REMARK    1  A    between atoms: C_2  and  C_3
REMARK    2  A    between atoms: C_3  and  C_20
REMARK    3  A    between atoms: C_4  and  C_5
REMARK    4  A    between atoms: C_6  and  C_7
REMARK                            x       y       z     vdW  Elec       q    Type
REMARK                         _______ _______ _______ _____ _____    ______ ____
ROOT
ATOM      1  C   UNL     1       3.365   5.897  18.876  0.00  0.00    +0.000 A 
ATOM      2  C   UNL     1       2.920   7.179  18.588  0.00  0.00    +0.000 A 
ATOM      3  N   UNL     1       3.577   7.564  17.435  0.00  0.00    +0.000 N 
ATOM      4  C   UNL     1       4.399   6.565  16.976  0.00  0.00    +0.000 A 
ATOM      5  C   UNL     1       5.266   6.541  15.868  0.00  0.00    +0.000 A 
ATOM      6  C   UNL     1       5.995   5.369  15.641  0.00  0.00    +0.000 A 
ATOM      7  C   UNL     1       5.841   4.261  16.467  0.00  0.00    +0.000 A 
ATOM      8  C   UNL     1       4.969   4.298  17.562  0.00  0.00    +0.000 A 
ATOM      9  C   UNL     1       4.251   5.480  17.837  0.00  0.00    +0.000 A 
ATOM     10  H   UNL     1       3.472   8.457  16.982  0.00  0.00    +0.000 HD
ENDROOT
BRANCH   2  11
ATOM     11  C   UNL     1       1.984   8.067  19.299  0.00  0.00    +0.000 A 
ATOM     12  C   UNL     1       1.618   7.836  20.631  0.00  0.00    +0.000 A 
ATOM     13  C   UNL     1       0.662   8.645  21.255  0.00  0.00    +0.000 A 
ATOM     14  C   UNL     1       0.065   9.691  20.556  0.00  0.00    +0.000 A 
ATOM     15  C   UNL     1       0.443   9.954  19.246  0.00  0.00    +0.000 A 
ATOM     16  C   UNL     1       1.408   9.156  18.631  0.00  0.00    +0.000 A 
ENDBRANCH   2  11
BRANCH   1  18
ATOM     17  C   UNL     1       2.186   4.080  20.080  0.00  0.00    +0.000 C 
ATOM     18  C   UNL     1       3.030   5.136  20.051  0.00  0.00    +0.000 C 
BRANCH  17  19
ATOM     19  C   UNL     1       1.915   3.387  21.363  0.00  0.00    +0.000 C 
ATOM     20  N   UNL     1       0.807   2.599  21.423  0.00  0.00    +0.000 N 
ATOM     21  O   UNL     1       2.636   3.514  22.347  0.00  0.00    +0.000 OA
ATOM     22  H   UNL     1       0.154   2.445  20.665  0.00  0.00    +0.000 HD
ATOM     23  H   UNL     1       0.610   2.148  22.308  0.00  0.00    +0.000 HD
ENDBRANCH  17  19
BRANCH  17  25
ATOM     24  N   UNL     1       0.916   3.312  17.727  0.00  0.00    +0.000 NA
ATOM     25  C   UNL     1       1.492   3.660  18.795  0.00  0.00    +0.000 C 
ENDBRANCH  17  25
ENDBRANCH   1  18
TORSDOF 4
ENDMDL
MODEL 8
REMARK VINA RESULT:      -7.6      1.639      2.088
REMARK  Name = 
REMARK  4 active torsions:
REMARK  status: ('A' for Active; 'I' for Inactive)
REMARK    1  A    between atoms: C_2  and  C_3
REMARK    2  A    between atoms: C_3  and  C_20
REMARK    3  A    between atoms: C_4  and  C_5
REMARK    4  A    between atoms: C_6  and  C_7
REMARK                            x       y       z     vdW  Elec       q    Type
REMARK                         _______ _______ _______ _____ _____    ______ ____
ROOT
ATOM      1  C   UNL     1       3.418   5.813  18.846  0.00  0.00    +0.000 A 
ATOM      2  C   UNL     1       2.966   7.090  18.546  0.00  0.00    +0.000 A 
ATOM      3  N   UNL     1       3.633   7.473  17.398  0.00  0.00    +0.000 N 
ATOM      4  C   UNL     1       4.467   6.477  16.954  0.00  0.00    +0.000 A 
ATOM      5  C   UNL     1       5.346   6.453  15.855  0.00  0.00    +0.000 A 
ATOM      6  C   UNL     1       6.087   5.285  15.643  0.00  0.00    +0.000 A 
ATOM      7  C   UNL     1       5.932   4.181  16.474  0.00  0.00    +0.000 A 
ATOM      8  C   UNL     1       5.047   4.218  17.559  0.00  0.00    +0.000 A 
ATOM      9  C   UNL     1       4.318   5.396  17.819  0.00  0.00    +0.000 A 
ATOM     10  H   UNL     1       3.527   8.363  16.938  0.00  0.00    +0.000 HD
ENDROOT
BRANCH   2  11
ATOM     11  C   UNL     1       2.016   7.974  19.241  0.00  0.00    +0.000 A 
ATOM     12  C   UNL     1       1.464   9.100  18.615  0.00  0.00    +0.000 A 
ATOM     13  C   UNL     1       0.630   9.970  19.326  0.00  0.00    +0.000 A 
ATOM     14  C   UNL     1       0.340   9.725  20.665  0.00  0.00    +0.000 A 
ATOM     15  C   UNL     1       0.851   8.595  21.290  0.00  0.00    +0.000 A 
ATOM     16  C   UNL     1       1.668   7.719  20.574  0.00  0.00    +0.000 A 
ENDBRANCH   2  11
BRANCH   1  18
ATOM     17  C   UNL     1       2.241   3.991  20.047  0.00  0.00    +0.000 C 
ATOM     18  C   UNL     1       3.074   5.056  20.021  0.00  0.00    +0.000 C 
BRANCH  17  19
ATOM     19  C   UNL     1       1.961   3.305  21.331  0.00  0.00    +0.000 C 
ATOM     20  N   UNL     1       0.778   2.639  21.436  0.00  0.00    +0.000 N 
ATOM     21  O   UNL     1       2.740   3.331  22.278  0.00  0.00    +0.000 OA
ATOM     22  H   UNL     1       0.075   2.574  20.711  0.00  0.00    +0.000 HD
ATOM     23  H   UNL     1       0.577   2.194  22.323  0.00  0.00    +0.000 HD
ENDBRANCH  17  19
BRANCH  17  25
ATOM     24  N   UNL     1       1.009   3.195  17.684  0.00  0.00    +0.000 NA
ATOM     25  C   UNL     1       1.568   3.556  18.756  0.00  0.00    +0.000 C 
ENDBRANCH  17  25
ENDBRANCH   1  18
TORSDOF 4
ENDMDL
MODEL 9
REMARK VINA RESULT:      -7.5      2.601      5.220
REMARK  Name = 
REMARK  4 active torsions:
REMARK  status: ('A' for Active; 'I' for Inactive)
REMARK    1  A    between atoms: C_2  and  C_3
REMARK    2  A    between atoms: C_3  and  C_20
REMARK    3  A    between atoms: C_4  and  C_5
REMARK    4  A    between atoms: C_6  and  C_7
REMARK                            x       y       z     vdW  Elec       q    Type
REMARK                         _______ _______ _______ _____ _____    ______ ____
ROOT
ATOM      1  C   UNL     1       3.542   5.415  18.072  0.00  0.00    +0.000 A 
ATOM      2  C   UNL     1       4.872   5.087  18.293  0.00  0.00    +0.000 A 
ATOM      3  N   UNL     1       4.886   3.749  18.636  0.00  0.00    +0.000 N 
ATOM      4  C   UNL     1       3.620   3.219  18.616  0.00  0.00    +0.000 A 
ATOM      5  C   UNL     1       3.175   1.920  18.927  0.00  0.00    +0.000 A 
ATOM      6  C   UNL     1       1.804   1.662  18.820  0.00  0.00    +0.000 A 
ATOM      7  C   UNL     1       0.923   2.649  18.391  0.00  0.00    +0.000 A 
ATOM      8  C   UNL     1       1.382   3.934  18.078  0.00  0.00    +0.000 A 
ATOM      9  C   UNL     1       2.753   4.233  18.216  0.00  0.00    +0.000 A 
ATOM     10  H   UNL     1       5.711   3.222  18.870  0.00  0.00    +0.000 HD
ENDROOT
BRANCH   2  11
ATOM     11  C   UNL     1       6.096   5.905  18.246  0.00  0.00    +0.000 A 
ATOM     12  C   UNL     1       7.148   5.707  19.149  0.00  0.00    +0.000 A 
ATOM     13  C   UNL     1       8.263   6.553  19.137  0.00  0.00    +0.000 A 
ATOM     14  C   UNL     1       8.336   7.603  18.225  0.00  0.00    +0.000 A 
ATOM     15  C   UNL     1       7.317   7.791  17.301  0.00  0.00    +0.000 A 
ATOM     16  C   UNL     1       6.214   6.936  17.304  0.00  0.00    +0.000 A 
ENDBRANCH   2  11
BRANCH   1  18
ATOM     17  C   UNL     1       2.332   7.498  18.658  0.00  0.00    +0.000 C 
ATOM     18  C   UNL     1       3.037   6.734  17.793  0.00  0.00    +0.000 C 
BRANCH  17  19
ATOM     19  C   UNL     1       1.857   8.839  18.241  0.00  0.00    +0.000 C 
ATOM     20  N   UNL     1       0.937   9.449  19.037  0.00  0.00    +0.000 N 
ATOM     21  O   UNL     1       2.252   9.390  17.219  0.00  0.00    +0.000 OA
ATOM     22  H   UNL     1       0.551   9.064  19.890  0.00  0.00    +0.000 HD
ATOM     23  H   UNL     1       0.595  10.353  18.735  0.00  0.00    +0.000 HD
ENDBRANCH  17  19
BRANCH  17  25
ATOM     24  N   UNL     1       1.725   6.467  21.169  0.00  0.00    +0.000 NA
ATOM     25  C   UNL     1       2.000   6.934  20.030  0.00  0.00    +0.000 C 
ENDBRANCH  17  25
ENDBRANCH   1  18
TORSDOF 4
ENDMDL
