MODEL 1
REMARK VINA RESULT:      -7.8      0.000      0.000
REMARK  Name = 
REMARK  5 active torsions:
REMARK  status: ('A' for Active; 'I' for Inactive)
REMARK    1  A    between atoms: O_1  and  C_2
REMARK    2  A    between atoms: C_5  and  S_6
REMARK    3  A    between atoms: S_6  and  C_7
REMARK    4  A    between atoms: C_7  and  C_8
REMARK    5  A    between atoms: N_14  and  C_15
REMARK                            x       y       z     vdW  Elec       q    Type
REMARK                         _______ _______ _______ _____ _____    ______ ____
ROOT
ATOM      1  C   UNL     1       2.194   7.164  19.923  0.00  0.00    +0.000 A 
ATOM      2  N   UNL     1       2.295   7.942  18.877  0.00  0.00    +0.000 NA
ATOM      3  N   UNL     1       2.808   7.185  17.855  0.00  0.00    +0.000 NA
ATOM      4  C   UNL     1       2.999   5.968  18.314  0.00  0.00    +0.000 A 
ATOM      5  N   UNL     1       2.635   5.901  19.647  0.00  0.00    +0.000 N 
ENDROOT
BRANCH   5   6
ATOM      6  C   UNL     1       2.581   4.711  20.455  0.00  0.00    +0.000 C 
ATOM      7  C   UNL     1       3.479   3.461  20.163  0.00  0.00    +0.000 C 
ATOM      8  C   UNL     1       2.537   2.280  20.520  0.00  0.00    +0.000 C 
ATOM      9  C   UNL     1       1.545   2.158  19.393  0.00  0.00    +0.000 C 
ATOM     10  C   UNL     1       0.756   3.242  19.445  0.00  0.00    +0.000 C 
ATOM     11  C   UNL     1       1.182   4.059  20.652  0.00  0.00    +0.000 C 
ATOM     12  C   UNL     1       1.601   2.893  21.565  0.00  0.00    +0.000 C 
ENDBRANCH   5   6
BRANCH   1  13
ATOM     13  O   UNL     1       1.680   7.584  21.061  0.00  0.00    +0.000 OA
ATOM     14  H   UNL     1       1.128   8.334  20.772  0.00  0.00    +0.000 HD
ENDBRANCH   1  13
BRANCH   4  15
ATOM     15  S   UNL     1       3.565   4.621  17.371  0.00  0.00    +0.000 S 
BRANCH  15  16
ATOM     16  C   UNL     1       4.897   5.416  16.416  0.00  0.00    +0.000 C 
BRANCH  16  17
ATOM     17  C   UNL     1       6.026   5.938  17.278  0.00  0.00    +0.000 A 
ATOM     18  C   UNL     1       6.586   5.148  18.296  0.00  0.00    +0.000 A 
ATOM     19  C   UNL     1       7.672   5.613  19.043  0.00  0.00    +0.000 A 
ATOM     20  C   UNL     1       8.218   6.866  18.786  0.00  0.00    +0.000 A 
ATOM     21  C   UNL     1       7.673   7.663  17.781  0.00  0.00    +0.000 A 
ATOM     22  C   UNL     1       6.583   7.204  17.034  0.00  0.00    +0.000 A 
ENDBRANCH  16  17
ENDBRANCH  15  16
ENDBRANCH   4  15
TORSDOF 5
ENDMDL
MODEL 2
REMARK VINA RESULT:      -7.8      0.180      1.067
REMARK  Name = 
REMARK  5 active torsions:
REMARK  status: ('A' for Active; 'I' for Inactive)
REMARK    1  A    between atoms: O_1  and  C_2
REMARK    2  A    between atoms: C_5  and  S_6
REMARK    3  A    between atoms: S_6  and  C_7
REMARK    4  A    between atoms: C_7  and  C_8
REMARK    5  A    between atoms: N_14  and  C_15
REMARK                            x       y       z     vdW  Elec       q    Type
REMARK                         _______ _______ _______ _____ _____    ______ ____
ROOT
ATOM      1  C   UNL     1       2.332   7.149  19.729  0.00  0.00    +0.000 A 
ATOM      2  N   UNL     1       2.463   7.877  18.649  0.00  0.00    +0.000 NA
ATOM      3  N   UNL     1       2.974   7.063  17.670  0.00  0.00    +0.000 NA
ATOM      4  C   UNL     1       3.134   5.865  18.187  0.00  0.00    +0.000 A 
ATOM      5  N   UNL     1       2.752   5.866  19.516  0.00  0.00    +0.000 N 
ENDROOT
BRANCH   5   6
ATOM      6  C   UNL     1       2.663   4.716  20.378  0.00  0.00    +0.000 C 
ATOM      7  C   UNL     1       3.529   3.431  20.147  0.00  0.00    +0.000 C 
ATOM      8  C   UNL     1       2.555   2.293  20.553  0.00  0.00    +0.000 C 
ATOM      9  C   UNL     1       1.565   2.145  19.427  0.00  0.00    +0.000 C 
ATOM     10  C   UNL     1       0.805   3.251  19.426  0.00  0.00    +0.000 C 
ATOM     11  C   UNL     1       1.247   4.110  20.597  0.00  0.00    +0.000 C 
ATOM     12  C   UNL     1       1.631   2.977  21.564  0.00  0.00    +0.000 C 
ENDBRANCH   5   6
BRANCH   1  13
ATOM     13  O   UNL     1       1.812   7.631  20.839  0.00  0.00    +0.000 OA
ATOM     14  H   UNL     1       2.537   8.187  21.180  0.00  0.00    +0.000 HD
ENDBRANCH   1  13
BRANCH   4  15
ATOM     15  S   UNL     1       3.684   4.465  17.315  0.00  0.00    +0.000 S 
BRANCH  15  16
ATOM     16  C   UNL     1       5.018   5.198  16.312  0.00  0.00    +0.000 C 
BRANCH  16  17
ATOM     17  C   UNL     1       6.152   5.761  17.140  0.00  0.00    +0.000 A 
ATOM     18  C   UNL     1       6.667   7.043  16.888  0.00  0.00    +0.000 A 
ATOM     19  C   UNL     1       7.669   7.582  17.700  0.00  0.00    +0.000 A 
ATOM     20  C   UNL     1       8.171   6.855  18.775  0.00  0.00    +0.000 A 
ATOM     21  C   UNL     1       7.672   5.579  19.037  0.00  0.00    +0.000 A 
ATOM     22  C   UNL     1       6.672   5.036  18.224  0.00  0.00    +0.000 A 
ENDBRANCH  16  17
ENDBRANCH  15  16
ENDBRANCH   4  15
TORSDOF 5
ENDMDL
MODEL 3
REMARK VINA RESULT:      -7.6      2.593      3.731
REMARK  Name = 
REMARK  5 active torsions:
REMARK  status: ('A' for Active; 'I' for Inactive)
REMARK    1  A    between atoms: O_1  and  C_2
REMARK    2  A    between atoms: C_5  and  S_6
REMARK    3  A    between atoms: S_6  and  C_7
REMARK    4  A    between atoms: C_7  and  C_8
REMARK    5  A    between atoms: N_14  and  C_15
REMARK                            x       y       z     vdW  Elec       q    Type
REMARK                         _______ _______ _______ _____ _____    ______ ____
ROOT
ATOM      1  C   UNL     1       3.090   6.740  18.021  0.00  0.00    +0.000 A 
ATOM      2  N   UNL     1       3.920   7.612  17.508  0.00  0.00    +0.000 NA
ATOM      3  N   UNL     1       5.044   6.926  17.124  0.00  0.00    +0.000 NA
ATOM      4  C   UNL     1       4.858   5.657  17.414  0.00  0.00    +0.000 A 
ATOM      5  N   UNL     1       3.622   5.482  18.009  0.00  0.00    +0.000 N 
ENDROOT
BRANCH   5   6
ATOM      6  C   UNL     1       3.012   4.224  18.350  0.00  0.00    +0.000 C 
ATOM      7  C   UNL     1       1.504   3.919  18.054  0.00  0.00    +0.000 C 
ATOM      8  C   UNL     1       1.086   3.068  19.283  0.00  0.00    +0.000 C 
ATOM      9  C   UNL     1       0.936   4.020  20.441  0.00  0.00    +0.000 C 
ATOM     10  C   UNL     1       2.165   4.464  20.745  0.00  0.00    +0.000 C 
ATOM     11  C   UNL     1       3.146   3.756  19.828  0.00  0.00    +0.000 C 
ATOM     12  C   UNL     1       2.402   2.414  19.711  0.00  0.00    +0.000 C 
ENDBRANCH   5   6
BRANCH   1  13
ATOM     13  O   UNL     1       1.887   7.081  18.438  0.00  0.00    +0.000 OA
ATOM     14  H   UNL     1       2.072   7.435  19.328  0.00  0.00    +0.000 HD
ENDBRANCH   1  13
BRANCH   4  15
ATOM     15  S   UNL     1       5.973   4.374  17.047  0.00  0.00    +0.000 S 
BRANCH  15  16
ATOM     16  C   UNL     1       7.054   5.205  15.838  0.00  0.00    +0.000 C 
BRANCH  16  17
ATOM     17  C   UNL     1       6.828   4.745  14.415  0.00  0.00    +0.000 A 
ATOM     18  C   UNL     1       7.686   5.147  13.378  0.00  0.00    +0.000 A 
ATOM     19  C   UNL     1       7.509   4.664  12.078  0.00  0.00    +0.000 A 
ATOM     20  C   UNL     1       6.479   3.774  11.792  0.00  0.00    +0.000 A 
ATOM     21  C   UNL     1       5.617   3.367  12.809  0.00  0.00    +0.000 A 
ATOM     22  C   UNL     1       5.788   3.852  14.110  0.00  0.00    +0.000 A 
ENDBRANCH  16  17
ENDBRANCH  15  16
ENDBRANCH   4  15
TORSDOF 5
ENDMDL
MODEL 4
REMARK VINA RESULT:      -7.6      2.598      3.593
REMARK  Name = 
REMARK  5 active torsions:
REMARK  status: ('A' for Active; 'I' for Inactive)
REMARK    1  A    between atoms: O_1  and  C_2
REMARK    2  A    between atoms: C_5  and  S_6
REMARK    3  A    between atoms: S_6  and  C_7
REMARK    4  A    between atoms: C_7  and  C_8
REMARK    5  A    between atoms: N_14  and  C_15
REMARK                            x       y       z     vdW  Elec       q    Type
REMARK                         _______ _______ _______ _____ _____    ______ ____
ROOT
ATOM      1  C   UNL     1       3.080   6.751  18.003  0.00  0.00    +0.000 A 
ATOM      2  N   UNL     1       3.917   7.606  17.473  0.00  0.00    +0.000 NA
ATOM      3  N   UNL     1       5.032   6.901  17.095  0.00  0.00    +0.000 NA
ATOM      4  C   UNL     1       4.834   5.639  17.405  0.00  0.00    +0.000 A 
ATOM      5  N   UNL     1       3.598   5.487  18.008  0.00  0.00    +0.000 N 
ENDROOT
BRANCH   5   6
ATOM      6  C   UNL     1       2.976   4.241  18.371  0.00  0.00    +0.000 C 
ATOM      7  C   UNL     1       1.464   3.947  18.081  0.00  0.00    +0.000 C 
ATOM      8  C   UNL     1       1.039   3.121  19.325  0.00  0.00    +0.000 C 
ATOM      9  C   UNL     1       0.901   4.093  20.468  0.00  0.00    +0.000 C 
ATOM     10  C   UNL     1       2.136   4.530  20.762  0.00  0.00    +0.000 C 
ATOM     11  C   UNL     1       3.107   3.796  19.856  0.00  0.00    +0.000 C 
ATOM     12  C   UNL     1       2.349   2.460  19.762  0.00  0.00    +0.000 C 
ENDBRANCH   5   6
BRANCH   1  13
ATOM     13  O   UNL     1       1.883   7.111  18.420  0.00  0.00    +0.000 OA
ATOM     14  H   UNL     1       1.335   6.949  17.630  0.00  0.00    +0.000 HD
ENDBRANCH   1  13
BRANCH   4  15
ATOM     15  S   UNL     1       5.932   4.338  17.053  0.00  0.00    +0.000 S 
BRANCH  15  16
ATOM     16  C   UNL     1       7.102   5.180  15.938  0.00  0.00    +0.000 C 
BRANCH  16  17
ATOM     17  C   UNL     1       6.984   4.735  14.497  0.00  0.00    +0.000 A 
ATOM     18  C   UNL     1       6.019   3.793  14.105  0.00  0.00    +0.000 A 
ATOM     19  C   UNL     1       5.874   3.438  12.760  0.00  0.00    +0.000 A 
ATOM     20  C   UNL     1       6.683   4.016  11.788  0.00  0.00    +0.000 A 
ATOM     21  C   UNL     1       7.648   4.951  12.161  0.00  0.00    +0.000 A 
ATOM     22  C   UNL     1       7.799   5.306  13.506  0.00  0.00    +0.000 A 
ENDBRANCH  16  17
ENDBRANCH  15  16
ENDBRANCH   4  15
TORSDOF 5
ENDMDL
MODEL 5
REMARK VINA RESULT:      -7.6      2.704      5.509
REMARK  Name = 
REMARK  5 active torsions:
REMARK  status: ('A' for Active; 'I' for Inactive)
REMARK    1  A    between atoms: O_1  and  C_2
REMARK    2  A    between atoms: C_5  and  S_6
REMARK    3  A    between atoms: S_6  and  C_7
REMARK    4  A    between atoms: C_7  and  C_8
REMARK    5  A    between atoms: N_14  and  C_15
REMARK                            x       y       z     vdW  Elec       q    Type
REMARK                         _______ _______ _______ _____ _____    ______ ____
ROOT
ATOM      1  C   UNL     1       4.143   2.577  20.245  0.00  0.00    +0.000 A 
ATOM      2  N   UNL     1       3.541   2.198  21.342  0.00  0.00    +0.000 NA
ATOM      3  N   UNL     1       2.463   3.027  21.522  0.00  0.00    +0.000 NA
ATOM      4  C   UNL     1       2.444   3.883  20.524  0.00  0.00    +0.000 A 
ATOM      5  N   UNL     1       3.514   3.649  19.679  0.00  0.00    +0.000 N 
ENDROOT
BRANCH   5   6
ATOM      6  C   UNL     1       3.758   4.295  18.415  0.00  0.00    +0.000 C 
ATOM      7  C   UNL     1       4.175   3.495  17.135  0.00  0.00    +0.000 C 
ATOM      8  C   UNL     1       5.168   4.465  16.441  0.00  0.00    +0.000 C 
ATOM      9  C   UNL     1       6.456   4.400  17.220  0.00  0.00    +0.000 C 
ATOM     10  C   UNL     1       6.221   4.961  18.415  0.00  0.00    +0.000 C 
ATOM     11  C   UNL     1       4.788   5.462  18.410  0.00  0.00    +0.000 C 
ATOM     12  C   UNL     1       4.696   5.840  16.922  0.00  0.00    +0.000 C 
ENDBRANCH   5   6
BRANCH   1  13
ATOM     13  O   UNL     1       5.193   1.940  19.767  0.00  0.00    +0.000 OA
ATOM     14  H   UNL     1       4.841   1.041  19.629  0.00  0.00    +0.000 HD
ENDBRANCH   1  13
BRANCH   4  15
ATOM     15  S   UNL     1       1.221   5.091  20.265  0.00  0.00    +0.000 S 
BRANCH  15  16
ATOM     16  C   UNL     1       2.105   6.586  20.813  0.00  0.00    +0.000 C 
BRANCH  16  17
ATOM     17  C   UNL     1       1.800   7.807  19.972  0.00  0.00    +0.000 A 
ATOM     18  C   UNL     1       2.230   7.895  18.638  0.00  0.00    +0.000 A 
ATOM     19  C   UNL     1       1.886   8.996  17.848  0.00  0.00    +0.000 A 
ATOM     20  C   UNL     1       1.109  10.023  18.374  0.00  0.00    +0.000 A 
ATOM     21  C   UNL     1       0.677   9.953  19.698  0.00  0.00    +0.000 A 
ATOM     22  C   UNL     1       1.022   8.854  20.491  0.00  0.00    +0.000 A 
ENDBRANCH  16  17
ENDBRANCH  15  16
ENDBRANCH   4  15
TORSDOF 5
ENDMDL
MODEL 6
REMARK VINA RESULT:      -7.5      1.814      2.800
REMARK  Name = 
REMARK  5 active torsions:
REMARK  status: ('A' for Active; 'I' for Inactive)
REMARK    1  A    between atoms: O_1  and  C_2
REMARK    2  A    between atoms: C_5  and  S_6
REMARK    3  A    between atoms: S_6  and  C_7
REMARK    4  A    between atoms: C_7  and  C_8
REMARK    5  A    between atoms: N_14  and  C_15
REMARK                            x       y       z     vdW  Elec       q    Type
REMARK                         _______ _______ _______ _____ _____    ______ ____
ROOT
ATOM      1  C   UNL     1       1.807   5.537  20.375  0.00  0.00    +0.000 A 
ATOM      2  N   UNL     1       1.611   6.734  20.864  0.00  0.00    +0.000 NA
ATOM      3  N   UNL     1       2.115   7.632  19.957  0.00  0.00    +0.000 NA
ATOM      4  C   UNL     1       2.598   6.949  18.943  0.00  0.00    +0.000 A 
ATOM      5  N   UNL     1       2.441   5.593  19.166  0.00  0.00    +0.000 N 
ENDROOT
BRANCH   5   6
ATOM      6  C   UNL     1       2.730   4.537  18.231  0.00  0.00    +0.000 C 
ATOM      7  C   UNL     1       1.678   3.435  17.864  0.00  0.00    +0.000 C 
ATOM      8  C   UNL     1       2.561   2.169  17.700  0.00  0.00    +0.000 C 
ATOM      9  C   UNL     1       2.938   1.718  19.087  0.00  0.00    +0.000 C 
ATOM     10  C   UNL     1       3.771   2.644  19.588  0.00  0.00    +0.000 C 
ATOM     11  C   UNL     1       4.001   3.683  18.506  0.00  0.00    +0.000 C 
ATOM     12  C   UNL     1       3.917   2.749  17.287  0.00  0.00    +0.000 C 
ENDBRANCH   5   6
BRANCH   1  13
ATOM     13  O   UNL     1       1.382   4.452  20.990  0.00  0.00    +0.000 OA
ATOM     14  H   UNL     1       2.163   4.196  21.515  0.00  0.00    +0.000 HD
ENDBRANCH   1  13
BRANCH   4  15
ATOM     15  S   UNL     1       3.278   7.644  17.502  0.00  0.00    +0.000 S 
BRANCH  15  16
ATOM     16  C   UNL     1       5.056   7.401  17.819  0.00  0.00    +0.000 C 
BRANCH  16  17
ATOM     17  C   UNL     1       5.686   6.350  16.932  0.00  0.00    +0.000 A 
ATOM     18  C   UNL     1       6.795   5.605  17.365  0.00  0.00    +0.000 A 
ATOM     19  C   UNL     1       7.329   4.590  16.566  0.00  0.00    +0.000 A 
ATOM     20  C   UNL     1       6.766   4.300  15.327  0.00  0.00    +0.000 A 
ATOM     21  C   UNL     1       5.666   5.031  14.882  0.00  0.00    +0.000 A 
ATOM     22  C   UNL     1       5.132   6.050  15.677  0.00  0.00    +0.000 A 
ENDBRANCH  16  17
ENDBRANCH  15  16
ENDBRANCH   4  15
TORSDOF 5
ENDMDL
MODEL 7
REMARK VINA RESULT:      -7.5      2.715      5.471
REMARK  Name = 
REMARK  5 active torsions:
REMARK  status: ('A' for Active; 'I' for Inactive)
REMARK    1  A    between atoms: O_1  and  C_2
REMARK    2  A    between atoms: C_5  and  S_6
REMARK    3  A    between atoms: S_6  and  C_7
REMARK    4  A    between atoms: C_7  and  C_8
REMARK    5  A    between atoms: N_14  and  C_15
REMARK                            x       y       z     vdW  Elec       q    Type
REMARK                         _______ _______ _______ _____ _____    ______ ____
ROOT
ATOM      1  C   UNL     1       4.145   2.547  20.263  0.00  0.00    +0.000 A 
ATOM      2  N   UNL     1       3.542   2.174  21.362  0.00  0.00    +0.000 NA
ATOM      3  N   UNL     1       2.453   2.992  21.526  0.00  0.00    +0.000 NA
ATOM      4  C   UNL     1       2.429   3.835  20.518  0.00  0.00    +0.000 A 
ATOM      5  N   UNL     1       3.506   3.604  19.680  0.00  0.00    +0.000 N 
ENDROOT
BRANCH   5   6
ATOM      6  C   UNL     1       3.748   4.238  18.410  0.00  0.00    +0.000 C 
ATOM      7  C   UNL     1       4.191   3.429  17.144  0.00  0.00    +0.000 C 
ATOM      8  C   UNL     1       5.171   4.409  16.446  0.00  0.00    +0.000 C 
ATOM      9  C   UNL     1       6.454   4.380  17.236  0.00  0.00    +0.000 C 
ATOM     10  C   UNL     1       6.197   4.952  18.422  0.00  0.00    +0.000 C 
ATOM     11  C   UNL     1       4.754   5.424  18.398  0.00  0.00    +0.000 C 
ATOM     12  C   UNL     1       4.668   5.781  16.904  0.00  0.00    +0.000 C 
ENDBRANCH   5   6
BRANCH   1  13
ATOM     13  O   UNL     1       5.205   1.917  19.798  0.00  0.00    +0.000 OA
ATOM     14  H   UNL     1       5.908   2.582  19.920  0.00  0.00    +0.000 HD
ENDBRANCH   1  13
BRANCH   4  15
ATOM     15  S   UNL     1       1.192   5.024  20.238  0.00  0.00    +0.000 S 
BRANCH  15  16
ATOM     16  C   UNL     1       2.044   6.533  20.802  0.00  0.00    +0.000 C 
BRANCH  16  17
ATOM     17  C   UNL     1       1.753   7.744  19.943  0.00  0.00    +0.000 A 
ATOM     18  C   UNL     1       1.108   8.873  20.475  0.00  0.00    +0.000 A 
ATOM     19  C   UNL     1       0.903  10.013  19.693  0.00  0.00    +0.000 A 
ATOM     20  C   UNL     1       1.338  10.047  18.372  0.00  0.00    +0.000 A 
ATOM     21  C   UNL     1       1.977   8.934  17.827  0.00  0.00    +0.000 A 
ATOM     22  C   UNL     1       2.180   7.790  18.606  0.00  0.00    +0.000 A 
ENDBRANCH  16  17
ENDBRANCH  15  16
ENDBRANCH   4  15
TORSDOF 5
ENDMDL
MODEL 8
REMARK VINA RESULT:      -7.5      1.796      2.871
REMARK  Name = 
REMARK  5 active torsions:
REMARK  status: ('A' for Active; 'I' for Inactive)
REMARK    1  A    between atoms: O_1  and  C_2
REMARK    2  A    between atoms: C_5  and  S_6
REMARK    3  A    between atoms: S_6  and  C_7
REMARK    4  A    between atoms: C_7  and  C_8
REMARK    5  A    between atoms: N_14  and  C_15
REMARK                            x       y       z     vdW  Elec       q    Type
REMARK                         _______ _______ _______ _____ _____    ______ ____
ROOT
ATOM      1  C   UNL     1       1.795   5.586  20.396  0.00  0.00    +0.000 A 
ATOM      2  N   UNL     1       1.590   6.783  20.882  0.00  0.00    +0.000 NA
ATOM      3  N   UNL     1       2.085   7.682  19.971  0.00  0.00    +0.000 NA
ATOM      4  C   UNL     1       2.571   6.999  18.958  0.00  0.00    +0.000 A 
ATOM      5  N   UNL     1       2.425   5.642  19.186  0.00  0.00    +0.000 N 
ENDROOT
BRANCH   5   6
ATOM      6  C   UNL     1       2.720   4.586  18.253  0.00  0.00    +0.000 C 
ATOM      7  C   UNL     1       1.647   3.528  17.824  0.00  0.00    +0.000 C 
ATOM      8  C   UNL     1       2.491   2.231  17.687  0.00  0.00    +0.000 C 
ATOM      9  C   UNL     1       2.783   1.753  19.086  0.00  0.00    +0.000 C 
ATOM     10  C   UNL     1       3.624   2.642  19.637  0.00  0.00    +0.000 C 
ATOM     11  C   UNL     1       3.944   3.683  18.579  0.00  0.00    +0.000 C 
ATOM     12  C   UNL     1       3.885   2.764  17.346  0.00  0.00    +0.000 C 
ENDBRANCH   5   6
BRANCH   1  13
ATOM     13  O   UNL     1       1.381   4.499  21.016  0.00  0.00    +0.000 OA
ATOM     14  H   UNL     1       1.882   4.537  21.851  0.00  0.00    +0.000 HD
ENDBRANCH   1  13
BRANCH   4  15
ATOM     15  S   UNL     1       3.242   7.695  17.513  0.00  0.00    +0.000 S 
BRANCH  15  16
ATOM     16  C   UNL     1       5.021   7.440  17.812  0.00  0.00    +0.000 C 
BRANCH  16  17
ATOM     17  C   UNL     1       5.616   6.325  16.980  0.00  0.00    +0.000 A 
ATOM     18  C   UNL     1       5.127   6.038  15.695  0.00  0.00    +0.000 A 
ATOM     19  C   UNL     1       5.727   5.051  14.907  0.00  0.00    +0.000 A 
ATOM     20  C   UNL     1       6.822   4.338  15.385  0.00  0.00    +0.000 A 
ATOM     21  C   UNL     1       7.318   4.609  16.660  0.00  0.00    +0.000 A 
ATOM     22  C   UNL     1       6.718   5.593  17.452  0.00  0.00    +0.000 A 
ENDBRANCH  16  17
ENDBRANCH  15  16
ENDBRANCH   4  15
TORSDOF 5
ENDMDL
MODEL 9
REMARK VINA RESULT:      -7.3      3.981      5.355
REMARK  Name = 
REMARK  5 active torsions:
REMARK  status: ('A' for Active; 'I' for Inactive)
REMARK    1  A    between atoms: O_1  and  C_2
REMARK    2  A    between atoms: C_5  and  S_6
REMARK    3  A    between atoms: S_6  and  C_7
REMARK    4  A    between atoms: C_7  and  C_8
REMARK    5  A    between atoms: N_14  and  C_15
REMARK                            x       y       z     vdW  Elec       q    Type
REMARK                         _______ _______ _______ _____ _____    ______ ____
ROOT
ATOM      1  C   UNL     1       6.520   4.778  18.541  0.00  0.00    +0.000 A 
ATOM      2  N   UNL     1       7.707   4.706  17.996  0.00  0.00    +0.000 NA
ATOM      3  N   UNL     1       7.542   4.857  16.642  0.00  0.00    +0.000 NA
ATOM      4  C   UNL     1       6.258   5.019  16.410  0.00  0.00    +0.000 A 
ATOM      5  N   UNL     1       5.550   4.961  17.597  0.00  0.00    +0.000 N 
ENDROOT
BRANCH   5   6
ATOM      6  C   UNL     1       4.144   5.221  17.762  0.00  0.00    +0.000 C 
ATOM      7  C   UNL     1       3.577   5.988  19.005  0.00  0.00    +0.000 C 
ATOM      8  C   UNL     1       2.231   5.258  19.265  0.00  0.00    +0.000 C 
ATOM      9  C   UNL     1       2.569   3.937  19.906  0.00  0.00    +0.000 C 
ATOM     10  C   UNL     1       3.179   3.192  18.971  0.00  0.00    +0.000 C 
ATOM     11  C   UNL     1       3.189   3.994  17.683  0.00  0.00    +0.000 C 
ATOM     12  C   UNL     1       1.853   4.733  17.877  0.00  0.00    +0.000 C 
ENDBRANCH   5   6
BRANCH   1  13
ATOM     13  O   UNL     1       6.345   4.723  19.846  0.00  0.00    +0.000 OA
ATOM     14  H   UNL     1       5.380   4.604  19.918  0.00  0.00    +0.000 HD
ENDBRANCH   1  13
BRANCH   4  15
ATOM     15  S   UNL     1       5.556   5.325  14.849  0.00  0.00    +0.000 S 
BRANCH  15  16
ATOM     16  C   UNL     1       6.901   4.761  13.759  0.00  0.00    +0.000 C 
BRANCH  16  17
ATOM     17  C   UNL     1       6.469   3.701  12.770  0.00  0.00    +0.000 A 
ATOM     18  C   UNL     1       5.112   3.503  12.465  0.00  0.00    +0.000 A 
ATOM     19  C   UNL     1       4.726   2.568  11.500  0.00  0.00    +0.000 A 
ATOM     20  C   UNL     1       5.683   1.819  10.824  0.00  0.00    +0.000 A 
ATOM     21  C   UNL     1       7.034   2.002  11.116  0.00  0.00    +0.000 A 
ATOM     22  C   UNL     1       7.424   2.934  12.083  0.00  0.00    +0.000 A 
ENDBRANCH  16  17
ENDBRANCH  15  16
ENDBRANCH   4  15
TORSDOF 5
ENDMDL
