MODEL 1
REMARK VINA RESULT:      -8.8      0.000      0.000
REMARK  Name = 
REMARK  3 active torsions:
REMARK  status: ('A' for Active; 'I' for Inactive)
REMARK    1  A    between atoms: C_1  and  C_2
REMARK    2  A    between atoms: C_7  and  C_8
REMARK    3  A    between atoms: C_10  and  C_11
REMARK                            x       y       z     vdW  Elec       q    Type
REMARK                         _______ _______ _______ _____ _____    ______ ____
ROOT
ATOM      1  C   UNL     1       4.812   5.102  18.612  0.00  0.00    +0.000 C 
ATOM      2  C   UNL     1       4.293   6.531  18.540  0.00  0.00    +0.000 C 
ATOM      3  C   UNL     1       2.805   6.648  18.364  0.00  0.00    +0.000 C 
ATOM      4  N   UNL     1       2.048   5.660  18.006  0.00  0.00    +0.000 NA
ATOM      5  N   UNL     1       2.591   4.434  17.815  0.00  0.00    +0.000 N 
ATOM      6  C   UNL     1       3.884   4.062  18.036  0.00  0.00    +0.000 C 
ATOM      7  O   UNL     1       4.254   2.913  17.803  0.00  0.00    +0.000 OA
ATOM      8  H   UNL     1       1.960   3.720  17.463  0.00  0.00    +0.000 HD
ENDROOT
BRANCH   3   9
ATOM      9  C   UNL     1       2.170   7.956  18.526  0.00  0.00    +0.000 A 
ATOM     10  C   UNL     1       2.056   8.917  17.531  0.00  0.00    +0.000 A 
ATOM     11  N   UNL     1       1.386   9.997  18.040  0.00  0.00    +0.000 N 
ATOM     12  C   UNL     1       1.056   9.774  19.355  0.00  0.00    +0.000 A 
ATOM     13  C   UNL     1       0.372  10.594  20.258  0.00  0.00    +0.000 A 
ATOM     14  C   UNL     1       0.178  10.110  21.556  0.00  0.00    +0.000 A 
ATOM     15  C   UNL     1       0.651   8.853  21.931  0.00  0.00    +0.000 A 
ATOM     16  C   UNL     1       1.326   8.049  21.010  0.00  0.00    +0.000 A 
ATOM     17  C   UNL     1       1.539   8.508  19.693  0.00  0.00    +0.000 A 
ATOM     18  H   UNL     1       1.163  10.838  17.528  0.00  0.00    +0.000 HD
ENDBRANCH   3   9
BRANCH   1  25
ATOM     19  C   UNL     1       5.739   5.344  15.453  0.00  0.00    +0.000 C 
ATOM     20  C   UNL     1       6.452   5.676  16.720  0.00  0.00    +0.000 C 
ATOM     21  N   UNL     1       7.345   6.616  16.808  0.00  0.00    +0.000 NA
ATOM     22  N   UNL     1       7.806   6.584  18.094  0.00  0.00    +0.000 N 
ATOM     23  C   UNL     1       7.236   5.610  18.896  0.00  0.00    +0.000 C 
ATOM     24  O   UNL     1       7.468   5.393  20.071  0.00  0.00    +0.000 OA
ATOM     25  C   UNL     1       6.217   4.929  18.018  0.00  0.00    +0.000 C 
ATOM     26  H   UNL     1       8.528   7.225  18.403  0.00  0.00    +0.000 HD
ENDBRANCH   1  25
TORSDOF 2
ENDMDL
MODEL 2
REMARK VINA RESULT:      -8.1      3.276      6.971
REMARK  Name = 
REMARK  3 active torsions:
REMARK  status: ('A' for Active; 'I' for Inactive)
REMARK    1  A    between atoms: C_1  and  C_2
REMARK    2  A    between atoms: C_7  and  C_8
REMARK    3  A    between atoms: C_10  and  C_11
REMARK                            x       y       z     vdW  Elec       q    Type
REMARK                         _______ _______ _______ _____ _____    ______ ____
ROOT
ATOM      1  C   UNL     1       4.195   4.616  18.821  0.00  0.00    +0.000 C 
ATOM      2  C   UNL     1       4.930   4.301  17.525  0.00  0.00    +0.000 C 
ATOM      3  C   UNL     1       5.247   5.501  16.677  0.00  0.00    +0.000 C 
ATOM      4  N   UNL     1       4.703   6.663  16.854  0.00  0.00    +0.000 NA
ATOM      5  N   UNL     1       3.832   6.849  17.873  0.00  0.00    +0.000 N 
ATOM      6  C   UNL     1       3.491   5.949  18.840  0.00  0.00    +0.000 C 
ATOM      7  O   UNL     1       2.667   6.241  19.705  0.00  0.00    +0.000 OA
ATOM      8  H   UNL     1       3.384   7.760  17.913  0.00  0.00    +0.000 HD
ENDROOT
BRANCH   3   9
ATOM      9  C   UNL     1       6.156   5.349  15.541  0.00  0.00    +0.000 A 
ATOM     10  C   UNL     1       7.429   5.896  15.460  0.00  0.00    +0.000 A 
ATOM     11  N   UNL     1       7.989   5.526  14.267  0.00  0.00    +0.000 N 
ATOM     12  C   UNL     1       7.111   4.748  13.552  0.00  0.00    +0.000 A 
ATOM     13  C   UNL     1       7.261   4.152  12.296  0.00  0.00    +0.000 A 
ATOM     14  C   UNL     1       6.187   3.407  11.798  0.00  0.00    +0.000 A 
ATOM     15  C   UNL     1       5.010   3.267  12.533  0.00  0.00    +0.000 A 
ATOM     16  C   UNL     1       4.885   3.866  13.788  0.00  0.00    +0.000 A 
ATOM     17  C   UNL     1       5.950   4.624  14.319  0.00  0.00    +0.000 A 
ATOM     18  H   UNL     1       8.914   5.783  13.952  0.00  0.00    +0.000 HD
ENDBRANCH   3   9
BRANCH   1  25
ATOM     19  C   UNL     1       1.201   3.926  17.612  0.00  0.00    +0.000 C 
ATOM     20  C   UNL     1       2.262   3.048  18.183  0.00  0.00    +0.000 C 
ATOM     21  N   UNL     1       2.434   1.812  17.820  0.00  0.00    +0.000 NA
ATOM     22  N   UNL     1       3.450   1.326  18.592  0.00  0.00    +0.000 N 
ATOM     23  C   UNL     1       3.977   2.227  19.501  0.00  0.00    +0.000 C 
ATOM     24  O   UNL     1       4.891   2.038  20.283  0.00  0.00    +0.000 OA
ATOM     25  C   UNL     1       3.224   3.511  19.260  0.00  0.00    +0.000 C 
ATOM     26  H   UNL     1       3.761   0.365  18.499  0.00  0.00    +0.000 HD
ENDBRANCH   1  25
TORSDOF 2
ENDMDL
MODEL 3
REMARK VINA RESULT:      -8.1      1.124      1.852
REMARK  Name = 
REMARK  3 active torsions:
REMARK  status: ('A' for Active; 'I' for Inactive)
REMARK    1  A    between atoms: C_1  and  C_2
REMARK    2  A    between atoms: C_7  and  C_8
REMARK    3  A    between atoms: C_10  and  C_11
REMARK                            x       y       z     vdW  Elec       q    Type
REMARK                         _______ _______ _______ _____ _____    ______ ____
ROOT
ATOM      1  C   UNL     1       5.093   4.680  18.473  0.00  0.00    +0.000 C 
ATOM      2  C   UNL     1       4.413   5.958  18.946  0.00  0.00    +0.000 C 
ATOM      3  C   UNL     1       2.912   5.890  18.986  0.00  0.00    +0.000 C 
ATOM      4  N   UNL     1       2.224   4.961  18.402  0.00  0.00    +0.000 NA
ATOM      5  N   UNL     1       2.863   3.961  17.751  0.00  0.00    +0.000 N 
ATOM      6  C   UNL     1       4.208   3.746  17.688  0.00  0.00    +0.000 C 
ATOM      7  O   UNL     1       4.663   2.804  17.041  0.00  0.00    +0.000 OA
ATOM      8  H   UNL     1       2.268   3.306  17.251  0.00  0.00    +0.000 HD
ENDROOT
BRANCH   3   9
ATOM      9  C   UNL     1       2.169   6.962  19.649  0.00  0.00    +0.000 A 
ATOM     10  C   UNL     1       1.577   6.866  20.901  0.00  0.00    +0.000 A 
ATOM     11  N   UNL     1       0.994   8.067  21.202  0.00  0.00    +0.000 N 
ATOM     12  C   UNL     1       1.182   8.957  20.173  0.00  0.00    +0.000 A 
ATOM     13  C   UNL     1       0.766  10.287  20.051  0.00  0.00    +0.000 A 
ATOM     14  C   UNL     1       1.096  10.966  18.873  0.00  0.00    +0.000 A 
ATOM     15  C   UNL     1       1.815  10.333  17.859  0.00  0.00    +0.000 A 
ATOM     16  C   UNL     1       2.225   9.007  18.005  0.00  0.00    +0.000 A 
ATOM     17  C   UNL     1       1.908   8.294  19.180  0.00  0.00    +0.000 A 
ATOM     18  H   UNL     1       0.496   8.276  22.056  0.00  0.00    +0.000 HD
ENDBRANCH   3   9
BRANCH   1  25
ATOM     19  C   UNL     1       5.466   5.829  15.401  0.00  0.00    +0.000 C 
ATOM     20  C   UNL     1       6.305   5.989  16.624  0.00  0.00    +0.000 C 
ATOM     21  N   UNL     1       7.037   7.038  16.852  0.00  0.00    +0.000 NA
ATOM     22  N   UNL     1       7.691   6.798  18.027  0.00  0.00    +0.000 N 
ATOM     23  C   UNL     1       7.418   5.572  18.609  0.00  0.00    +0.000 C 
ATOM     24  O   UNL     1       7.862   5.136  19.656  0.00  0.00    +0.000 OA
ATOM     25  C   UNL     1       6.398   4.928  17.704  0.00  0.00    +0.000 C 
ATOM     26  H   UNL     1       8.339   7.477  18.409  0.00  0.00    +0.000 HD
ENDBRANCH   1  25
TORSDOF 2
ENDMDL
MODEL 4
REMARK VINA RESULT:      -8.0      1.988      3.876
REMARK  Name = 
REMARK  3 active torsions:
REMARK  status: ('A' for Active; 'I' for Inactive)
REMARK    1  A    between atoms: C_1  and  C_2
REMARK    2  A    between atoms: C_7  and  C_8
REMARK    3  A    between atoms: C_10  and  C_11
REMARK                            x       y       z     vdW  Elec       q    Type
REMARK                         _______ _______ _______ _____ _____    ______ ____
ROOT
ATOM      1  C   UNL     1       2.797   4.864  17.936  0.00  0.00    +0.000 C 
ATOM      2  C   UNL     1       2.081   6.050  18.567  0.00  0.00    +0.000 C 
ATOM      3  C   UNL     1       2.668   7.391  18.222  0.00  0.00    +0.000 C 
ATOM      4  N   UNL     1       3.840   7.541  17.691  0.00  0.00    +0.000 NA
ATOM      5  N   UNL     1       4.580   6.452  17.378  0.00  0.00    +0.000 N 
ATOM      6  C   UNL     1       4.207   5.145  17.481  0.00  0.00    +0.000 C 
ATOM      7  O   UNL     1       4.988   4.244  17.178  0.00  0.00    +0.000 OA
ATOM      8  H   UNL     1       5.518   6.637  17.034  0.00  0.00    +0.000 HD
ENDROOT
BRANCH   3   9
ATOM      9  C   UNL     1       1.926   8.603  18.568  0.00  0.00    +0.000 A 
ATOM     10  C   UNL     1       1.658   9.650  17.697  0.00  0.00    +0.000 A 
ATOM     11  N   UNL     1       0.924  10.595  18.362  0.00  0.00    +0.000 N 
ATOM     12  C   UNL     1       0.704  10.199  19.659  0.00  0.00    +0.000 A 
ATOM     13  C   UNL     1       0.007  10.843  20.686  0.00  0.00    +0.000 A 
ATOM     14  C   UNL     1      -0.055  10.205  21.929  0.00  0.00    +0.000 A 
ATOM     15  C   UNL     1       0.558   8.968  22.131  0.00  0.00    +0.000 A 
ATOM     16  C   UNL     1       1.242   8.341  21.089  0.00  0.00    +0.000 A 
ATOM     17  C   UNL     1       1.324   8.959  19.823  0.00  0.00    +0.000 A 
ATOM     18  H   UNL     1       0.590  11.460  17.963  0.00  0.00    +0.000 HD
ENDBRANCH   3   9
BRANCH   1  25
ATOM     19  C   UNL     1       2.228   4.629  21.180  0.00  0.00    +0.000 C 
ATOM     20  C   UNL     1       1.915   3.704  20.052  0.00  0.00    +0.000 C 
ATOM     21  N   UNL     1       0.893   2.900  20.055  0.00  0.00    +0.000 NA
ATOM     22  N   UNL     1       0.970   2.185  18.893  0.00  0.00    +0.000 N 
ATOM     23  C   UNL     1       2.055   2.489  18.088  0.00  0.00    +0.000 C 
ATOM     24  O   UNL     1       2.330   2.002  17.007  0.00  0.00    +0.000 OA
ATOM     25  C   UNL     1       2.775   3.600  18.808  0.00  0.00    +0.000 C 
ATOM     26  H   UNL     1       0.279   1.476  18.673  0.00  0.00    +0.000 HD
ENDBRANCH   1  25
TORSDOF 2
ENDMDL
MODEL 5
REMARK VINA RESULT:      -8.0      1.704      2.145
REMARK  Name = 
REMARK  3 active torsions:
REMARK  status: ('A' for Active; 'I' for Inactive)
REMARK    1  A    between atoms: C_1  and  C_2
REMARK    2  A    between atoms: C_7  and  C_8
REMARK    3  A    between atoms: C_10  and  C_11
REMARK                            x       y       z     vdW  Elec       q    Type
REMARK                         _______ _______ _______ _____ _____    ______ ____
ROOT
ATOM      1  C   UNL     1       4.070   4.895  19.556  0.00  0.00    +0.000 C 
ATOM      2  C   UNL     1       3.584   6.162  18.865  0.00  0.00    +0.000 C 
ATOM      3  C   UNL     1       2.366   6.785  19.487  0.00  0.00    +0.000 C 
ATOM      4  N   UNL     1       1.606   6.173  20.338  0.00  0.00    +0.000 NA
ATOM      5  N   UNL     1       1.924   4.920  20.742  0.00  0.00    +0.000 N 
ATOM      6  C   UNL     1       3.039   4.207  20.414  0.00  0.00    +0.000 C 
ATOM      7  O   UNL     1       3.199   3.064  20.838  0.00  0.00    +0.000 OA
ATOM      8  H   UNL     1       1.251   4.466  21.353  0.00  0.00    +0.000 HD
ENDROOT
BRANCH   3   9
ATOM      9  C   UNL     1       1.957   8.124  19.063  0.00  0.00    +0.000 A 
ATOM     10  C   UNL     1       2.236   8.690  17.827  0.00  0.00    +0.000 A 
ATOM     11  N   UNL     1       1.677   9.939  17.781  0.00  0.00    +0.000 N 
ATOM     12  C   UNL     1       1.036  10.216  18.964  0.00  0.00    +0.000 A 
ATOM     13  C   UNL     1       0.332  11.359  19.355  0.00  0.00    +0.000 A 
ATOM     14  C   UNL     1      -0.222  11.373  20.640  0.00  0.00    +0.000 A 
ATOM     15  C   UNL     1      -0.075  10.282  21.496  0.00  0.00    +0.000 A 
ATOM     16  C   UNL     1       0.627   9.148  21.081  0.00  0.00    +0.000 A 
ATOM     17  C   UNL     1       1.198   9.103  19.792  0.00  0.00    +0.000 A 
ATOM     18  H   UNL     1       1.725  10.570  16.994  0.00  0.00    +0.000 HD
ENDBRANCH   3   9
BRANCH   1  25
ATOM     19  C   UNL     1       2.620   3.169  17.145  0.00  0.00    +0.000 C 
ATOM     20  C   UNL     1       3.996   3.730  17.268  0.00  0.00    +0.000 C 
ATOM     21  N   UNL     1       4.702   4.113  16.246  0.00  0.00    +0.000 NA
ATOM     22  N   UNL     1       5.910   4.510  16.746  0.00  0.00    +0.000 N 
ATOM     23  C   UNL     1       6.044   4.391  18.118  0.00  0.00    +0.000 C 
ATOM     24  O   UNL     1       7.011   4.691  18.794  0.00  0.00    +0.000 OA
ATOM     25  C   UNL     1       4.709   3.880  18.598  0.00  0.00    +0.000 C 
ATOM     26  H   UNL     1       6.643   4.844  16.129  0.00  0.00    +0.000 HD
ENDBRANCH   1  25
TORSDOF 2
ENDMDL
MODEL 6
REMARK VINA RESULT:      -7.8      2.106      3.877
REMARK  Name = 
REMARK  3 active torsions:
REMARK  status: ('A' for Active; 'I' for Inactive)
REMARK    1  A    between atoms: C_1  and  C_2
REMARK    2  A    between atoms: C_7  and  C_8
REMARK    3  A    between atoms: C_10  and  C_11
REMARK                            x       y       z     vdW  Elec       q    Type
REMARK                         _______ _______ _______ _____ _____    ______ ____
ROOT
ATOM      1  C   UNL     1       2.545   4.104  17.839  0.00  0.00    +0.000 C 
ATOM      2  C   UNL     1       2.016   5.391  18.457  0.00  0.00    +0.000 C 
ATOM      3  C   UNL     1       2.733   6.637  18.018  0.00  0.00    +0.000 C 
ATOM      4  N   UNL     1       3.877   6.625  17.412  0.00  0.00    +0.000 NA
ATOM      5  N   UNL     1       4.463   5.444  17.105  0.00  0.00    +0.000 N 
ATOM      6  C   UNL     1       3.946   4.196  17.289  0.00  0.00    +0.000 C 
ATOM      7  O   UNL     1       4.594   3.197  16.981  0.00  0.00    +0.000 OA
ATOM      8  H   UNL     1       5.392   5.502  16.698  0.00  0.00    +0.000 HD
ENDROOT
BRANCH   3   9
ATOM      9  C   UNL     1       2.162   7.942  18.352  0.00  0.00    +0.000 A 
ATOM     10  C   UNL     1       2.012   8.998  17.464  0.00  0.00    +0.000 A 
ATOM     11  N   UNL     1       1.423  10.043  18.123  0.00  0.00    +0.000 N 
ATOM     12  C   UNL     1       1.183   9.704  19.432  0.00  0.00    +0.000 A 
ATOM     13  C   UNL     1       0.599  10.453  20.459  0.00  0.00    +0.000 A 
ATOM     14  C   UNL     1       0.483   9.851  21.717  0.00  0.00    +0.000 A 
ATOM     15  C   UNL     1       0.935   8.550  21.933  0.00  0.00    +0.000 A 
ATOM     16  C   UNL     1       1.509   7.818  20.891  0.00  0.00    +0.000 A 
ATOM     17  C   UNL     1       1.641   8.396  19.611  0.00  0.00    +0.000 A 
ATOM     18  H   UNL     1       1.194  10.936  17.711  0.00  0.00    +0.000 HD
ENDBRANCH   3   9
BRANCH   1  25
ATOM     19  C   UNL     1       4.458   3.305  20.408  0.00  0.00    +0.000 C 
ATOM     20  C   UNL     1       3.004   3.091  20.154  0.00  0.00    +0.000 C 
ATOM     21  N   UNL     1       2.117   3.043  21.103  0.00  0.00    +0.000 NA
ATOM     22  N   UNL     1       0.922   2.781  20.493  0.00  0.00    +0.000 N 
ATOM     23  C   UNL     1       0.985   2.638  19.118  0.00  0.00    +0.000 C 
ATOM     24  O   UNL     1       0.062   2.419  18.356  0.00  0.00    +0.000 OA
ATOM     25  C   UNL     1       2.430   2.886  18.766  0.00  0.00    +0.000 C 
ATOM     26  H   UNL     1       0.072   2.684  21.037  0.00  0.00    +0.000 HD
ENDBRANCH   1  25
TORSDOF 2
ENDMDL
MODEL 7
REMARK VINA RESULT:      -7.7      3.334      7.203
REMARK  Name = 
REMARK  3 active torsions:
REMARK  status: ('A' for Active; 'I' for Inactive)
REMARK    1  A    between atoms: C_1  and  C_2
REMARK    2  A    between atoms: C_7  and  C_8
REMARK    3  A    between atoms: C_10  and  C_11
REMARK                            x       y       z     vdW  Elec       q    Type
REMARK                         _______ _______ _______ _____ _____    ______ ____
ROOT
ATOM      1  C   UNL     1       3.354   3.671  18.101  0.00  0.00    +0.000 C 
ATOM      2  C   UNL     1       4.095   4.392  16.984  0.00  0.00    +0.000 C 
ATOM      3  C   UNL     1       5.593   4.331  17.085  0.00  0.00    +0.000 C 
ATOM      4  N   UNL     1       6.222   3.969  18.158  0.00  0.00    +0.000 NA
ATOM      5  N   UNL     1       5.520   3.578  19.247  0.00  0.00    +0.000 N 
ATOM      6  C   UNL     1       4.168   3.432  19.348  0.00  0.00    +0.000 C 
ATOM      7  O   UNL     1       3.652   3.084  20.409  0.00  0.00    +0.000 OA
ATOM      8  H   UNL     1       6.067   3.378  20.080  0.00  0.00    +0.000 HD
ENDROOT
BRANCH   3   9
ATOM      9  C   UNL     1       6.402   4.773  15.949  0.00  0.00    +0.000 A 
ATOM     10  C   UNL     1       7.426   5.707  16.014  0.00  0.00    +0.000 A 
ATOM     11  N   UNL     1       7.968   5.850  14.765  0.00  0.00    +0.000 N 
ATOM     12  C   UNL     1       7.321   5.032  13.871  0.00  0.00    +0.000 A 
ATOM     13  C   UNL     1       7.541   4.851  12.502  0.00  0.00    +0.000 A 
ATOM     14  C   UNL     1       6.717   3.945  11.825  0.00  0.00    +0.000 A 
ATOM     15  C   UNL     1       5.712   3.250  12.498  0.00  0.00    +0.000 A 
ATOM     16  C   UNL     1       5.515   3.443  13.867  0.00  0.00    +0.000 A 
ATOM     17  C   UNL     1       6.329   4.349  14.578  0.00  0.00    +0.000 A 
ATOM     18  H   UNL     1       8.734   6.464  14.529  0.00  0.00    +0.000 HD
ENDBRANCH   3   9
BRANCH   1  25
ATOM     19  C   UNL     1       0.494   2.198  18.841  0.00  0.00    +0.000 C 
ATOM     20  C   UNL     1       1.107   3.467  19.329  0.00  0.00    +0.000 C 
ATOM     21  N   UNL     1       0.895   3.947  20.518  0.00  0.00    +0.000 NA
ATOM     22  N   UNL     1       1.574   5.132  20.576  0.00  0.00    +0.000 N 
ATOM     23  C   UNL     1       2.249   5.477  19.418  0.00  0.00    +0.000 C 
ATOM     24  O   UNL     1       2.931   6.468  19.229  0.00  0.00    +0.000 OA
ATOM     25  C   UNL     1       2.016   4.326  18.473  0.00  0.00    +0.000 C 
ATOM     26  H   UNL     1       1.548   5.705  21.412  0.00  0.00    +0.000 HD
ENDBRANCH   1  25
TORSDOF 2
ENDMDL
MODEL 8
REMARK VINA RESULT:      -7.6      2.809      6.467
REMARK  Name = 
REMARK  3 active torsions:
REMARK  status: ('A' for Active; 'I' for Inactive)
REMARK    1  A    between atoms: C_1  and  C_2
REMARK    2  A    between atoms: C_7  and  C_8
REMARK    3  A    between atoms: C_10  and  C_11
REMARK                            x       y       z     vdW  Elec       q    Type
REMARK                         _______ _______ _______ _____ _____    ______ ____
ROOT
ATOM      1  C   UNL     1       2.778   5.217  20.023  0.00  0.00    +0.000 C 
ATOM      2  C   UNL     1       3.795   4.962  18.919  0.00  0.00    +0.000 C 
ATOM      3  C   UNL     1       4.321   6.203  18.254  0.00  0.00    +0.000 C 
ATOM      4  N   UNL     1       3.767   7.367  18.375  0.00  0.00    +0.000 NA
ATOM      5  N   UNL     1       2.682   7.514  19.171  0.00  0.00    +0.000 N 
ATOM      6  C   UNL     1       2.108   6.567  19.966  0.00  0.00    +0.000 C 
ATOM      7  O   UNL     1       1.107   6.828  20.630  0.00  0.00    +0.000 OA
ATOM      8  H   UNL     1       2.249   8.434  19.165  0.00  0.00    +0.000 HD
ENDROOT
BRANCH   3   9
ATOM      9  C   UNL     1       5.473   6.097  17.357  0.00  0.00    +0.000 A 
ATOM     10  C   UNL     1       6.688   6.741  17.540  0.00  0.00    +0.000 A 
ATOM     11  N   UNL     1       7.528   6.387  16.518  0.00  0.00    +0.000 N 
ATOM     12  C   UNL     1       6.893   5.524  15.659  0.00  0.00    +0.000 A 
ATOM     13  C   UNL     1       7.366   4.911  14.494  0.00  0.00    +0.000 A 
ATOM     14  C   UNL     1       6.488   4.070  13.800  0.00  0.00    +0.000 A 
ATOM     15  C   UNL     1       5.189   3.855  14.259  0.00  0.00    +0.000 A 
ATOM     16  C   UNL     1       4.741   4.473  15.429  0.00  0.00    +0.000 A 
ATOM     17  C   UNL     1       5.601   5.327  16.151  0.00  0.00    +0.000 A 
ATOM     18  H   UNL     1       8.479   6.709  16.408  0.00  0.00    +0.000 HD
ENDBRANCH   3   9
BRANCH   1  25
ATOM     19  C   UNL     1       1.061   3.759  17.609  0.00  0.00    +0.000 C 
ATOM     20  C   UNL     1       1.566   3.242  18.914  0.00  0.00    +0.000 C 
ATOM     21  N   UNL     1       1.897   2.000  19.107  0.00  0.00    +0.000 NA
ATOM     22  N   UNL     1       2.254   1.901  20.422  0.00  0.00    +0.000 N 
ATOM     23  C   UNL     1       2.160   3.078  21.144  0.00  0.00    +0.000 C 
ATOM     24  O   UNL     1       2.434   3.247  22.318  0.00  0.00    +0.000 OA
ATOM     25  C   UNL     1       1.716   4.115  20.144  0.00  0.00    +0.000 C 
ATOM     26  H   UNL     1       2.543   1.013  20.817  0.00  0.00    +0.000 HD
ENDBRANCH   1  25
TORSDOF 2
ENDMDL
MODEL 9
REMARK VINA RESULT:      -7.4      3.331      6.575
REMARK  Name = 
REMARK  3 active torsions:
REMARK  status: ('A' for Active; 'I' for Inactive)
REMARK    1  A    between atoms: C_1  and  C_2
REMARK    2  A    between atoms: C_7  and  C_8
REMARK    3  A    between atoms: C_10  and  C_11
REMARK                            x       y       z     vdW  Elec       q    Type
REMARK                         _______ _______ _______ _____ _____    ______ ____
ROOT
ATOM      1  C   UNL     1       4.075   4.149  19.721  0.00  0.00    +0.000 C 
ATOM      2  C   UNL     1       4.966   4.133  18.487  0.00  0.00    +0.000 C 
ATOM      3  C   UNL     1       5.002   5.427  17.724  0.00  0.00    +0.000 C 
ATOM      4  N   UNL     1       4.145   6.383  17.899  0.00  0.00    +0.000 NA
ATOM      5  N   UNL     1       3.181   6.256  18.841  0.00  0.00    +0.000 N 
ATOM      6  C   UNL     1       3.029   5.235  19.732  0.00  0.00    +0.000 C 
ATOM      7  O   UNL     1       2.093   5.234  20.529  0.00  0.00    +0.000 OA
ATOM      8  H   UNL     1       2.496   7.006  18.878  0.00  0.00    +0.000 HD
ENDROOT
BRANCH   3   9
ATOM      9  C   UNL     1       6.003   5.606  16.672  0.00  0.00    +0.000 A 
ATOM     10  C   UNL     1       7.123   6.419  16.766  0.00  0.00    +0.000 A 
ATOM     11  N   UNL     1       7.837   6.317  15.602  0.00  0.00    +0.000 N 
ATOM     12  C   UNL     1       7.210   5.455  14.736  0.00  0.00    +0.000 A 
ATOM     13  C   UNL     1       7.581   5.052  13.449  0.00  0.00    +0.000 A 
ATOM     14  C   UNL     1       6.740   4.155  12.781  0.00  0.00    +0.000 A 
ATOM     15  C   UNL     1       5.574   3.682  13.383  0.00  0.00    +0.000 A 
ATOM     16  C   UNL     1       5.228   4.093  14.672  0.00  0.00    +0.000 A 
ATOM     17  C   UNL     1       6.054   4.997  15.372  0.00  0.00    +0.000 A 
ATOM     18  H   UNL     1       8.701   6.801  15.404  0.00  0.00    +0.000 HD
ENDBRANCH   3   9
BRANCH   1  25
ATOM     19  C   UNL     1       1.500   2.745  18.205  0.00  0.00    +0.000 C 
ATOM     20  C   UNL     1       2.714   2.156  18.840  0.00  0.00    +0.000 C 
ATOM     21  N   UNL     1       3.252   1.040  18.446  0.00  0.00    +0.000 NA
ATOM     22  N   UNL     1       4.298   0.803  19.293  0.00  0.00    +0.000 N 
ATOM     23  C   UNL     1       4.477   1.753  20.284  0.00  0.00    +0.000 C 
ATOM     24  O   UNL     1       5.341   1.772  21.141  0.00  0.00    +0.000 OA
ATOM     25  C   UNL     1       3.418   2.794  20.022  0.00  0.00    +0.000 C 
ATOM     26  H   UNL     1       4.870  -0.028  19.192  0.00  0.00    +0.000 HD
ENDBRANCH   1  25
TORSDOF 2
ENDMDL
