MODEL 1
REMARK VINA RESULT:      -7.3      0.000      0.000
REMARK  Name = 
REMARK  8 active torsions:
REMARK  status: ('A' for Active; 'I' for Inactive)
REMARK    1  A    between atoms: C_1  and  N_2
REMARK    2  A    between atoms: C_8  and  N_9
REMARK    3  A    between atoms: N_9  and  C_10
REMARK    4  A    between atoms: C_18  and  C_19
REMARK    5  A    between atoms: N_21  and  O_22
REMARK    6  A    between atoms: O_22  and  C_23
REMARK    7  A    between atoms: C_23  and  C_24
REMARK    8  A    between atoms: C_24  and  O_25
REMARK                            x       y       z     vdW  Elec       q    Type
REMARK                         _______ _______ _______ _____ _____    ______ ____
ROOT
ATOM      1  C   UNL     1       3.032   1.516  18.591  0.00  0.00    +0.000 C 
ATOM      2  N   UNL     1       2.488   2.563  19.426  0.00  0.00    +0.000 N 
ATOM      3  C   UNL     1       1.821   2.392  20.601  0.00  0.00    +0.000 A 
ATOM      4  N   UNL     1       1.421   3.544  21.092  0.00  0.00    +0.000 NA
ATOM      5  C   UNL     1       1.897   4.515  20.230  0.00  0.00    +0.000 A 
ATOM      6  C   UNL     1       1.813   5.927  20.258  0.00  0.00    +0.000 A 
ATOM      7  F   UNL     1       1.170   6.517  21.284  0.00  0.00    +0.000 F 
ATOM      8  C   UNL     1       2.490   6.743  19.297  0.00  0.00    +0.000 A 
ATOM      9  C   UNL     1       3.262   6.073  18.307  0.00  0.00    +0.000 A 
ATOM     10  C   UNL     1       3.261   4.653  18.224  0.00  0.00    +0.000 A 
ATOM     11  C   UNL     1       2.601   3.913  19.196  0.00  0.00    +0.000 A 
ENDROOT
BRANCH   9  12
ATOM     12  C   UNL     1       4.213   6.646  17.291  0.00  0.00    +0.000 C 
ATOM     13  O   UNL     1       4.114   7.852  17.051  0.00  0.00    +0.000 OA
ATOM     14  N   UNL     1       5.192   5.844  16.763  0.00  0.00    +0.000 N 
ATOM     15  H   UNL     1       5.367   4.958  17.234  0.00  0.00    +0.000 HD
BRANCH  14  16
ATOM     16  O   UNL     1       6.436   6.482  16.441  0.00  0.00    +0.000 OA
BRANCH  16  17
ATOM     17  C   UNL     1       7.411   6.544  17.502  0.00  0.00    +0.000 C 
BRANCH  17  18
ATOM     18  C   UNL     1       7.573   5.135  18.097  0.00  0.00    +0.000 C 
BRANCH  18  19
ATOM     19  O   UNL     1       7.969   4.185  17.104  0.00  0.00    +0.000 OA
ATOM     20  H   UNL     1       8.853   4.459  16.799  0.00  0.00    +0.000 HD
ENDBRANCH  18  19
ENDBRANCH  17  18
ENDBRANCH  16  17
ENDBRANCH  14  16
ENDBRANCH   9  12
BRANCH   8  21
ATOM     21  N   UNL     1       2.453   8.165  19.441  0.00  0.00    +0.000 N 
ATOM     22  H   UNL     1       3.316   8.619  19.153  0.00  0.00    +0.000 HD
BRANCH  21  23
ATOM     23  C   UNL     1       1.374   9.075  19.217  0.00  0.00    +0.000 A 
ATOM     24  C   UNL     1       0.927   9.263  17.898  0.00  0.00    +0.000 A 
ATOM     25  C   UNL     1      -0.289   9.905  17.615  0.00  0.00    +0.000 A 
ATOM     26  C   UNL     1      -1.079  10.376  18.658  0.00  0.00    +0.000 A 
ATOM     27 BR   UNL     1      -2.799  11.079  18.290  0.00  0.00    +0.000 Br
ATOM     28  C   UNL     1      -0.634  10.271  19.972  0.00  0.00    +0.000 A 
ATOM     29  C   UNL     1       0.585   9.628  20.241  0.00  0.00    +0.000 A 
ATOM     30  F   UNL     1       0.937   9.473  21.523  0.00  0.00    +0.000 F 
ENDBRANCH  21  23
ENDBRANCH   8  21
TORSDOF 7
ENDMDL
MODEL 2
REMARK VINA RESULT:      -7.1      1.283      1.590
REMARK  Name = 
REMARK  8 active torsions:
REMARK  status: ('A' for Active; 'I' for Inactive)
REMARK    1  A    between atoms: C_1  and  N_2
REMARK    2  A    between atoms: C_8  and  N_9
REMARK    3  A    between atoms: N_9  and  C_10
REMARK    4  A    between atoms: C_18  and  C_19
REMARK    5  A    between atoms: N_21  and  O_22
REMARK    6  A    between atoms: O_22  and  C_23
REMARK    7  A    between atoms: C_23  and  C_24
REMARK    8  A    between atoms: C_24  and  O_25
REMARK                            x       y       z     vdW  Elec       q    Type
REMARK                         _______ _______ _______ _____ _____    ______ ____
ROOT
ATOM      1  C   UNL     1       3.453   1.536  17.722  0.00  0.00    +0.000 C 
ATOM      2  N   UNL     1       2.792   2.373  18.698  0.00  0.00    +0.000 N 
ATOM      3  C   UNL     1       2.062   1.944  19.765  0.00  0.00    +0.000 A 
ATOM      4  N   UNL     1       1.562   2.957  20.435  0.00  0.00    +0.000 NA
ATOM      5  C   UNL     1       2.033   4.099  19.814  0.00  0.00    +0.000 A 
ATOM      6  C   UNL     1       1.862   5.474  20.106  0.00  0.00    +0.000 A 
ATOM      7  F   UNL     1       1.118   5.820  21.175  0.00  0.00    +0.000 F 
ATOM      8  C   UNL     1       2.549   6.492  19.374  0.00  0.00    +0.000 A 
ATOM      9  C   UNL     1       3.423   6.067  18.335  0.00  0.00    +0.000 A 
ATOM     10  C   UNL     1       3.514   4.692  17.982  0.00  0.00    +0.000 A 
ATOM     11  C   UNL     1       2.838   3.745  18.741  0.00  0.00    +0.000 A 
ENDROOT
BRANCH   9  12
ATOM     12  C   UNL     1       4.402   6.872  17.524  0.00  0.00    +0.000 C 
ATOM     13  O   UNL     1       4.183   8.081  17.423  0.00  0.00    +0.000 OA
ATOM     14  N   UNL     1       5.523   6.258  17.025  0.00  0.00    +0.000 N 
ATOM     15  H   UNL     1       5.752   5.340  17.402  0.00  0.00    +0.000 HD
BRANCH  14  16
ATOM     16  O   UNL     1       6.707   7.063  16.941  0.00  0.00    +0.000 OA
BRANCH  16  17
ATOM     17  C   UNL     1       7.633   6.949  18.041  0.00  0.00    +0.000 C 
BRANCH  17  18
ATOM     18  C   UNL     1       7.617   5.495  18.543  0.00  0.00    +0.000 C 
BRANCH  18  19
ATOM     19  O   UNL     1       6.887   5.367  19.766  0.00  0.00    +0.000 OA
ATOM     20  H   UNL     1       6.657   6.272  20.045  0.00  0.00    +0.000 HD
ENDBRANCH  18  19
ENDBRANCH  17  18
ENDBRANCH  16  17
ENDBRANCH  14  16
ENDBRANCH   9  12
BRANCH   8  21
ATOM     21  N   UNL     1       2.417   7.856  19.785  0.00  0.00    +0.000 N 
ATOM     22  H   UNL     1       3.247   8.412  19.598  0.00  0.00    +0.000 HD
BRANCH  21  23
ATOM     23  C   UNL     1       1.278   8.718  19.727  0.00  0.00    +0.000 A 
ATOM     24  C   UNL     1       0.627   9.040  20.930  0.00  0.00    +0.000 A 
ATOM     25  C   UNL     1      -0.306  10.086  21.007  0.00  0.00    +0.000 A 
ATOM     26  C   UNL     1      -0.608  10.827  19.870  0.00  0.00    +0.000 A 
ATOM     27 BR   UNL     1      -1.726  12.349  20.008  0.00  0.00    +0.000 Br
ATOM     28  C   UNL     1      -0.035  10.491  18.647  0.00  0.00    +0.000 A 
ATOM     29  C   UNL     1       0.895   9.441  18.583  0.00  0.00    +0.000 A 
ATOM     30  F   UNL     1       1.486   9.204  17.406  0.00  0.00    +0.000 F 
ENDBRANCH  21  23
ENDBRANCH   8  21
TORSDOF 7
ENDMDL
MODEL 3
REMARK VINA RESULT:      -6.7      1.108      1.363
REMARK  Name = 
REMARK  8 active torsions:
REMARK  status: ('A' for Active; 'I' for Inactive)
REMARK    1  A    between atoms: C_1  and  N_2
REMARK    2  A    between atoms: C_8  and  N_9
REMARK    3  A    between atoms: N_9  and  C_10
REMARK    4  A    between atoms: C_18  and  C_19
REMARK    5  A    between atoms: N_21  and  O_22
REMARK    6  A    between atoms: O_22  and  C_23
REMARK    7  A    between atoms: C_23  and  C_24
REMARK    8  A    between atoms: C_24  and  O_25
REMARK                            x       y       z     vdW  Elec       q    Type
REMARK                         _______ _______ _______ _____ _____    ______ ____
ROOT
ATOM      1  C   UNL     1       2.939   1.718  18.018  0.00  0.00    +0.000 C 
ATOM      2  N   UNL     1       2.392   2.671  18.957  0.00  0.00    +0.000 N 
ATOM      3  C   UNL     1       1.719   2.377  20.104  0.00  0.00    +0.000 A 
ATOM      4  N   UNL     1       1.320   3.470  20.713  0.00  0.00    +0.000 NA
ATOM      5  C   UNL     1       1.802   4.527  19.963  0.00  0.00    +0.000 A 
ATOM      6  C   UNL     1       1.721   5.928  20.142  0.00  0.00    +0.000 A 
ATOM      7  F   UNL     1       1.073   6.406  21.222  0.00  0.00    +0.000 F 
ATOM      8  C   UNL     1       2.404   6.841  19.279  0.00  0.00    +0.000 A 
ATOM      9  C   UNL     1       3.180   6.279  18.226  0.00  0.00    +0.000 A 
ATOM     10  C   UNL     1       3.177   4.876  17.991  0.00  0.00    +0.000 A 
ATOM     11  C   UNL     1       2.510   4.038  18.875  0.00  0.00    +0.000 A 
ENDROOT
BRANCH   9  12
ATOM     12  C   UNL     1       4.138   6.956  17.283  0.00  0.00    +0.000 C 
ATOM     13  O   UNL     1       3.689   7.874  16.594  0.00  0.00    +0.000 OA
ATOM     14  N   UNL     1       5.462   6.596  17.301  0.00  0.00    +0.000 N 
ATOM     15  H   UNL     1       5.778   6.041  18.094  0.00  0.00    +0.000 HD
BRANCH  14  16
ATOM     16  O   UNL     1       6.409   7.636  17.020  0.00  0.00    +0.000 OA
BRANCH  16  17
ATOM     17  C   UNL     1       7.677   7.542  17.702  0.00  0.00    +0.000 C 
BRANCH  17  18
ATOM     18  C   UNL     1       8.219   8.964  17.921  0.00  0.00    +0.000 C 
BRANCH  18  19
ATOM     19  O   UNL     1       8.967   9.062  19.137  0.00  0.00    +0.000 OA
ATOM     20  H   UNL     1       8.384   8.733  19.845  0.00  0.00    +0.000 HD
ENDBRANCH  18  19
ENDBRANCH  17  18
ENDBRANCH  16  17
ENDBRANCH  14  16
ENDBRANCH   9  12
BRANCH   8  21
ATOM     21  N   UNL     1       2.370   8.239  19.574  0.00  0.00    +0.000 N 
ATOM     22  H   UNL     1       3.257   8.706  19.405  0.00  0.00    +0.000 HD
BRANCH  21  23
ATOM     23  C   UNL     1       1.321   9.188  19.369  0.00  0.00    +0.000 A 
ATOM     24  C   UNL     1       0.902   9.439  18.051  0.00  0.00    +0.000 A 
ATOM     25  C   UNL     1      -0.291  10.126  17.774  0.00  0.00    +0.000 A 
ATOM     26  C   UNL     1      -1.086  10.578  18.821  0.00  0.00    +0.000 A 
ATOM     27 BR   UNL     1      -2.779  11.343  18.454  0.00  0.00    +0.000 Br
ATOM     28  C   UNL     1      -0.667  10.409  20.137  0.00  0.00    +0.000 A 
ATOM     29  C   UNL     1       0.529   9.723  20.401  0.00  0.00    +0.000 A 
ATOM     30  F   UNL     1       0.854   9.507  21.681  0.00  0.00    +0.000 F 
ENDBRANCH  21  23
ENDBRANCH   8  21
TORSDOF 7
ENDMDL
MODEL 4
REMARK VINA RESULT:      -6.7      1.229      1.546
REMARK  Name = 
REMARK  8 active torsions:
REMARK  status: ('A' for Active; 'I' for Inactive)
REMARK    1  A    between atoms: C_1  and  N_2
REMARK    2  A    between atoms: C_8  and  N_9
REMARK    3  A    between atoms: N_9  and  C_10
REMARK    4  A    between atoms: C_18  and  C_19
REMARK    5  A    between atoms: N_21  and  O_22
REMARK    6  A    between atoms: O_22  and  C_23
REMARK    7  A    between atoms: C_23  and  C_24
REMARK    8  A    between atoms: C_24  and  O_25
REMARK                            x       y       z     vdW  Elec       q    Type
REMARK                         _______ _______ _______ _____ _____    ______ ____
ROOT
ATOM      1  C   UNL     1       3.056   1.579  18.454  0.00  0.00    +0.000 C 
ATOM      2  N   UNL     1       2.513   2.550  19.377  0.00  0.00    +0.000 N 
ATOM      3  C   UNL     1       1.915   2.280  20.571  0.00  0.00    +0.000 A 
ATOM      4  N   UNL     1       1.495   3.382  21.152  0.00  0.00    +0.000 NA
ATOM      5  C   UNL     1       1.887   4.422  20.330  0.00  0.00    +0.000 A 
ATOM      6  C   UNL     1       1.749   5.826  20.450  0.00  0.00    +0.000 A 
ATOM      7  F   UNL     1       1.135   6.324  21.540  0.00  0.00    +0.000 F 
ATOM      8  C   UNL     1       2.342   6.726  19.510  0.00  0.00    +0.000 A 
ATOM      9  C   UNL     1       3.088   6.151  18.444  0.00  0.00    +0.000 A 
ATOM     10  C   UNL     1       3.140   4.740  18.273  0.00  0.00    +0.000 A 
ATOM     11  C   UNL     1       2.561   3.915  19.228  0.00  0.00    +0.000 A 
ENDROOT
BRANCH   9  12
ATOM     12  C   UNL     1       3.963   6.825  17.421  0.00  0.00    +0.000 C 
ATOM     13  O   UNL     1       3.954   8.058  17.404  0.00  0.00    +0.000 OA
ATOM     14  N   UNL     1       4.787   6.059  16.636  0.00  0.00    +0.000 N 
ATOM     15  H   UNL     1       4.929   5.093  16.921  0.00  0.00    +0.000 HD
BRANCH  14  16
ATOM     16  O   UNL     1       6.040   6.650  16.261  0.00  0.00    +0.000 OA
BRANCH  16  17
ATOM     17  C   UNL     1       7.183   5.770  16.264  0.00  0.00    +0.000 C 
BRANCH  17  18
ATOM     18  C   UNL     1       6.705   4.351  16.620  0.00  0.00    +0.000 C 
BRANCH  18  19
ATOM     19  O   UNL     1       6.160   3.678  15.482  0.00  0.00    +0.000 OA
ATOM     20  H   UNL     1       6.004   2.757  15.756  0.00  0.00    +0.000 HD
ENDBRANCH  18  19
ENDBRANCH  17  18
ENDBRANCH  16  17
ENDBRANCH  14  16
ENDBRANCH   9  12
BRANCH   8  21
ATOM     21  N   UNL     1       2.256   8.134  19.744  0.00  0.00    +0.000 N 
ATOM     22  H   UNL     1       3.073   8.644  19.419  0.00  0.00    +0.000 HD
BRANCH  21  23
ATOM     23  C   UNL     1       1.125   9.004  19.660  0.00  0.00    +0.000 A 
ATOM     24  C   UNL     1       0.482   9.374  20.854  0.00  0.00    +0.000 A 
ATOM     25  C   UNL     1      -0.442  10.430  20.898  0.00  0.00    +0.000 A 
ATOM     26  C   UNL     1      -0.742  11.133  19.737  0.00  0.00    +0.000 A 
ATOM     27 BR   UNL     1      -1.847  12.668  19.826  0.00  0.00    +0.000 Br
ATOM     28  C   UNL     1      -0.179  10.748  18.524  0.00  0.00    +0.000 A 
ATOM     29  C   UNL     1       0.742   9.689  18.493  0.00  0.00    +0.000 A 
ATOM     30  F   UNL     1       1.325   9.405  17.322  0.00  0.00    +0.000 F 
ENDBRANCH  21  23
ENDBRANCH   8  21
TORSDOF 7
ENDMDL
MODEL 5
REMARK VINA RESULT:      -6.7      3.328      5.311
REMARK  Name = 
REMARK  8 active torsions:
REMARK  status: ('A' for Active; 'I' for Inactive)
REMARK    1  A    between atoms: C_1  and  N_2
REMARK    2  A    between atoms: C_8  and  N_9
REMARK    3  A    between atoms: N_9  and  C_10
REMARK    4  A    between atoms: C_18  and  C_19
REMARK    5  A    between atoms: N_21  and  O_22
REMARK    6  A    between atoms: O_22  and  C_23
REMARK    7  A    between atoms: C_23  and  C_24
REMARK    8  A    between atoms: C_24  and  O_25
REMARK                            x       y       z     vdW  Elec       q    Type
REMARK                         _______ _______ _______ _____ _____    ______ ____
ROOT
ATOM      1  C   UNL     1       6.163   3.003  13.517  0.00  0.00    +0.000 C 
ATOM      2  N   UNL     1       6.328   4.117  14.423  0.00  0.00    +0.000 N 
ATOM      3  C   UNL     1       7.189   5.161  14.268  0.00  0.00    +0.000 A 
ATOM      4  N   UNL     1       7.121   5.987  15.288  0.00  0.00    +0.000 NA
ATOM      5  C   UNL     1       6.133   5.492  16.118  0.00  0.00    +0.000 A 
ATOM      6  C   UNL     1       5.595   5.970  17.337  0.00  0.00    +0.000 A 
ATOM      7  F   UNL     1       6.079   7.117  17.852  0.00  0.00    +0.000 F 
ATOM      8  C   UNL     1       4.480   5.337  17.971  0.00  0.00    +0.000 A 
ATOM      9  C   UNL     1       3.924   4.200  17.319  0.00  0.00    +0.000 A 
ATOM     10  C   UNL     1       4.531   3.667  16.148  0.00  0.00    +0.000 A 
ATOM     11  C   UNL     1       5.600   4.335  15.568  0.00  0.00    +0.000 A 
ENDROOT
BRANCH   9  12
ATOM     12  C   UNL     1       2.663   3.443  17.635  0.00  0.00    +0.000 C 
ATOM     13  O   UNL     1       2.707   2.215  17.531  0.00  0.00    +0.000 OA
ATOM     14  N   UNL     1       1.572   4.127  18.110  0.00  0.00    +0.000 N 
ATOM     15  H   UNL     1       1.729   5.081  18.427  0.00  0.00    +0.000 HD
BRANCH  14  16
ATOM     16  O   UNL     1       0.739   3.428  19.045  0.00  0.00    +0.000 OA
BRANCH  16  17
ATOM     17  C   UNL     1       0.864   3.823  20.426  0.00  0.00    +0.000 C 
BRANCH  17  18
ATOM     18  C   UNL     1       1.372   2.616  21.234  0.00  0.00    +0.000 C 
BRANCH  18  19
ATOM     19  O   UNL     1       2.429   2.985  22.125  0.00  0.00    +0.000 OA
ATOM     20  H   UNL     1       2.953   2.179  22.278  0.00  0.00    +0.000 HD
ENDBRANCH  18  19
ENDBRANCH  17  18
ENDBRANCH  16  17
ENDBRANCH  14  16
ENDBRANCH   9  12
BRANCH   8  21
ATOM     21  N   UNL     1       3.916   5.928  19.144  0.00  0.00    +0.000 N 
ATOM     22  H   UNL     1       4.607   6.136  19.859  0.00  0.00    +0.000 HD
BRANCH  21  23
ATOM     23  C   UNL     1       2.850   6.874  19.264  0.00  0.00    +0.000 A 
ATOM     24  C   UNL     1       2.200   6.986  20.505  0.00  0.00    +0.000 A 
ATOM     25  C   UNL     1       1.350   8.064  20.798  0.00  0.00    +0.000 A 
ATOM     26  C   UNL     1       1.134   9.051  19.843  0.00  0.00    +0.000 A 
ATOM     27 BR   UNL     1       0.135  10.595  20.297  0.00  0.00    +0.000 Br
ATOM     28  C   UNL     1       1.705   8.936  18.579  0.00  0.00    +0.000 A 
ATOM     29  C   UNL     1       2.551   7.851  18.298  0.00  0.00    +0.000 A 
ATOM     30  F   UNL     1       3.148   7.821  17.101  0.00  0.00    +0.000 F 
ENDBRANCH  21  23
ENDBRANCH   8  21
TORSDOF 7
ENDMDL
MODEL 6
REMARK VINA RESULT:      -6.4      2.531      4.519
REMARK  Name = 
REMARK  8 active torsions:
REMARK  status: ('A' for Active; 'I' for Inactive)
REMARK    1  A    between atoms: C_1  and  N_2
REMARK    2  A    between atoms: C_8  and  N_9
REMARK    3  A    between atoms: N_9  and  C_10
REMARK    4  A    between atoms: C_18  and  C_19
REMARK    5  A    between atoms: N_21  and  O_22
REMARK    6  A    between atoms: O_22  and  C_23
REMARK    7  A    between atoms: C_23  and  C_24
REMARK    8  A    between atoms: C_24  and  O_25
REMARK                            x       y       z     vdW  Elec       q    Type
REMARK                         _______ _______ _______ _____ _____    ______ ____
ROOT
ATOM      1  C   UNL     1       7.832   4.388  17.904  0.00  0.00    +0.000 C 
ATOM      2  N   UNL     1       6.915   5.410  17.452  0.00  0.00    +0.000 N 
ATOM      3  C   UNL     1       7.089   6.231  16.379  0.00  0.00    +0.000 A 
ATOM      4  N   UNL     1       6.090   7.076  16.261  0.00  0.00    +0.000 NA
ATOM      5  C   UNL     1       5.196   6.757  17.267  0.00  0.00    +0.000 A 
ATOM      6  C   UNL     1       3.933   7.292  17.614  0.00  0.00    +0.000 A 
ATOM      7  F   UNL     1       3.433   8.302  16.875  0.00  0.00    +0.000 F 
ATOM      8  C   UNL     1       3.126   6.717  18.645  0.00  0.00    +0.000 A 
ATOM      9  C   UNL     1       3.646   5.571  19.311  0.00  0.00    +0.000 A 
ATOM     10  C   UNL     1       4.957   5.099  19.026  0.00  0.00    +0.000 A 
ATOM     11  C   UNL     1       5.687   5.687  18.001  0.00  0.00    +0.000 A 
ENDROOT
BRANCH   9  12
ATOM     12  C   UNL     1       2.971   4.652  20.294  0.00  0.00    +0.000 C 
ATOM     13  O   UNL     1       2.175   5.166  21.083  0.00  0.00    +0.000 OA
ATOM     14  N   UNL     1       3.192   3.301  20.208  0.00  0.00    +0.000 N 
ATOM     15  H   UNL     1       3.632   2.959  19.356  0.00  0.00    +0.000 HD
BRANCH  14  16
ATOM     16  O   UNL     1       2.094   2.452  20.569  0.00  0.00    +0.000 OA
BRANCH  16  17
ATOM     17  C   UNL     1       1.284   1.963  19.480  0.00  0.00    +0.000 C 
BRANCH  17  18
ATOM     18  C   UNL     1       2.061   2.163  18.167  0.00  0.00    +0.000 C 
BRANCH  18  19
ATOM     19  O   UNL     1       1.597   3.311  17.451  0.00  0.00    +0.000 OA
ATOM     20  H   UNL     1       1.096   2.974  16.687  0.00  0.00    +0.000 HD
ENDBRANCH  18  19
ENDBRANCH  17  18
ENDBRANCH  16  17
ENDBRANCH  14  16
ENDBRANCH   9  12
BRANCH   8  21
ATOM     21  N   UNL     1       1.815   7.237  18.877  0.00  0.00    +0.000 N 
ATOM     22  H   UNL     1       1.174   6.549  19.264  0.00  0.00    +0.000 HD
BRANCH  21  23
ATOM     23  C   UNL     1       1.417   8.529  19.342  0.00  0.00    +0.000 A 
ATOM     24  C   UNL     1       1.040   9.490  18.389  0.00  0.00    +0.000 A 
ATOM     25  C   UNL     1       0.374  10.670  18.755  0.00  0.00    +0.000 A 
ATOM     26  C   UNL     1       0.078  10.910  20.093  0.00  0.00    +0.000 A 
ATOM     27 BR   UNL     1      -0.976  12.409  20.568  0.00  0.00    +0.000 Br
ATOM     28  C   UNL     1       0.500  10.014  21.070  0.00  0.00    +0.000 A 
ATOM     29  C   UNL     1       1.166   8.838  20.691  0.00  0.00    +0.000 A 
ATOM     30  F   UNL     1       1.480   7.963  21.654  0.00  0.00    +0.000 F 
ENDBRANCH  21  23
ENDBRANCH   8  21
TORSDOF 7
ENDMDL
MODEL 7
REMARK VINA RESULT:      -6.3      5.182      9.107
REMARK  Name = 
REMARK  8 active torsions:
REMARK  status: ('A' for Active; 'I' for Inactive)
REMARK    1  A    between atoms: C_1  and  N_2
REMARK    2  A    between atoms: C_8  and  N_9
REMARK    3  A    between atoms: N_9  and  C_10
REMARK    4  A    between atoms: C_18  and  C_19
REMARK    5  A    between atoms: N_21  and  O_22
REMARK    6  A    between atoms: O_22  and  C_23
REMARK    7  A    between atoms: C_23  and  C_24
REMARK    8  A    between atoms: C_24  and  O_25
REMARK                            x       y       z     vdW  Elec       q    Type
REMARK                         _______ _______ _______ _____ _____    ______ ____
ROOT
ATOM      1  C   UNL     1      -5.335  12.913  19.609  0.00  0.00    +0.000 C 
ATOM      2  N   UNL     1      -4.387  12.158  18.822  0.00  0.00    +0.000 N 
ATOM      3  C   UNL     1      -4.569  11.719  17.545  0.00  0.00    +0.000 A 
ATOM      4  N   UNL     1      -3.532  11.028  17.128  0.00  0.00    +0.000 NA
ATOM      5  C   UNL     1      -2.607  11.065  18.156  0.00  0.00    +0.000 A 
ATOM      6  C   UNL     1      -1.300  10.535  18.272  0.00  0.00    +0.000 A 
ATOM      7  F   UNL     1      -0.783   9.856  17.230  0.00  0.00    +0.000 F 
ATOM      8  C   UNL     1      -0.476  10.800  19.410  0.00  0.00    +0.000 A 
ATOM      9  C   UNL     1      -1.024  11.629  20.428  0.00  0.00    +0.000 A 
ATOM     10  C   UNL     1      -2.372  12.076  20.352  0.00  0.00    +0.000 A 
ATOM     11  C   UNL     1      -3.119  11.804  19.214  0.00  0.00    +0.000 A 
ENDROOT
BRANCH   9  12
ATOM     12  C   UNL     1      -0.352  12.225  21.637  0.00  0.00    +0.000 C 
ATOM     13  O   UNL     1       0.841  12.514  21.526  0.00  0.00    +0.000 OA
ATOM     14  N   UNL     1      -1.103  12.504  22.750  0.00  0.00    +0.000 N 
ATOM     15  H   UNL     1      -2.115  12.495  22.639  0.00  0.00    +0.000 HD
BRANCH  14  16
ATOM     16  O   UNL     1      -0.704  13.649  23.517  0.00  0.00    +0.000 OA
BRANCH  16  17
ATOM     17  C   UNL     1      -1.759  14.552  23.907  0.00  0.00    +0.000 C 
BRANCH  17  18
ATOM     18  C   UNL     1      -3.103  13.816  23.778  0.00  0.00    +0.000 C 
BRANCH  18  19
ATOM     19  O   UNL     1      -3.882  13.928  24.973  0.00  0.00    +0.000 OA
ATOM     20  H   UNL     1      -4.700  14.394  24.725  0.00  0.00    +0.000 HD
ENDBRANCH  18  19
ENDBRANCH  17  18
ENDBRANCH  16  17
ENDBRANCH  14  16
ENDBRANCH   9  12
BRANCH   8  21
ATOM     21  N   UNL     1       0.873  10.324  19.421  0.00  0.00    +0.000 N 
ATOM     22  H   UNL     1       1.470  10.830  20.068  0.00  0.00    +0.000 HD
BRANCH  21  23
ATOM     23  C   UNL     1       1.367   8.988  19.307  0.00  0.00    +0.000 A 
ATOM     24  C   UNL     1       2.100   8.647  18.157  0.00  0.00    +0.000 A 
ATOM     25  C   UNL     1       2.856   7.466  18.087  0.00  0.00    +0.000 A 
ATOM     26  C   UNL     1       2.885   6.600  19.174  0.00  0.00    +0.000 A 
ATOM     27 BR   UNL     1       4.043   5.101  19.151  0.00  0.00    +0.000 Br
ATOM     28  C   UNL     1       2.116   6.870  20.302  0.00  0.00    +0.000 A 
ATOM     29  C   UNL     1       1.363   8.054  20.359  0.00  0.00    +0.000 A 
ATOM     30  F   UNL     1       0.704   8.318  21.493  0.00  0.00    +0.000 F 
ENDBRANCH  21  23
ENDBRANCH   8  21
TORSDOF 7
ENDMDL
MODEL 8
REMARK VINA RESULT:      -6.1      5.692      9.522
REMARK  Name = 
REMARK  8 active torsions:
REMARK  status: ('A' for Active; 'I' for Inactive)
REMARK    1  A    between atoms: C_1  and  N_2
REMARK    2  A    between atoms: C_8  and  N_9
REMARK    3  A    between atoms: N_9  and  C_10
REMARK    4  A    between atoms: C_18  and  C_19
REMARK    5  A    between atoms: N_21  and  O_22
REMARK    6  A    between atoms: O_22  and  C_23
REMARK    7  A    between atoms: C_23  and  C_24
REMARK    8  A    between atoms: C_24  and  O_25
REMARK                            x       y       z     vdW  Elec       q    Type
REMARK                         _______ _______ _______ _____ _____    ______ ____
ROOT
ATOM      1  C   UNL     1      -6.289  12.700  19.228  0.00  0.00    +0.000 C 
ATOM      2  N   UNL     1      -5.212  12.084  18.485  0.00  0.00    +0.000 N 
ATOM      3  C   UNL     1      -5.289  11.584  17.220  0.00  0.00    +0.000 A 
ATOM      4  N   UNL     1      -4.144  11.057  16.848  0.00  0.00    +0.000 NA
ATOM      5  C   UNL     1      -3.265  11.273  17.892  0.00  0.00    +0.000 A 
ATOM      6  C   UNL     1      -1.893  10.964  18.052  0.00  0.00    +0.000 A 
ATOM      7  F   UNL     1      -1.247  10.346  17.044  0.00  0.00    +0.000 F 
ATOM      8  C   UNL     1      -1.151  11.392  19.198  0.00  0.00    +0.000 A 
ATOM      9  C   UNL     1      -1.850  12.152  20.176  0.00  0.00    +0.000 A 
ATOM     10  C   UNL     1      -3.250  12.374  20.058  0.00  0.00    +0.000 A 
ATOM     11  C   UNL     1      -3.914  11.951  18.914  0.00  0.00    +0.000 A 
ENDROOT
BRANCH   9  12
ATOM     12  C   UNL     1      -1.314  12.883  21.378  0.00  0.00    +0.000 C 
ATOM     13  O   UNL     1      -0.364  13.646  21.188  0.00  0.00    +0.000 OA
ATOM     14  N   UNL     1      -1.951  12.747  22.585  0.00  0.00    +0.000 N 
ATOM     15  H   UNL     1      -2.879  12.328  22.571  0.00  0.00    +0.000 HD
BRANCH  14  16
ATOM     16  O   UNL     1      -1.943  13.896  23.443  0.00  0.00    +0.000 OA
BRANCH  16  17
ATOM     17  C   UNL     1      -3.050  14.012  24.360  0.00  0.00    +0.000 C 
BRANCH  17  18
ATOM     18  C   UNL     1      -3.885  12.722  24.282  0.00  0.00    +0.000 C 
BRANCH  18  19
ATOM     19  O   UNL     1      -4.594  12.479  25.500  0.00  0.00    +0.000 OA
ATOM     20  H   UNL     1      -5.314  11.861  25.280  0.00  0.00    +0.000 HD
ENDBRANCH  18  19
ENDBRANCH  17  18
ENDBRANCH  16  17
ENDBRANCH  14  16
ENDBRANCH   9  12
BRANCH   8  21
ATOM     21  N   UNL     1       0.256  11.139  19.251  0.00  0.00    +0.000 N 
ATOM     22  H   UNL     1       0.787  11.915  19.639  0.00  0.00    +0.000 HD
BRANCH  21  23
ATOM     23  C   UNL     1       0.953   9.927  19.550  0.00  0.00    +0.000 A 
ATOM     24  C   UNL     1       0.765   9.349  20.817  0.00  0.00    +0.000 A 
ATOM     25  C   UNL     1       1.173   8.035  21.096  0.00  0.00    +0.000 A 
ATOM     26  C   UNL     1       1.784   7.277  20.104  0.00  0.00    +0.000 A 
ATOM     27 BR   UNL     1       2.171   5.450  20.421  0.00  0.00    +0.000 Br
ATOM     28  C   UNL     1       2.049   7.841  18.860  0.00  0.00    +0.000 A 
ATOM     29  C   UNL     1       1.638   9.156  18.594  0.00  0.00    +0.000 A 
ATOM     30  F   UNL     1       1.836   9.633  17.359  0.00  0.00    +0.000 F 
ENDBRANCH  21  23
ENDBRANCH   8  21
TORSDOF 7
ENDMDL
MODEL 9
REMARK VINA RESULT:      -6.1      5.039      8.795
REMARK  Name = 
REMARK  8 active torsions:
REMARK  status: ('A' for Active; 'I' for Inactive)
REMARK    1  A    between atoms: C_1  and  N_2
REMARK    2  A    between atoms: C_8  and  N_9
REMARK    3  A    between atoms: N_9  and  C_10
REMARK    4  A    between atoms: C_18  and  C_19
REMARK    5  A    between atoms: N_21  and  O_22
REMARK    6  A    between atoms: O_22  and  C_23
REMARK    7  A    between atoms: C_23  and  C_24
REMARK    8  A    between atoms: C_24  and  O_25
REMARK                            x       y       z     vdW  Elec       q    Type
REMARK                         _______ _______ _______ _____ _____    ______ ____
ROOT
ATOM      1  C   UNL     1      -5.672  12.914  19.228  0.00  0.00    +0.000 C 
ATOM      2  N   UNL     1      -4.759  12.072  18.490  0.00  0.00    +0.000 N 
ATOM      3  C   UNL     1      -5.024  11.426  17.320  0.00  0.00    +0.000 A 
ATOM      4  N   UNL     1      -3.993  10.710  16.929  0.00  0.00    +0.000 NA
ATOM      5  C   UNL     1      -2.992  10.942  17.853  0.00  0.00    +0.000 A 
ATOM      6  C   UNL     1      -1.657  10.479  17.937  0.00  0.00    +0.000 A 
ATOM      7  F   UNL     1      -1.196   9.657  16.975  0.00  0.00    +0.000 F 
ATOM      8  C   UNL     1      -0.755  10.951  18.942  0.00  0.00    +0.000 A 
ATOM      9  C   UNL     1      -1.256  11.916  19.860  0.00  0.00    +0.000 A 
ATOM     10  C   UNL     1      -2.624  12.303  19.832  0.00  0.00    +0.000 A 
ATOM     11  C   UNL     1      -3.448  11.826  18.821  0.00  0.00    +0.000 A 
ENDROOT
BRANCH   9  12
ATOM     12  C   UNL     1      -0.516  12.721  20.895  0.00  0.00    +0.000 C 
ATOM     13  O   UNL     1       0.519  12.228  21.350  0.00  0.00    +0.000 OA
ATOM     14  N   UNL     1      -0.961  13.980  21.209  0.00  0.00    +0.000 N 
ATOM     15  H   UNL     1      -1.643  14.398  20.580  0.00  0.00    +0.000 HD
BRANCH  14  16
ATOM     16  O   UNL     1       0.043  14.943  21.556  0.00  0.00    +0.000 OA
BRANCH  16  17
ATOM     17  C   UNL     1      -0.095  16.248  20.957  0.00  0.00    +0.000 C 
BRANCH  17  18
ATOM     18  C   UNL     1       0.325  16.155  19.481  0.00  0.00    +0.000 C 
BRANCH  18  19
ATOM     19  O   UNL     1      -0.671  15.500  18.690  0.00  0.00    +0.000 OA
ATOM     20  H   UNL     1      -0.204  15.107  17.930  0.00  0.00    +0.000 HD
ENDBRANCH  18  19
ENDBRANCH  17  18
ENDBRANCH  16  17
ENDBRANCH  14  16
ENDBRANCH   9  12
BRANCH   8  21
ATOM     21  N   UNL     1       0.610  10.526  18.910  0.00  0.00    +0.000 N 
ATOM     22  H   UNL     1       1.239  11.163  19.391  0.00  0.00    +0.000 HD
BRANCH  21  23
ATOM     23  C   UNL     1       1.155   9.207  19.000  0.00  0.00    +0.000 A 
ATOM     24  C   UNL     1       1.830   8.691  17.881  0.00  0.00    +0.000 A 
ATOM     25  C   UNL     1       2.631   7.542  17.968  0.00  0.00    +0.000 A 
ATOM     26  C   UNL     1       2.765   6.885  19.186  0.00  0.00    +0.000 A 
ATOM     27 BR   UNL     1       3.984   5.445  19.348  0.00  0.00    +0.000 Br
ATOM     28  C   UNL     1       2.055   7.327  20.298  0.00  0.00    +0.000 A 
ATOM     29  C   UNL     1       1.256   8.476  20.198  0.00  0.00    +0.000 A 
ATOM     30  F   UNL     1       0.657   8.918  21.310  0.00  0.00    +0.000 F 
ENDBRANCH  21  23
ENDBRANCH   8  21
TORSDOF 7
ENDMDL
