MODEL 1
REMARK VINA RESULT:      -7.9      0.000      0.000
REMARK  Name = 
REMARK  4 active torsions:
REMARK  status: ('A' for Active; 'I' for Inactive)
REMARK    1  A    between atoms: C_1  and  C_2
REMARK    2  A    between atoms: C_5  and  C_6
REMARK    3  A    between atoms: N_8  and  C_9
REMARK    4  A    between atoms: C_17  and  C_18
REMARK                            x       y       z     vdW  Elec       q    Type
REMARK                         _______ _______ _______ _____ _____    ______ ____
ROOT
ATOM      1  C   UNL     1      -2.020  12.154  20.774  0.00  0.00    +0.000 A 
ATOM      2  N   UNL     1      -2.658  12.224  19.584  0.00  0.00    +0.000 NA
ATOM      3  N   UNL     1      -2.153  11.199  18.839  0.00  0.00    +0.000 N 
ATOM      4  C   UNL     1      -1.100  10.595  19.494  0.00  0.00    +0.000 A 
ATOM      5  N   UNL     1      -0.237   9.655  19.038  0.00  0.00    +0.000 N 
ATOM      6  C   UNL     1       0.813   9.266  19.849  0.00  0.00    +0.000 A 
ATOM      7  C   UNL     1       1.014   9.761  21.084  0.00  0.00    +0.000 A 
ATOM      8  C   UNL     1       0.096  10.806  21.628  0.00  0.00    +0.000 A 
ATOM      9  O   UNL     1       0.308  11.281  22.738  0.00  0.00    +0.000 OA
ATOM     10  C   UNL     1      -0.980  11.187  20.729  0.00  0.00    +0.000 A 
ATOM     11  H   UNL     1      -0.187   9.347  18.069  0.00  0.00    +0.000 HD
ENDROOT
BRANCH   1  16
ATOM     12  C   UNL     1      -3.175  15.533  25.329  0.00  0.00    +0.000 C 
ATOM     13  C   UNL     1      -2.931  14.683  24.119  0.00  0.00    +0.000 A 
ATOM     14  C   UNL     1      -3.457  13.393  24.043  0.00  0.00    +0.000 A 
ATOM     15  C   UNL     1      -3.200  12.594  22.926  0.00  0.00    +0.000 A 
ATOM     16  C   UNL     1      -2.378  13.044  21.886  0.00  0.00    +0.000 A 
ATOM     17  C   UNL     1      -1.892  14.355  21.944  0.00  0.00    +0.000 A 
ATOM     18  C   UNL     1      -2.166  15.167  23.052  0.00  0.00    +0.000 A 
ENDBRANCH   1  16
BRANCH   3  19
ATOM     19  C   UNL     1      -2.686  10.900  17.553  0.00  0.00    +0.000 A 
ATOM     20  C   UNL     1      -3.884  11.499  17.143  0.00  0.00    +0.000 A 
ATOM     21  C   UNL     1      -4.378  11.267  15.855  0.00  0.00    +0.000 A 
ATOM     22  C   UNL     1      -3.699  10.410  14.988  0.00  0.00    +0.000 A 
ATOM     23  C   UNL     1      -2.534   9.774  15.408  0.00  0.00    +0.000 A 
ATOM     24  C   UNL     1      -2.027  10.016  16.687  0.00  0.00    +0.000 A 
ENDBRANCH   3  19
BRANCH   6  25
ATOM     25  C   UNL     1       1.757   8.289  19.305  0.00  0.00    +0.000 A 
ATOM     26  C   UNL     1       2.065   7.129  20.026  0.00  0.00    +0.000 A 
ATOM     27  C   UNL     1       2.954   6.194  19.496  0.00  0.00    +0.000 A 
ATOM     28  C   UNL     1       3.538   6.415  18.247  0.00  0.00    +0.000 A 
ATOM     29  C   UNL     1       3.236   7.571  17.528  0.00  0.00    +0.000 A 
ATOM     30  C   UNL     1       2.349   8.510  18.056  0.00  0.00    +0.000 A 
ENDBRANCH   6  25
TORSDOF 3
ENDMDL
MODEL 2
REMARK VINA RESULT:      -7.9      0.072      1.272
REMARK  Name = 
REMARK  4 active torsions:
REMARK  status: ('A' for Active; 'I' for Inactive)
REMARK    1  A    between atoms: C_1  and  C_2
REMARK    2  A    between atoms: C_5  and  C_6
REMARK    3  A    between atoms: N_8  and  C_9
REMARK    4  A    between atoms: C_17  and  C_18
REMARK                            x       y       z     vdW  Elec       q    Type
REMARK                         _______ _______ _______ _____ _____    ______ ____
ROOT
ATOM      1  C   UNL     1      -1.999  12.119  20.764  0.00  0.00    +0.000 A 
ATOM      2  N   UNL     1      -2.625  12.213  19.570  0.00  0.00    +0.000 NA
ATOM      3  N   UNL     1      -2.118  11.199  18.811  0.00  0.00    +0.000 N 
ATOM      4  C   UNL     1      -1.074  10.579  19.464  0.00  0.00    +0.000 A 
ATOM      5  N   UNL     1      -0.210   9.644  18.999  0.00  0.00    +0.000 N 
ATOM      6  C   UNL     1       0.831   9.236  19.812  0.00  0.00    +0.000 A 
ATOM      7  C   UNL     1       1.023   9.708  21.058  0.00  0.00    +0.000 A 
ATOM      8  C   UNL     1       0.104  10.746  21.612  0.00  0.00    +0.000 A 
ATOM      9  O   UNL     1       0.308  11.200  22.732  0.00  0.00    +0.000 OA
ATOM     10  C   UNL     1      -0.962  11.148  20.711  0.00  0.00    +0.000 A 
ATOM     11  H   UNL     1      -0.153   9.353  18.025  0.00  0.00    +0.000 HD
ENDROOT
BRANCH   1  16
ATOM     12  C   UNL     1      -3.170  15.433  25.362  0.00  0.00    +0.000 C 
ATOM     13  C   UNL     1      -2.923  14.598  24.142  0.00  0.00    +0.000 A 
ATOM     14  C   UNL     1      -3.403  13.289  24.071  0.00  0.00    +0.000 A 
ATOM     15  C   UNL     1      -3.144  12.505  22.945  0.00  0.00    +0.000 A 
ATOM     16  C   UNL     1      -2.363  12.990  21.888  0.00  0.00    +0.000 A 
ATOM     17  C   UNL     1      -1.924  14.318  21.942  0.00  0.00    +0.000 A 
ATOM     18  C   UNL     1      -2.202  15.114  23.060  0.00  0.00    +0.000 A 
ENDBRANCH   1  16
BRANCH   3  19
ATOM     19  C   UNL     1      -2.641  10.925  17.514  0.00  0.00    +0.000 A 
ATOM     20  C   UNL     1      -1.971  10.027  16.674  0.00  0.00    +0.000 A 
ATOM     21  C   UNL     1      -2.514   9.697  15.428  0.00  0.00    +0.000 A 
ATOM     22  C   UNL     1      -3.704  10.288  15.003  0.00  0.00    +0.000 A 
ATOM     23  C   UNL     1      -4.348  11.220  15.814  0.00  0.00    +0.000 A 
ATOM     24  C   UNL     1      -3.819  11.539  17.067  0.00  0.00    +0.000 A 
ENDBRANCH   3  19
BRANCH   6  25
ATOM     25  C   UNL     1       1.776   8.264  19.259  0.00  0.00    +0.000 A 
ATOM     26  C   UNL     1       2.375   8.493  18.015  0.00  0.00    +0.000 A 
ATOM     27  C   UNL     1       3.285   7.570  17.500  0.00  0.00    +0.000 A 
ATOM     28  C   UNL     1       3.597   6.418  18.223  0.00  0.00    +0.000 A 
ATOM     29  C   UNL     1       2.999   6.185  19.462  0.00  0.00    +0.000 A 
ATOM     30  C   UNL     1       2.087   7.104  19.979  0.00  0.00    +0.000 A 
ENDBRANCH   6  25
TORSDOF 3
ENDMDL
MODEL 3
REMARK VINA RESULT:      -7.9      0.176      1.276
REMARK  Name = 
REMARK  4 active torsions:
REMARK  status: ('A' for Active; 'I' for Inactive)
REMARK    1  A    between atoms: C_1  and  C_2
REMARK    2  A    between atoms: C_5  and  C_6
REMARK    3  A    between atoms: N_8  and  C_9
REMARK    4  A    between atoms: C_17  and  C_18
REMARK                            x       y       z     vdW  Elec       q    Type
REMARK                         _______ _______ _______ _____ _____    ______ ____
ROOT
ATOM      1  C   UNL     1      -2.028  12.176  20.756  0.00  0.00    +0.000 A 
ATOM      2  N   UNL     1      -2.671  12.241  19.569  0.00  0.00    +0.000 NA
ATOM      3  N   UNL     1      -2.169  11.214  18.825  0.00  0.00    +0.000 N 
ATOM      4  C   UNL     1      -1.113  10.613  19.476  0.00  0.00    +0.000 A 
ATOM      5  N   UNL     1      -0.251   9.672  19.020  0.00  0.00    +0.000 N 
ATOM      6  C   UNL     1       0.804   9.287  19.827  0.00  0.00    +0.000 A 
ATOM      7  C   UNL     1       1.010   9.787  21.060  0.00  0.00    +0.000 A 
ATOM      8  C   UNL     1       0.093  10.832  21.604  0.00  0.00    +0.000 A 
ATOM      9  O   UNL     1       0.310  11.311  22.711  0.00  0.00    +0.000 OA
ATOM     10  C   UNL     1      -0.988  11.210  20.709  0.00  0.00    +0.000 A 
ATOM     11  H   UNL     1      -0.205   9.361  18.052  0.00  0.00    +0.000 HD
ENDROOT
BRANCH   1  16
ATOM     12  C   UNL     1      -3.702  15.776  24.968  0.00  0.00    +0.000 C 
ATOM     13  C   UNL     1      -3.211  14.833  23.911  0.00  0.00    +0.000 A 
ATOM     14  C   UNL     1      -2.489  15.310  22.816  0.00  0.00    +0.000 A 
ATOM     15  C   UNL     1      -2.060  14.431  21.819  0.00  0.00    +0.000 A 
ATOM     16  C   UNL     1      -2.381  13.069  21.866  0.00  0.00    +0.000 A 
ATOM     17  C   UNL     1      -3.065  12.587  22.988  0.00  0.00    +0.000 A 
ATOM     18  C   UNL     1      -3.475  13.462  24.002  0.00  0.00    +0.000 A 
ENDBRANCH   1  16
BRANCH   3  19
ATOM     19  C   UNL     1      -2.708  10.910  17.542  0.00  0.00    +0.000 A 
ATOM     20  C   UNL     1      -3.902  11.516  17.131  0.00  0.00    +0.000 A 
ATOM     21  C   UNL     1      -4.401  11.279  15.846  0.00  0.00    +0.000 A 
ATOM     22  C   UNL     1      -3.732  10.411  14.983  0.00  0.00    +0.000 A 
ATOM     23  C   UNL     1      -2.571   9.768  15.404  0.00  0.00    +0.000 A 
ATOM     24  C   UNL     1      -2.058  10.015  16.680  0.00  0.00    +0.000 A 
ENDBRANCH   3  19
BRANCH   6  25
ATOM     25  C   UNL     1       1.745   8.309  19.282  0.00  0.00    +0.000 A 
ATOM     26  C   UNL     1       2.336   8.519  18.031  0.00  0.00    +0.000 A 
ATOM     27  C   UNL     1       3.243   7.590  17.523  0.00  0.00    +0.000 A 
ATOM     28  C   UNL     1       3.561   6.449  18.261  0.00  0.00    +0.000 A 
ATOM     29  C   UNL     1       2.972   6.233  19.507  0.00  0.00    +0.000 A 
ATOM     30  C   UNL     1       2.062   7.159  20.017  0.00  0.00    +0.000 A 
ENDBRANCH   6  25
TORSDOF 3
ENDMDL
MODEL 4
REMARK VINA RESULT:      -7.9      0.211      1.276
REMARK  Name = 
REMARK  4 active torsions:
REMARK  status: ('A' for Active; 'I' for Inactive)
REMARK    1  A    between atoms: C_1  and  C_2
REMARK    2  A    between atoms: C_5  and  C_6
REMARK    3  A    between atoms: N_8  and  C_9
REMARK    4  A    between atoms: C_17  and  C_18
REMARK                            x       y       z     vdW  Elec       q    Type
REMARK                         _______ _______ _______ _____ _____    ______ ____
ROOT
ATOM      1  C   UNL     1      -2.089  12.184  20.838  0.00  0.00    +0.000 A 
ATOM      2  N   UNL     1      -2.711  12.275  19.641  0.00  0.00    +0.000 NA
ATOM      3  N   UNL     1      -2.197  11.263  18.885  0.00  0.00    +0.000 N 
ATOM      4  C   UNL     1      -1.154  10.645  19.543  0.00  0.00    +0.000 A 
ATOM      5  N   UNL     1      -0.286   9.713  19.082  0.00  0.00    +0.000 N 
ATOM      6  C   UNL     1       0.753   9.308  19.900  0.00  0.00    +0.000 A 
ATOM      7  C   UNL     1       0.938   9.781  21.146  0.00  0.00    +0.000 A 
ATOM      8  C   UNL     1       0.014  10.817  21.696  0.00  0.00    +0.000 A 
ATOM      9  O   UNL     1       0.213  11.273  22.816  0.00  0.00    +0.000 OA
ATOM     10  C   UNL     1      -1.049  11.216  20.790  0.00  0.00    +0.000 A 
ATOM     11  H   UNL     1      -0.224   9.421  18.108  0.00  0.00    +0.000 HD
ENDROOT
BRANCH   1  16
ATOM     12  C   UNL     1      -3.756  15.782  25.054  0.00  0.00    +0.000 C 
ATOM     13  C   UNL     1      -3.281  14.822  24.006  0.00  0.00    +0.000 A 
ATOM     14  C   UNL     1      -2.220  15.160  23.164  0.00  0.00    +0.000 A 
ATOM     15  C   UNL     1      -1.802  14.273  22.169  0.00  0.00    +0.000 A 
ATOM     16  C   UNL     1      -2.460  13.054  21.960  0.00  0.00    +0.000 A 
ATOM     17  C   UNL     1      -3.492  12.699  22.836  0.00  0.00    +0.000 A 
ATOM     18  C   UNL     1      -3.898  13.576  23.850  0.00  0.00    +0.000 A 
ENDBRANCH   1  16
BRANCH   3  19
ATOM     19  C   UNL     1      -2.714  10.987  17.587  0.00  0.00    +0.000 A 
ATOM     20  C   UNL     1      -2.034  10.096  16.746  0.00  0.00    +0.000 A 
ATOM     21  C   UNL     1      -2.571   9.764  15.498  0.00  0.00    +0.000 A 
ATOM     22  C   UNL     1      -3.765  10.345  15.071  0.00  0.00    +0.000 A 
ATOM     23  C   UNL     1      -4.419  11.269  15.882  0.00  0.00    +0.000 A 
ATOM     24  C   UNL     1      -3.896  11.591  17.137  0.00  0.00    +0.000 A 
ENDBRANCH   3  19
BRANCH   6  25
ATOM     25  C   UNL     1       1.702   8.339  19.351  0.00  0.00    +0.000 A 
ATOM     26  C   UNL     1       2.014   7.175  20.065  0.00  0.00    +0.000 A 
ATOM     27  C   UNL     1       2.908   6.249  19.530  0.00  0.00    +0.000 A 
ATOM     28  C   UNL     1       3.494   6.481  18.285  0.00  0.00    +0.000 A 
ATOM     29  C   UNL     1       3.189   7.641  17.572  0.00  0.00    +0.000 A 
ATOM     30  C   UNL     1       2.297   8.572  18.105  0.00  0.00    +0.000 A 
ENDBRANCH   6  25
TORSDOF 3
ENDMDL
MODEL 5
REMARK VINA RESULT:      -7.8      2.261      8.071
REMARK  Name = 
REMARK  4 active torsions:
REMARK  status: ('A' for Active; 'I' for Inactive)
REMARK    1  A    between atoms: C_1  and  C_2
REMARK    2  A    between atoms: C_5  and  C_6
REMARK    3  A    between atoms: N_8  and  C_9
REMARK    4  A    between atoms: C_17  and  C_18
REMARK                            x       y       z     vdW  Elec       q    Type
REMARK                         _______ _______ _______ _____ _____    ______ ____
ROOT
ATOM      1  C   UNL     1      -0.257  10.696  19.788  0.00  0.00    +0.000 A 
ATOM      2  N   UNL     1      -0.003  11.579  20.780  0.00  0.00    +0.000 NA
ATOM      3  N   UNL     1      -1.178  12.237  20.993  0.00  0.00    +0.000 N 
ATOM      4  C   UNL     1      -2.112  11.885  20.041  0.00  0.00    +0.000 A 
ATOM      5  N   UNL     1      -3.334  12.419  19.805  0.00  0.00    +0.000 N 
ATOM      6  C   UNL     1      -4.061  11.965  18.719  0.00  0.00    +0.000 A 
ATOM      7  C   UNL     1      -3.623  10.999  17.890  0.00  0.00    +0.000 A 
ATOM      8  C   UNL     1      -2.279  10.386  18.103  0.00  0.00    +0.000 A 
ATOM      9  O   UNL     1      -1.870   9.535  17.321  0.00  0.00    +0.000 OA
ATOM     10  C   UNL     1      -1.553  10.910  19.248  0.00  0.00    +0.000 A 
ATOM     11  H   UNL     1      -3.685  13.265  20.250  0.00  0.00    +0.000 HD
ENDROOT
BRANCH   1  16
ATOM     12  C   UNL     1       3.483   6.671  17.969  0.00  0.00    +0.000 C 
ATOM     13  C   UNL     1       2.567   7.750  18.462  0.00  0.00    +0.000 A 
ATOM     14  C   UNL     1       2.045   7.699  19.755  0.00  0.00    +0.000 A 
ATOM     15  C   UNL     1       1.168   8.691  20.199  0.00  0.00    +0.000 A 
ATOM     16  C   UNL     1       0.755   9.726  19.351  0.00  0.00    +0.000 A 
ATOM     17  C   UNL     1       1.317   9.799  18.071  0.00  0.00    +0.000 A 
ATOM     18  C   UNL     1       2.215   8.819  17.631  0.00  0.00    +0.000 A 
ENDBRANCH   1  16
BRANCH   3  19
ATOM     19  C   UNL     1      -1.309  13.172  22.059  0.00  0.00    +0.000 A 
ATOM     20  C   UNL     1      -0.392  14.225  22.174  0.00  0.00    +0.000 A 
ATOM     21  C   UNL     1      -0.553  15.188  23.174  0.00  0.00    +0.000 A 
ATOM     22  C   UNL     1      -1.607  15.085  24.083  0.00  0.00    +0.000 A 
ATOM     23  C   UNL     1      -2.493  14.014  24.004  0.00  0.00    +0.000 A 
ATOM     24  C   UNL     1      -2.346  13.058  22.995  0.00  0.00    +0.000 A 
ENDBRANCH   3  19
BRANCH   6  25
ATOM     25  C   UNL     1      -5.354  12.601  18.462  0.00  0.00    +0.000 A 
ATOM     26  C   UNL     1      -6.062  13.207  19.506  0.00  0.00    +0.000 A 
ATOM     27  C   UNL     1      -7.286  13.824  19.252  0.00  0.00    +0.000 A 
ATOM     28  C   UNL     1      -7.807  13.835  17.957  0.00  0.00    +0.000 A 
ATOM     29  C   UNL     1      -7.107  13.229  16.914  0.00  0.00    +0.000 A 
ATOM     30  C   UNL     1      -5.883  12.609  17.165  0.00  0.00    +0.000 A 
ENDBRANCH   6  25
TORSDOF 3
ENDMDL
MODEL 6
REMARK VINA RESULT:      -7.8      2.289      8.098
REMARK  Name = 
REMARK  4 active torsions:
REMARK  status: ('A' for Active; 'I' for Inactive)
REMARK    1  A    between atoms: C_1  and  C_2
REMARK    2  A    between atoms: C_5  and  C_6
REMARK    3  A    between atoms: N_8  and  C_9
REMARK    4  A    between atoms: C_17  and  C_18
REMARK                            x       y       z     vdW  Elec       q    Type
REMARK                         _______ _______ _______ _____ _____    ______ ____
ROOT
ATOM      1  C   UNL     1      -0.249  10.763  19.771  0.00  0.00    +0.000 A 
ATOM      2  N   UNL     1       0.033  11.678  20.726  0.00  0.00    +0.000 NA
ATOM      3  N   UNL     1      -1.133  12.352  20.942  0.00  0.00    +0.000 N 
ATOM      4  C   UNL     1      -2.090  11.973  20.024  0.00  0.00    +0.000 A 
ATOM      5  N   UNL     1      -3.314  12.508  19.796  0.00  0.00    +0.000 N 
ATOM      6  C   UNL     1      -4.068  12.022  18.744  0.00  0.00    +0.000 A 
ATOM      7  C   UNL     1      -3.656  11.025  17.939  0.00  0.00    +0.000 A 
ATOM      8  C   UNL     1      -2.311  10.409  18.143  0.00  0.00    +0.000 A 
ATOM      9  O   UNL     1      -1.926   9.530  17.382  0.00  0.00    +0.000 OA
ATOM     10  C   UNL     1      -1.556  10.967  19.252  0.00  0.00    +0.000 A 
ATOM     11  H   UNL     1      -3.649  13.371  20.220  0.00  0.00    +0.000 HD
ENDROOT
BRANCH   1  16
ATOM     12  C   UNL     1       3.422   6.654  18.000  0.00  0.00    +0.000 C 
ATOM     13  C   UNL     1       2.525   7.754  18.480  0.00  0.00    +0.000 A 
ATOM     14  C   UNL     1       2.008   7.732  19.777  0.00  0.00    +0.000 A 
ATOM     15  C   UNL     1       1.147   8.745  20.208  0.00  0.00    +0.000 A 
ATOM     16  C   UNL     1       0.746   9.772  19.345  0.00  0.00    +0.000 A 
ATOM     17  C   UNL     1       1.303   9.815  18.061  0.00  0.00    +0.000 A 
ATOM     18  C   UNL     1       2.185   8.815  17.634  0.00  0.00    +0.000 A 
ENDBRANCH   1  16
BRANCH   3  19
ATOM     19  C   UNL     1      -1.234  13.324  21.977  0.00  0.00    +0.000 A 
ATOM     20  C   UNL     1      -2.193  13.166  22.985  0.00  0.00    +0.000 A 
ATOM     21  C   UNL     1      -2.253  14.076  24.045  0.00  0.00    +0.000 A 
ATOM     22  C   UNL     1      -1.381  15.165  24.083  0.00  0.00    +0.000 A 
ATOM     23  C   UNL     1      -0.458  15.355  23.058  0.00  0.00    +0.000 A 
ATOM     24  C   UNL     1      -0.382  14.438  22.006  0.00  0.00    +0.000 A 
ENDBRANCH   3  19
BRANCH   6  25
ATOM     25  C   UNL     1      -5.363  12.658  18.494  0.00  0.00    +0.000 A 
ATOM     26  C   UNL     1      -5.911  12.659  17.206  0.00  0.00    +0.000 A 
ATOM     27  C   UNL     1      -7.151  13.254  16.977  0.00  0.00    +0.000 A 
ATOM     28  C   UNL     1      -7.845  13.850  18.031  0.00  0.00    +0.000 A 
ATOM     29  C   UNL     1      -7.301  13.855  19.315  0.00  0.00    +0.000 A 
ATOM     30  C   UNL     1      -6.059  13.262  19.547  0.00  0.00    +0.000 A 
ENDBRANCH   6  25
TORSDOF 3
ENDMDL
MODEL 7
REMARK VINA RESULT:      -7.6      2.305      8.151
REMARK  Name = 
REMARK  4 active torsions:
REMARK  status: ('A' for Active; 'I' for Inactive)
REMARK    1  A    between atoms: C_1  and  C_2
REMARK    2  A    between atoms: C_5  and  C_6
REMARK    3  A    between atoms: N_8  and  C_9
REMARK    4  A    between atoms: C_17  and  C_18
REMARK                            x       y       z     vdW  Elec       q    Type
REMARK                         _______ _______ _______ _____ _____    ______ ____
ROOT
ATOM      1  C   UNL     1      -0.108  10.594  19.647  0.00  0.00    +0.000 A 
ATOM      2  N   UNL     1       0.249  11.518  20.567  0.00  0.00    +0.000 NA
ATOM      3  N   UNL     1      -0.882  12.237  20.820  0.00  0.00    +0.000 N 
ATOM      4  C   UNL     1      -1.893  11.873  19.956  0.00  0.00    +0.000 A 
ATOM      5  N   UNL     1      -3.107  12.446  19.772  0.00  0.00    +0.000 N 
ATOM      6  C   UNL     1      -3.926  11.964  18.766  0.00  0.00    +0.000 A 
ATOM      7  C   UNL     1      -3.585  10.936  17.967  0.00  0.00    +0.000 A 
ATOM      8  C   UNL     1      -2.254  10.278  18.124  0.00  0.00    +0.000 A 
ATOM      9  O   UNL     1      -1.935   9.368  17.367  0.00  0.00    +0.000 OA
ATOM     10  C   UNL     1      -1.430  10.833  19.184  0.00  0.00    +0.000 A 
ATOM     11  H   UNL     1      -3.392  13.329  20.190  0.00  0.00    +0.000 HD
ENDROOT
BRANCH   1  16
ATOM     12  C   UNL     1       3.848   6.711  17.983  0.00  0.00    +0.000 C 
ATOM     13  C   UNL     1       2.775   7.676  18.388  0.00  0.00    +0.000 A 
ATOM     14  C   UNL     1       2.380   8.699  17.526  0.00  0.00    +0.000 A 
ATOM     15  C   UNL     1       1.401   9.614  17.922  0.00  0.00    +0.000 A 
ATOM     16  C   UNL     1       0.831   9.559  19.200  0.00  0.00    +0.000 A 
ATOM     17  C   UNL     1       1.197   8.504  20.044  0.00  0.00    +0.000 A 
ATOM     18  C   UNL     1       2.160   7.570  19.641  0.00  0.00    +0.000 A 
ENDBRANCH   1  16
BRANCH   3  19
ATOM     19  C   UNL     1      -0.901  13.235  21.836  0.00  0.00    +0.000 A 
ATOM     20  C   UNL     1      -0.079  14.363  21.715  0.00  0.00    +0.000 A 
ATOM     21  C   UNL     1      -0.143  15.381  22.671  0.00  0.00    +0.000 A 
ATOM     22  C   UNL     1      -0.998  15.262  23.767  0.00  0.00    +0.000 A 
ATOM     23  C   UNL     1      -1.781  14.120  23.918  0.00  0.00    +0.000 A 
ATOM     24  C   UNL     1      -1.734  13.107  22.957  0.00  0.00    +0.000 A 
ENDBRANCH   3  19
BRANCH   6  25
ATOM     25  C   UNL     1      -5.207  12.639  18.561  0.00  0.00    +0.000 A 
ATOM     26  C   UNL     1      -5.814  12.633  17.299  0.00  0.00    +0.000 A 
ATOM     27  C   UNL     1      -7.042  13.266  17.114  0.00  0.00    +0.000 A 
ATOM     28  C   UNL     1      -7.667  13.909  18.184  0.00  0.00    +0.000 A 
ATOM     29  C   UNL     1      -7.064  13.920  19.442  0.00  0.00    +0.000 A 
ATOM     30  C   UNL     1      -5.834  13.290  19.631  0.00  0.00    +0.000 A 
ENDBRANCH   6  25
TORSDOF 3
ENDMDL
MODEL 8
REMARK VINA RESULT:      -7.5      3.660      5.266
REMARK  Name = 
REMARK  4 active torsions:
REMARK  status: ('A' for Active; 'I' for Inactive)
REMARK    1  A    between atoms: C_1  and  C_2
REMARK    2  A    between atoms: C_5  and  C_6
REMARK    3  A    between atoms: N_8  and  C_9
REMARK    4  A    between atoms: C_17  and  C_18
REMARK                            x       y       z     vdW  Elec       q    Type
REMARK                         _______ _______ _______ _____ _____    ______ ____
ROOT
ATOM      1  C   UNL     1      -1.121  12.111  21.294  0.00  0.00    +0.000 A 
ATOM      2  N   UNL     1      -0.902  10.913  20.706  0.00  0.00    +0.000 NA
ATOM      3  N   UNL     1       0.392  10.947  20.278  0.00  0.00    +0.000 N 
ATOM      4  C   UNL     1       0.929  12.206  20.451  0.00  0.00    +0.000 A 
ATOM      5  N   UNL     1       2.115  12.696  20.018  0.00  0.00    +0.000 N 
ATOM      6  C   UNL     1       2.399  14.033  20.225  0.00  0.00    +0.000 A 
ATOM      7  C   UNL     1       1.562  14.876  20.857  0.00  0.00    +0.000 A 
ATOM      8  C   UNL     1       0.238  14.387  21.345  0.00  0.00    +0.000 A 
ATOM      9  O   UNL     1      -0.536  15.169  21.884  0.00  0.00    +0.000 OA
ATOM     10  C   UNL     1      -0.014  12.979  21.087  0.00  0.00    +0.000 A 
ATOM     11  H   UNL     1       2.739  12.204  19.381  0.00  0.00    +0.000 HD
ENDROOT
BRANCH   1  16
ATOM     12  C   UNL     1      -6.215  12.975  23.902  0.00  0.00    +0.000 C 
ATOM     13  C   UNL     1      -4.880  12.816  23.239  0.00  0.00    +0.000 A 
ATOM     14  C   UNL     1      -4.738  13.039  21.869  0.00  0.00    +0.000 A 
ATOM     15  C   UNL     1      -3.498  12.860  21.251  0.00  0.00    +0.000 A 
ATOM     16  C   UNL     1      -2.387  12.409  21.974  0.00  0.00    +0.000 A 
ATOM     17  C   UNL     1      -2.521  12.232  23.356  0.00  0.00    +0.000 A 
ATOM     18  C   UNL     1      -3.757  12.434  23.982  0.00  0.00    +0.000 A 
ENDBRANCH   1  16
BRANCH   3  19
ATOM     19  C   UNL     1       1.003   9.794  19.707  0.00  0.00    +0.000 A 
ATOM     20  C   UNL     1       1.283   9.767  18.334  0.00  0.00    +0.000 A 
ATOM     21  C   UNL     1       1.947   8.670  17.777  0.00  0.00    +0.000 A 
ATOM     22  C   UNL     1       2.300   7.583  18.578  0.00  0.00    +0.000 A 
ATOM     23  C   UNL     1       1.980   7.584  19.933  0.00  0.00    +0.000 A 
ATOM     24  C   UNL     1       1.332   8.686  20.499  0.00  0.00    +0.000 A 
ENDBRANCH   3  19
BRANCH   6  25
ATOM     25  C   UNL     1       3.666  14.541  19.698  0.00  0.00    +0.000 A 
ATOM     26  C   UNL     1       4.603  15.129  20.556  0.00  0.00    +0.000 A 
ATOM     27  C   UNL     1       5.815  15.598  20.050  0.00  0.00    +0.000 A 
ATOM     28  C   UNL     1       6.093  15.483  18.687  0.00  0.00    +0.000 A 
ATOM     29  C   UNL     1       5.162  14.902  17.828  0.00  0.00    +0.000 A 
ATOM     30  C   UNL     1       3.947  14.434  18.330  0.00  0.00    +0.000 A 
ENDBRANCH   6  25
TORSDOF 3
ENDMDL
MODEL 9
REMARK VINA RESULT:      -7.5      3.085      7.698
REMARK  Name = 
REMARK  4 active torsions:
REMARK  status: ('A' for Active; 'I' for Inactive)
REMARK    1  A    between atoms: C_1  and  C_2
REMARK    2  A    between atoms: C_5  and  C_6
REMARK    3  A    between atoms: N_8  and  C_9
REMARK    4  A    between atoms: C_17  and  C_18
REMARK                            x       y       z     vdW  Elec       q    Type
REMARK                         _______ _______ _______ _____ _____    ______ ____
ROOT
ATOM      1  C   UNL     1       0.496  10.334  19.834  0.00  0.00    +0.000 A 
ATOM      2  N   UNL     1      -0.482  10.368  20.768  0.00  0.00    +0.000 NA
ATOM      3  N   UNL     1      -0.955  11.647  20.754  0.00  0.00    +0.000 N 
ATOM      4  C   UNL     1      -0.180  12.444  19.939  0.00  0.00    +0.000 A 
ATOM      5  N   UNL     1      -0.215  13.788  19.774  0.00  0.00    +0.000 N 
ATOM      6  C   UNL     1       0.738  14.387  18.969  0.00  0.00    +0.000 A 
ATOM      7  C   UNL     1       1.693  13.696  18.319  0.00  0.00    +0.000 A 
ATOM      8  C   UNL     1       1.779  12.214  18.475  0.00  0.00    +0.000 A 
ATOM      9  O   UNL     1       2.676  11.597  17.913  0.00  0.00    +0.000 OA
ATOM     10  C   UNL     1       0.764  11.640  19.343  0.00  0.00    +0.000 A 
ATOM     11  H   UNL     1      -0.771  14.420  20.348  0.00  0.00    +0.000 HD
ENDROOT
BRANCH   1  16
ATOM     12  C   UNL     1       3.476   5.557  18.493  0.00  0.00    +0.000 C 
ATOM     13  C   UNL     1       2.647   6.760  18.830  0.00  0.00    +0.000 A 
ATOM     14  C   UNL     1       2.291   7.675  17.838  0.00  0.00    +0.000 A 
ATOM     15  C   UNL     1       1.544   8.810  18.163  0.00  0.00    +0.000 A 
ATOM     16  C   UNL     1       1.178   9.082  19.487  0.00  0.00    +0.000 A 
ATOM     17  C   UNL     1       1.496   8.139  20.471  0.00  0.00    +0.000 A 
ATOM     18  C   UNL     1       2.224   6.987  20.144  0.00  0.00    +0.000 A 
ENDBRANCH   1  16
BRANCH   3  19
ATOM     19  C   UNL     1      -2.082  12.017  21.542  0.00  0.00    +0.000 A 
ATOM     20  C   UNL     1      -2.055  11.813  22.928  0.00  0.00    +0.000 A 
ATOM     21  C   UNL     1      -3.127  12.238  23.719  0.00  0.00    +0.000 A 
ATOM     22  C   UNL     1      -4.242  12.833  23.128  0.00  0.00    +0.000 A 
ATOM     23  C   UNL     1      -4.296  12.993  21.746  0.00  0.00    +0.000 A 
ATOM     24  C   UNL     1      -3.219  12.587  20.952  0.00  0.00    +0.000 A 
ENDBRANCH   3  19
BRANCH   6  25
ATOM     25  C   UNL     1       0.703  15.845  18.856  0.00  0.00    +0.000 A 
ATOM     26  C   UNL     1      -0.436  16.487  18.354  0.00  0.00    +0.000 A 
ATOM     27  C   UNL     1      -0.468  17.878  18.263  0.00  0.00    +0.000 A 
ATOM     28  C   UNL     1       0.635  18.631  18.670  0.00  0.00    +0.000 A 
ATOM     29  C   UNL     1       1.772  17.995  19.167  0.00  0.00    +0.000 A 
ATOM     30  C   UNL     1       1.809  16.604  19.258  0.00  0.00    +0.000 A 
ENDBRANCH   6  25
TORSDOF 3
ENDMDL
