MODEL 1
REMARK VINA RESULT:      -8.3      0.000      0.000
REMARK  Name = 
REMARK  5 active torsions:
REMARK  status: ('A' for Active; 'I' for Inactive)
REMARK    1  A    between atoms: C_5  and  C_6
REMARK    2  A    between atoms: C_6  and  C_7
REMARK    3  A    between atoms: N_13  and  N_14
REMARK    4  A    between atoms: C_15  and  C_16
REMARK    5  A    between atoms: C_19  and  N_20
REMARK                            x       y       z     vdW  Elec       q    Type
REMARK                         _______ _______ _______ _____ _____    ______ ____
ROOT
ATOM      1  O   UNL     1       0.981   2.240  18.121  0.00  0.00    +0.000 OA
ATOM      2  C   UNL     1       1.310   3.136  18.884  0.00  0.00    +0.000 A 
ATOM      3  N   UNL     1       0.750   3.345  20.144  0.00  0.00    +0.000 N 
ATOM      4  N   UNL     1       1.263   4.469  20.730  0.00  0.00    +0.000 NA
ATOM      5  C   UNL     1       2.128   4.915  19.856  0.00  0.00    +0.000 A 
ATOM      6  N   UNL     1       2.232   4.160  18.731  0.00  0.00    +0.000 N 
ATOM      7  H   UNL     1      -0.001   2.806  20.554  0.00  0.00    +0.000 HD
ENDROOT
BRANCH   6   8
ATOM      8  N   UNL     1       3.046   4.467  17.675  0.00  0.00    +0.000 NA
ATOM      9  C   UNL     1       4.228   3.939  17.616  0.00  0.00    +0.000 C 
BRANCH   9  10
ATOM     10  C   UNL     1       5.151   4.246  16.498  0.00  0.00    +0.000 A 
ATOM     11  C   UNL     1       4.822   3.879  15.188  0.00  0.00    +0.000 A 
ATOM     12  C   UNL     1       5.694   4.175  14.138  0.00  0.00    +0.000 A 
ATOM     13  C   UNL     1       6.897   4.842  14.400  0.00  0.00    +0.000 A 
ATOM     14  C   UNL     1       7.232   5.214  15.711  0.00  0.00    +0.000 A 
ATOM     15  C   UNL     1       6.355   4.914  16.762  0.00  0.00    +0.000 A 
BRANCH  13  16
ATOM     16  N   UNL     1       7.810   5.151  13.291  0.00  0.00    +0.000 N 
ATOM     17  O   UNL     1       8.777   5.885  13.529  0.00  0.00    +0.000 OA
ATOM     18  O   UNL     1       7.554   4.658  12.183  0.00  0.00    +0.000 OA
ENDBRANCH  13  16
ENDBRANCH   9  10
ENDBRANCH   6   8
BRANCH   5  19
ATOM     19  C   UNL     1       2.888   6.196  20.051  0.00  0.00    +0.000 C 
BRANCH  19  20
ATOM     20  C   UNL     1       2.175   7.448  19.593  0.00  0.00    +0.000 A 
ATOM     21  C   UNL     1       1.439   8.216  20.505  0.00  0.00    +0.000 A 
ATOM     22  C   UNL     1       0.868   9.428  20.118  0.00  0.00    +0.000 A 
ATOM     23  C   UNL     1       1.016   9.884  18.810  0.00  0.00    +0.000 A 
ATOM     24  C   UNL     1       1.718   9.116  17.884  0.00  0.00    +0.000 A 
ATOM     25  C   UNL     1       2.290   7.900  18.270  0.00  0.00    +0.000 A 
ENDBRANCH  19  20
ENDBRANCH   5  19
TORSDOF 5
ENDMDL
MODEL 2
REMARK VINA RESULT:      -8.3      0.203      1.410
REMARK  Name = 
REMARK  5 active torsions:
REMARK  status: ('A' for Active; 'I' for Inactive)
REMARK    1  A    between atoms: C_5  and  C_6
REMARK    2  A    between atoms: C_6  and  C_7
REMARK    3  A    between atoms: N_13  and  N_14
REMARK    4  A    between atoms: C_15  and  C_16
REMARK    5  A    between atoms: C_19  and  N_20
REMARK                            x       y       z     vdW  Elec       q    Type
REMARK                         _______ _______ _______ _____ _____    ______ ____
ROOT
ATOM      1  O   UNL     1       0.742   2.190  18.244  0.00  0.00    +0.000 OA
ATOM      2  C   UNL     1       1.164   3.079  18.968  0.00  0.00    +0.000 A 
ATOM      3  N   UNL     1       0.674   3.359  20.244  0.00  0.00    +0.000 N 
ATOM      4  N   UNL     1       1.290   4.456  20.777  0.00  0.00    +0.000 NA
ATOM      5  C   UNL     1       2.146   4.818  19.857  0.00  0.00    +0.000 A 
ATOM      6  N   UNL     1       2.150   4.031  18.750  0.00  0.00    +0.000 N 
ATOM      7  H   UNL     1      -0.095   2.884  20.698  0.00  0.00    +0.000 HD
ENDROOT
BRANCH   6   8
ATOM      8  N   UNL     1       2.938   4.252  17.655  0.00  0.00    +0.000 NA
ATOM      9  C   UNL     1       4.226   4.177  17.779  0.00  0.00    +0.000 C 
BRANCH   9  10
ATOM     10  C   UNL     1       5.123   4.418  16.625  0.00  0.00    +0.000 A 
ATOM     11  C   UNL     1       6.406   4.941  16.823  0.00  0.00    +0.000 A 
ATOM     12  C   UNL     1       7.249   5.161  15.732  0.00  0.00    +0.000 A 
ATOM     13  C   UNL     1       6.807   4.856  14.439  0.00  0.00    +0.000 A 
ATOM     14  C   UNL     1       5.522   4.331  14.233  0.00  0.00    +0.000 A 
ATOM     15  C   UNL     1       4.679   4.112  15.330  0.00  0.00    +0.000 A 
BRANCH  13  16
ATOM     16  N   UNL     1       7.698   5.090  13.294  0.00  0.00    +0.000 N 
ATOM     17  O   UNL     1       8.656   5.856  13.458  0.00  0.00    +0.000 OA
ATOM     18  O   UNL     1       7.436   4.506  12.234  0.00  0.00    +0.000 OA
ENDBRANCH  13  16
ENDBRANCH   9  10
ENDBRANCH   6   8
BRANCH   5  19
ATOM     19  C   UNL     1       3.002   6.046  19.986  0.00  0.00    +0.000 C 
BRANCH  19  20
ATOM     20  C   UNL     1       2.352   7.337  19.544  0.00  0.00    +0.000 A 
ATOM     21  C   UNL     1       2.437   7.751  18.209  0.00  0.00    +0.000 A 
ATOM     22  C   UNL     1       1.750   8.882  17.767  0.00  0.00    +0.000 A 
ATOM     23  C   UNL     1       0.978   9.622  18.659  0.00  0.00    +0.000 A 
ATOM     24  C   UNL     1       0.909   9.241  19.998  0.00  0.00    +0.000 A 
ATOM     25  C   UNL     1       1.598   8.108  20.441  0.00  0.00    +0.000 A 
ENDBRANCH  19  20
ENDBRANCH   5  19
TORSDOF 5
ENDMDL
MODEL 3
REMARK VINA RESULT:      -8.3      3.467      7.389
REMARK  Name = 
REMARK  5 active torsions:
REMARK  status: ('A' for Active; 'I' for Inactive)
REMARK    1  A    between atoms: C_5  and  C_6
REMARK    2  A    between atoms: C_6  and  C_7
REMARK    3  A    between atoms: N_13  and  N_14
REMARK    4  A    between atoms: C_15  and  C_16
REMARK    5  A    between atoms: C_19  and  N_20
REMARK                            x       y       z     vdW  Elec       q    Type
REMARK                         _______ _______ _______ _____ _____    ______ ____
ROOT
ATOM      1  O   UNL     1       5.080   6.958  15.155  0.00  0.00    +0.000 OA
ATOM      2  C   UNL     1       5.237   6.029  15.933  0.00  0.00    +0.000 A 
ATOM      3  N   UNL     1       5.849   4.819  15.605  0.00  0.00    +0.000 N 
ATOM      4  N   UNL     1       5.808   3.947  16.656  0.00  0.00    +0.000 NA
ATOM      5  C   UNL     1       5.207   4.619  17.604  0.00  0.00    +0.000 A 
ATOM      6  N   UNL     1       4.852   5.884  17.258  0.00  0.00    +0.000 N 
ATOM      7  H   UNL     1       6.202   4.565  14.692  0.00  0.00    +0.000 HD
ENDROOT
BRANCH   6   8
ATOM      8  N   UNL     1       4.180   6.744  18.083  0.00  0.00    +0.000 NA
ATOM      9  C   UNL     1       2.927   6.983  17.858  0.00  0.00    +0.000 C 
BRANCH   9  10
ATOM     10  C   UNL     1       2.157   7.913  18.717  0.00  0.00    +0.000 A 
ATOM     11  C   UNL     1       1.949   7.619  20.069  0.00  0.00    +0.000 A 
ATOM     12  C   UNL     1       1.226   8.502  20.874  0.00  0.00    +0.000 A 
ATOM     13  C   UNL     1       0.711   9.683  20.324  0.00  0.00    +0.000 A 
ATOM     14  C   UNL     1       0.917   9.984  18.969  0.00  0.00    +0.000 A 
ATOM     15  C   UNL     1       1.642   9.095  18.164  0.00  0.00    +0.000 A 
BRANCH  13  16
ATOM     16  N   UNL     1      -0.048  10.608  21.177  0.00  0.00    +0.000 N 
ATOM     17  O   UNL     1      -1.007  11.202  20.670  0.00  0.00    +0.000 OA
ATOM     18  O   UNL     1       0.320  10.737  22.353  0.00  0.00    +0.000 OA
ENDBRANCH  13  16
ENDBRANCH   9  10
ENDBRANCH   6   8
BRANCH   5  19
ATOM     19  C   UNL     1       4.873   4.015  18.938  0.00  0.00    +0.000 C 
BRANCH  19  20
ATOM     20  C   UNL     1       3.404   3.752  19.180  0.00  0.00    +0.000 A 
ATOM     21  C   UNL     1       2.634   3.094  18.212  0.00  0.00    +0.000 A 
ATOM     22  C   UNL     1       1.307   2.751  18.470  0.00  0.00    +0.000 A 
ATOM     23  C   UNL     1       0.728   3.071  19.695  0.00  0.00    +0.000 A 
ATOM     24  C   UNL     1       1.471   3.754  20.656  0.00  0.00    +0.000 A 
ATOM     25  C   UNL     1       2.801   4.100  20.398  0.00  0.00    +0.000 A 
ENDBRANCH  19  20
ENDBRANCH   5  19
TORSDOF 5
ENDMDL
MODEL 4
REMARK VINA RESULT:      -8.2      3.487      7.307
REMARK  Name = 
REMARK  5 active torsions:
REMARK  status: ('A' for Active; 'I' for Inactive)
REMARK    1  A    between atoms: C_5  and  C_6
REMARK    2  A    between atoms: C_6  and  C_7
REMARK    3  A    between atoms: N_13  and  N_14
REMARK    4  A    between atoms: C_15  and  C_16
REMARK    5  A    between atoms: C_19  and  N_20
REMARK                            x       y       z     vdW  Elec       q    Type
REMARK                         _______ _______ _______ _____ _____    ______ ____
ROOT
ATOM      1  O   UNL     1       5.139   6.883  15.193  0.00  0.00    +0.000 OA
ATOM      2  C   UNL     1       5.298   5.981  16.002  0.00  0.00    +0.000 A 
ATOM      3  N   UNL     1       5.919   4.765  15.717  0.00  0.00    +0.000 N 
ATOM      4  N   UNL     1       5.879   3.927  16.796  0.00  0.00    +0.000 NA
ATOM      5  C   UNL     1       5.270   4.627  17.719  0.00  0.00    +0.000 A 
ATOM      6  N   UNL     1       4.909   5.877  17.329  0.00  0.00    +0.000 N 
ATOM      7  H   UNL     1       6.277   4.482  14.814  0.00  0.00    +0.000 HD
ENDROOT
BRANCH   6   8
ATOM      8  N   UNL     1       4.228   6.760  18.123  0.00  0.00    +0.000 NA
ATOM      9  C   UNL     1       2.971   6.975  17.892  0.00  0.00    +0.000 C 
BRANCH   9  10
ATOM     10  C   UNL     1       2.192   7.928  18.716  0.00  0.00    +0.000 A 
ATOM     11  C   UNL     1       1.926   7.647  20.061  0.00  0.00    +0.000 A 
ATOM     12  C   UNL     1       1.195   8.552  20.834  0.00  0.00    +0.000 A 
ATOM     13  C   UNL     1       0.729   9.741  20.259  0.00  0.00    +0.000 A 
ATOM     14  C   UNL     1       0.992  10.029  18.911  0.00  0.00    +0.000 A 
ATOM     15  C   UNL     1       1.726   9.119  18.139  0.00  0.00    +0.000 A 
BRANCH  13  16
ATOM     16  N   UNL     1      -0.039  10.688  21.078  0.00  0.00    +0.000 N 
ATOM     17  O   UNL     1       0.324  10.866  22.247  0.00  0.00    +0.000 OA
ATOM     18  O   UNL     1      -1.007  11.251  20.547  0.00  0.00    +0.000 OA
ENDBRANCH  13  16
ENDBRANCH   9  10
ENDBRANCH   6   8
BRANCH   5  19
ATOM     19  C   UNL     1       4.934   4.065  19.071  0.00  0.00    +0.000 C 
BRANCH  19  20
ATOM     20  C   UNL     1       3.493   3.650  19.259  0.00  0.00    +0.000 A 
ATOM     21  C   UNL     1       2.758   4.124  20.353  0.00  0.00    +0.000 A 
ATOM     22  C   UNL     1       1.399   3.836  20.477  0.00  0.00    +0.000 A 
ATOM     23  C   UNL     1       0.759   3.058  19.515  0.00  0.00    +0.000 A 
ATOM     24  C   UNL     1       1.485   2.553  18.438  0.00  0.00    +0.000 A 
ATOM     25  C   UNL     1       2.847   2.841  18.313  0.00  0.00    +0.000 A 
ENDBRANCH  19  20
ENDBRANCH   5  19
TORSDOF 5
ENDMDL
MODEL 5
REMARK VINA RESULT:      -8.2      3.499      7.342
REMARK  Name = 
REMARK  5 active torsions:
REMARK  status: ('A' for Active; 'I' for Inactive)
REMARK    1  A    between atoms: C_5  and  C_6
REMARK    2  A    between atoms: C_6  and  C_7
REMARK    3  A    between atoms: N_13  and  N_14
REMARK    4  A    between atoms: C_15  and  C_16
REMARK    5  A    between atoms: C_19  and  N_20
REMARK                            x       y       z     vdW  Elec       q    Type
REMARK                         _______ _______ _______ _____ _____    ______ ____
ROOT
ATOM      1  O   UNL     1       5.194   6.886  15.128  0.00  0.00    +0.000 OA
ATOM      2  C   UNL     1       5.315   5.989  15.948  0.00  0.00    +0.000 A 
ATOM      3  N   UNL     1       5.904   4.752  15.685  0.00  0.00    +0.000 N 
ATOM      4  N   UNL     1       5.825   3.929  16.773  0.00  0.00    +0.000 NA
ATOM      5  C   UNL     1       5.223   4.656  17.679  0.00  0.00    +0.000 A 
ATOM      6  N   UNL     1       4.904   5.912  17.271  0.00  0.00    +0.000 N 
ATOM      7  H   UNL     1       6.267   4.449  14.791  0.00  0.00    +0.000 HD
ENDROOT
BRANCH   6   8
ATOM      8  N   UNL     1       4.238   6.823  18.044  0.00  0.00    +0.000 NA
ATOM      9  C   UNL     1       2.963   6.981  17.874  0.00  0.00    +0.000 C 
BRANCH   9  10
ATOM     10  C   UNL     1       2.198   7.962  18.680  0.00  0.00    +0.000 A 
ATOM     11  C   UNL     1       1.751   9.155  18.104  0.00  0.00    +0.000 A 
ATOM     12  C   UNL     1       1.026  10.074  18.867  0.00  0.00    +0.000 A 
ATOM     13  C   UNL     1       0.748   9.794  20.211  0.00  0.00    +0.000 A 
ATOM     14  C   UNL     1       1.194   8.599  20.796  0.00  0.00    +0.000 A 
ATOM     15  C   UNL     1       1.920   7.681  20.026  0.00  0.00    +0.000 A 
BRANCH  13  16
ATOM     16  N   UNL     1      -0.015  10.764  21.009  0.00  0.00    +0.000 N 
ATOM     17  O   UNL     1       0.428  11.068  22.124  0.00  0.00    +0.000 OA
ATOM     18  O   UNL     1      -1.057  11.219  20.517  0.00  0.00    +0.000 OA
ENDBRANCH  13  16
ENDBRANCH   9  10
ENDBRANCH   6   8
BRANCH   5  19
ATOM     19  C   UNL     1       4.851   4.119  19.032  0.00  0.00    +0.000 C 
BRANCH  19  20
ATOM     20  C   UNL     1       3.394   3.761  19.207  0.00  0.00    +0.000 A 
ATOM     21  C   UNL     1       2.743   2.960  18.260  0.00  0.00    +0.000 A 
ATOM     22  C   UNL     1       1.431   2.533  18.467  0.00  0.00    +0.000 A 
ATOM     23  C   UNL     1       0.748   2.911  19.620  0.00  0.00    +0.000 A 
ATOM     24  C   UNL     1       1.371   3.733  20.557  0.00  0.00    +0.000 A 
ATOM     25  C   UNL     1       2.685   4.162  20.350  0.00  0.00    +0.000 A 
ENDBRANCH  19  20
ENDBRANCH   5  19
TORSDOF 5
ENDMDL
MODEL 6
REMARK VINA RESULT:      -8.2      3.481      7.343
REMARK  Name = 
REMARK  5 active torsions:
REMARK  status: ('A' for Active; 'I' for Inactive)
REMARK    1  A    between atoms: C_5  and  C_6
REMARK    2  A    between atoms: C_6  and  C_7
REMARK    3  A    between atoms: N_13  and  N_14
REMARK    4  A    between atoms: C_15  and  C_16
REMARK    5  A    between atoms: C_19  and  N_20
REMARK                            x       y       z     vdW  Elec       q    Type
REMARK                         _______ _______ _______ _____ _____    ______ ____
ROOT
ATOM      1  O   UNL     1       5.070   6.909  15.144  0.00  0.00    +0.000 OA
ATOM      2  C   UNL     1       5.233   6.002  15.945  0.00  0.00    +0.000 A 
ATOM      3  N   UNL     1       5.844   4.784  15.646  0.00  0.00    +0.000 N 
ATOM      4  N   UNL     1       5.812   3.940  16.720  0.00  0.00    +0.000 NA
ATOM      5  C   UNL     1       5.217   4.638  17.654  0.00  0.00    +0.000 A 
ATOM      6  N   UNL     1       4.859   5.892  17.277  0.00  0.00    +0.000 N 
ATOM      7  H   UNL     1       6.189   4.504  14.737  0.00  0.00    +0.000 HD
ENDROOT
BRANCH   6   8
ATOM      8  N   UNL     1       4.194   6.774  18.083  0.00  0.00    +0.000 NA
ATOM      9  C   UNL     1       2.925   6.964  17.898  0.00  0.00    +0.000 C 
BRANCH   9  10
ATOM     10  C   UNL     1       2.161   7.915  18.739  0.00  0.00    +0.000 A 
ATOM     11  C   UNL     1       1.639   9.088  18.183  0.00  0.00    +0.000 A 
ATOM     12  C   UNL     1       0.915   9.979  18.979  0.00  0.00    +0.000 A 
ATOM     13  C   UNL     1       0.714   9.693  20.335  0.00  0.00    +0.000 A 
ATOM     14  C   UNL     1       1.234   8.518  20.899  0.00  0.00    +0.000 A 
ATOM     15  C   UNL     1       1.959   7.628  20.097  0.00  0.00    +0.000 A 
BRANCH  13  16
ATOM     16  N   UNL     1      -0.049  10.634  21.168  0.00  0.00    +0.000 N 
ATOM     17  O   UNL     1      -1.019  11.202  20.653  0.00  0.00    +0.000 OA
ATOM     18  O   UNL     1       0.328  10.801  22.336  0.00  0.00    +0.000 OA
ENDBRANCH  13  16
ENDBRANCH   9  10
ENDBRANCH   6   8
BRANCH   5  19
ATOM     19  C   UNL     1       4.894   4.070  19.007  0.00  0.00    +0.000 C 
BRANCH  19  20
ATOM     20  C   UNL     1       3.471   3.593  19.185  0.00  0.00    +0.000 A 
ATOM     21  C   UNL     1       2.672   4.120  20.207  0.00  0.00    +0.000 A 
ATOM     22  C   UNL     1       1.326   3.768  20.314  0.00  0.00    +0.000 A 
ATOM     23  C   UNL     1       0.764   2.875  19.405  0.00  0.00    +0.000 A 
ATOM     24  C   UNL     1       1.555   2.318  18.401  0.00  0.00    +0.000 A 
ATOM     25  C   UNL     1       2.904   2.669  18.295  0.00  0.00    +0.000 A 
ENDBRANCH  19  20
ENDBRANCH   5  19
TORSDOF 5
ENDMDL
MODEL 7
REMARK VINA RESULT:      -8.1      3.523      7.349
REMARK  Name = 
REMARK  5 active torsions:
REMARK  status: ('A' for Active; 'I' for Inactive)
REMARK    1  A    between atoms: C_5  and  C_6
REMARK    2  A    between atoms: C_6  and  C_7
REMARK    3  A    between atoms: N_13  and  N_14
REMARK    4  A    between atoms: C_15  and  C_16
REMARK    5  A    between atoms: C_19  and  N_20
REMARK                            x       y       z     vdW  Elec       q    Type
REMARK                         _______ _______ _______ _____ _____    ______ ____
ROOT
ATOM      1  O   UNL     1       6.709   6.716  16.971  0.00  0.00    +0.000 OA
ATOM      2  C   UNL     1       5.969   5.747  16.908  0.00  0.00    +0.000 A 
ATOM      3  N   UNL     1       6.243   4.589  16.179  0.00  0.00    +0.000 N 
ATOM      4  N   UNL     1       5.196   3.713  16.236  0.00  0.00    +0.000 NA
ATOM      5  C   UNL     1       4.319   4.314  16.998  0.00  0.00    +0.000 A 
ATOM      6  N   UNL     1       4.715   5.528  17.461  0.00  0.00    +0.000 N 
ATOM      7  H   UNL     1       7.060   4.434  15.604  0.00  0.00    +0.000 HD
ENDROOT
BRANCH   6   8
ATOM      8  N   UNL     1       3.939   6.342  18.240  0.00  0.00    +0.000 NA
ATOM      9  C   UNL     1       3.195   7.237  17.671  0.00  0.00    +0.000 C 
BRANCH   9  10
ATOM     10  C   UNL     1       2.343   8.149  18.471  0.00  0.00    +0.000 A 
ATOM     11  C   UNL     1       2.001   7.823  19.788  0.00  0.00    +0.000 A 
ATOM     12  C   UNL     1       1.202   8.688  20.539  0.00  0.00    +0.000 A 
ATOM     13  C   UNL     1       0.744   9.882  19.968  0.00  0.00    +0.000 A 
ATOM     14  C   UNL     1       1.083  10.215  18.648  0.00  0.00    +0.000 A 
ATOM     15  C   UNL     1       1.885   9.344  17.899  0.00  0.00    +0.000 A 
BRANCH  13  16
ATOM     16  N   UNL     1      -0.096  10.788  20.763  0.00  0.00    +0.000 N 
ATOM     17  O   UNL     1      -1.190  11.120  20.292  0.00  0.00    +0.000 OA
ATOM     18  O   UNL     1       0.343  11.165  21.859  0.00  0.00    +0.000 OA
ENDBRANCH  13  16
ENDBRANCH   9  10
ENDBRANCH   6   8
BRANCH   5  19
ATOM     19  C   UNL     1       2.960   3.739  17.277  0.00  0.00    +0.000 C 
BRANCH  19  20
ATOM     20  C   UNL     1       2.616   3.571  18.739  0.00  0.00    +0.000 A 
ATOM     21  C   UNL     1       1.390   4.033  19.235  0.00  0.00    +0.000 A 
ATOM     22  C   UNL     1       1.016   3.787  20.556  0.00  0.00    +0.000 A 
ATOM     23  C   UNL     1       1.870   3.084  21.403  0.00  0.00    +0.000 A 
ATOM     24  C   UNL     1       3.106   2.645  20.934  0.00  0.00    +0.000 A 
ATOM     25  C   UNL     1       3.481   2.893  19.610  0.00  0.00    +0.000 A 
ENDBRANCH  19  20
ENDBRANCH   5  19
TORSDOF 5
ENDMDL
MODEL 8
REMARK VINA RESULT:      -8.1      3.440      7.301
REMARK  Name = 
REMARK  5 active torsions:
REMARK  status: ('A' for Active; 'I' for Inactive)
REMARK    1  A    between atoms: C_5  and  C_6
REMARK    2  A    between atoms: C_6  and  C_7
REMARK    3  A    between atoms: N_13  and  N_14
REMARK    4  A    between atoms: C_15  and  C_16
REMARK    5  A    between atoms: C_19  and  N_20
REMARK                            x       y       z     vdW  Elec       q    Type
REMARK                         _______ _______ _______ _____ _____    ______ ____
ROOT
ATOM      1  O   UNL     1       6.724   6.800  16.951  0.00  0.00    +0.000 OA
ATOM      2  C   UNL     1       6.034   5.796  16.865  0.00  0.00    +0.000 A 
ATOM      3  N   UNL     1       6.376   4.664  16.124  0.00  0.00    +0.000 N 
ATOM      4  N   UNL     1       5.373   3.736  16.154  0.00  0.00    +0.000 NA
ATOM      5  C   UNL     1       4.457   4.282  16.912  0.00  0.00    +0.000 A 
ATOM      6  N   UNL     1       4.785   5.508  17.396  0.00  0.00    +0.000 N 
ATOM      7  H   UNL     1       7.208   4.557  15.559  0.00  0.00    +0.000 HD
ENDROOT
BRANCH   6   8
ATOM      8  N   UNL     1       3.959   6.271  18.174  0.00  0.00    +0.000 NA
ATOM      9  C   UNL     1       3.257   7.208  17.618  0.00  0.00    +0.000 C 
BRANCH   9  10
ATOM     10  C   UNL     1       2.353   8.068  18.419  0.00  0.00    +0.000 A 
ATOM     11  C   UNL     1       1.800   9.225  17.860  0.00  0.00    +0.000 A 
ATOM     12  C   UNL     1       0.946  10.029  18.618  0.00  0.00    +0.000 A 
ATOM     13  C   UNL     1       0.645   9.672  19.939  0.00  0.00    +0.000 A 
ATOM     14  C   UNL     1       1.196   8.512  20.505  0.00  0.00    +0.000 A 
ATOM     15  C   UNL     1       2.053   7.709  19.741  0.00  0.00    +0.000 A 
BRANCH  13  16
ATOM     16  N   UNL     1      -0.255  10.522  20.731  0.00  0.00    +0.000 N 
ATOM     17  O   UNL     1      -0.180  10.447  21.963  0.00  0.00    +0.000 OA
ATOM     18  O   UNL     1      -1.035  11.262  20.115  0.00  0.00    +0.000 OA
ENDBRANCH  13  16
ENDBRANCH   9  10
ENDBRANCH   6   8
BRANCH   5  19
ATOM     19  C   UNL     1       3.124   3.636  17.163  0.00  0.00    +0.000 C 
BRANCH  19  20
ATOM     20  C   UNL     1       2.715   3.540  18.615  0.00  0.00    +0.000 A 
ATOM     21  C   UNL     1       1.471   4.029  19.033  0.00  0.00    +0.000 A 
ATOM     22  C   UNL     1       1.039   3.848  20.347  0.00  0.00    +0.000 A 
ATOM     23  C   UNL     1       1.850   3.184  21.263  0.00  0.00    +0.000 A 
ATOM     24  C   UNL     1       3.104   2.719  20.871  0.00  0.00    +0.000 A 
ATOM     25  C   UNL     1       3.538   2.902  19.554  0.00  0.00    +0.000 A 
ENDBRANCH  19  20
ENDBRANCH   5  19
TORSDOF 5
ENDMDL
MODEL 9
REMARK VINA RESULT:      -8.1      3.436      7.147
REMARK  Name = 
REMARK  5 active torsions:
REMARK  status: ('A' for Active; 'I' for Inactive)
REMARK    1  A    between atoms: C_5  and  C_6
REMARK    2  A    between atoms: C_6  and  C_7
REMARK    3  A    between atoms: N_13  and  N_14
REMARK    4  A    between atoms: C_15  and  C_16
REMARK    5  A    between atoms: C_19  and  N_20
REMARK                            x       y       z     vdW  Elec       q    Type
REMARK                         _______ _______ _______ _____ _____    ______ ____
ROOT
ATOM      1  O   UNL     1       6.718   6.381  16.494  0.00  0.00    +0.000 OA
ATOM      2  C   UNL     1       5.993   5.408  16.631  0.00  0.00    +0.000 A 
ATOM      3  N   UNL     1       6.396   4.088  16.426  0.00  0.00    +0.000 N 
ATOM      4  N   UNL     1       5.348   3.224  16.579  0.00  0.00    +0.000 NA
ATOM      5  C   UNL     1       4.341   4.000  16.891  0.00  0.00    +0.000 A 
ATOM      6  N   UNL     1       4.650   5.320  16.965  0.00  0.00    +0.000 N 
ATOM      7  H   UNL     1       7.312   3.792  16.116  0.00  0.00    +0.000 HD
ENDROOT
BRANCH   6   8
ATOM      8  N   UNL     1       3.740   6.306  17.237  0.00  0.00    +0.000 NA
ATOM      9  C   UNL     1       3.466   6.586  18.472  0.00  0.00    +0.000 C 
BRANCH   9  10
ATOM     10  C   UNL     1       2.482   7.639  18.819  0.00  0.00    +0.000 A 
ATOM     11  C   UNL     1       2.040   8.542  17.847  0.00  0.00    +0.000 A 
ATOM     12  C   UNL     1       1.109   9.529  18.179  0.00  0.00    +0.000 A 
ATOM     13  C   UNL     1       0.619   9.610  19.488  0.00  0.00    +0.000 A 
ATOM     14  C   UNL     1       1.058   8.707  20.469  0.00  0.00    +0.000 A 
ATOM     15  C   UNL     1       1.992   7.719  20.131  0.00  0.00    +0.000 A 
BRANCH  13  16
ATOM     16  N   UNL     1      -0.361  10.650  19.832  0.00  0.00    +0.000 N 
ATOM     17  O   UNL     1      -1.114  11.049  18.936  0.00  0.00    +0.000 OA
ATOM     18  O   UNL     1      -0.372  11.065  20.999  0.00  0.00    +0.000 OA
ENDBRANCH  13  16
ENDBRANCH   9  10
ENDBRANCH   6   8
BRANCH   5  19
ATOM     19  C   UNL     1       2.945   3.477  17.079  0.00  0.00    +0.000 C 
BRANCH  19  20
ATOM     20  C   UNL     1       2.494   3.339  18.515  0.00  0.00    +0.000 A 
ATOM     21  C   UNL     1       3.357   2.807  19.480  0.00  0.00    +0.000 A 
ATOM     22  C   UNL     1       2.991   2.776  20.826  0.00  0.00    +0.000 A 
ATOM     23  C   UNL     1       1.750   3.268  21.223  0.00  0.00    +0.000 A 
ATOM     24  C   UNL     1       0.867   3.772  20.270  0.00  0.00    +0.000 A 
ATOM     25  C   UNL     1       1.233   3.802  18.921  0.00  0.00    +0.000 A 
ENDBRANCH  19  20
ENDBRANCH   5  19
TORSDOF 5
ENDMDL
