MODEL 1
REMARK VINA RESULT:      -6.7      0.000      0.000
REMARK  Name = 
REMARK  2 active torsions:
REMARK  status: ('A' for Active; 'I' for Inactive)
REMARK    1  A    between atoms: C_1  and  C_2
REMARK    2  A    between atoms: C_5  and  C_6
REMARK                            x       y       z     vdW  Elec       q    Type
REMARK                         _______ _______ _______ _____ _____    ______ ____
ROOT
ATOM      1  C   UNL     1       3.677   6.659  17.570  0.00  0.00    +0.000 A 
ATOM      2  C   UNL     1       3.678   5.198  17.734  0.00  0.00    +0.000 A 
ATOM      3  C   UNL     1       4.618   4.792  16.889  0.00  0.00    +0.000 A 
ATOM      4  N   UNL     1       5.161   3.603  16.507  0.00  0.00    +0.000 N 
ATOM      5  C   UNL     1       6.179   3.618  15.582  0.00  0.00    +0.000 A 
ATOM      6  C   UNL     1       6.635   4.768  15.039  0.00  0.00    +0.000 A 
ATOM      7  N   UNL     1       6.130   6.027  15.345  0.00  0.00    +0.000 NA
ATOM      8  C   UNL     1       5.177   6.011  16.221  0.00  0.00    +0.000 A 
ATOM      9  N   UNL     1       4.518   7.115  16.689  0.00  0.00    +0.000 NA
ATOM     10  H   UNL     1       4.838   2.733  16.906  0.00  0.00    +0.000 HD
ENDROOT
BRANCH   1  15
ATOM     11  C   UNL     1       0.086   9.916  20.720  0.00  0.00    +0.000 C 
ATOM     12  C   UNL     1       1.017   9.078  19.894  0.00  0.00    +0.000 A 
ATOM     13  C   UNL     1       1.333   9.446  18.580  0.00  0.00    +0.000 A 
ATOM     14  C   UNL     1       2.198   8.660  17.816  0.00  0.00    +0.000 A 
ATOM     15  C   UNL     1       2.758   7.498  18.358  0.00  0.00    +0.000 A 
ATOM     16  C   UNL     1       2.431   7.115  19.662  0.00  0.00    +0.000 A 
ATOM     17  C   UNL     1       1.572   7.908  20.428  0.00  0.00    +0.000 A 
ENDBRANCH   1  15
TORSDOF 1
ENDMDL
MODEL 2
REMARK VINA RESULT:      -6.7      3.940      6.571
REMARK  Name = 
REMARK  2 active torsions:
REMARK  status: ('A' for Active; 'I' for Inactive)
REMARK    1  A    between atoms: C_1  and  C_2
REMARK    2  A    between atoms: C_5  and  C_6
REMARK                            x       y       z     vdW  Elec       q    Type
REMARK                         _______ _______ _______ _____ _____    ______ ____
ROOT
ATOM      1  C   UNL     1       4.268   3.797  18.041  0.00  0.00    +0.000 A 
ATOM      2  C   UNL     1       2.820   4.036  17.942  0.00  0.00    +0.000 A 
ATOM      3  C   UNL     1       2.357   3.618  19.114  0.00  0.00    +0.000 A 
ATOM      4  N   UNL     1       1.143   3.531  19.726  0.00  0.00    +0.000 N 
ATOM      5  C   UNL     1       1.095   3.041  21.011  0.00  0.00    +0.000 A 
ATOM      6  C   UNL     1       2.205   2.635  21.665  0.00  0.00    +0.000 A 
ATOM      7  N   UNL     1       3.483   2.662  21.117  0.00  0.00    +0.000 NA
ATOM      8  C   UNL     1       3.528   3.129  19.911  0.00  0.00    +0.000 A 
ATOM      9  N   UNL     1       4.663   3.259  19.157  0.00  0.00    +0.000 NA
ATOM     10  H   UNL     1       0.303   3.835  19.257  0.00  0.00    +0.000 HD
ENDROOT
BRANCH   1  15
ATOM     11  C   UNL     1       7.712   5.160  13.603  0.00  0.00    +0.000 C 
ATOM     12  C   UNL     1       6.827   4.809  14.762  0.00  0.00    +0.000 A 
ATOM     13  C   UNL     1       7.324   4.827  16.071  0.00  0.00    +0.000 A 
ATOM     14  C   UNL     1       6.496   4.496  17.145  0.00  0.00    +0.000 A 
ATOM     15  C   UNL     1       5.160   4.144  16.922  0.00  0.00    +0.000 A 
ATOM     16  C   UNL     1       4.663   4.105  15.616  0.00  0.00    +0.000 A 
ATOM     17  C   UNL     1       5.492   4.446  14.543  0.00  0.00    +0.000 A 
ENDBRANCH   1  15
TORSDOF 1
ENDMDL
MODEL 3
REMARK VINA RESULT:      -6.7      0.040      1.209
REMARK  Name = 
REMARK  2 active torsions:
REMARK  status: ('A' for Active; 'I' for Inactive)
REMARK    1  A    between atoms: C_1  and  C_2
REMARK    2  A    between atoms: C_5  and  C_6
REMARK                            x       y       z     vdW  Elec       q    Type
REMARK                         _______ _______ _______ _____ _____    ______ ____
ROOT
ATOM      1  C   UNL     1       3.670   6.663  17.579  0.00  0.00    +0.000 A 
ATOM      2  C   UNL     1       3.688   5.202  17.744  0.00  0.00    +0.000 A 
ATOM      3  C   UNL     1       4.617   4.806  16.883  0.00  0.00    +0.000 A 
ATOM      4  N   UNL     1       5.165   3.621  16.491  0.00  0.00    +0.000 N 
ATOM      5  C   UNL     1       6.166   3.647  15.548  0.00  0.00    +0.000 A 
ATOM      6  C   UNL     1       6.601   4.800  14.996  0.00  0.00    +0.000 A 
ATOM      7  N   UNL     1       6.088   6.054  15.311  0.00  0.00    +0.000 NA
ATOM      8  C   UNL     1       5.152   6.030  16.204  0.00  0.00    +0.000 A 
ATOM      9  N   UNL     1       4.490   7.128  16.683  0.00  0.00    +0.000 NA
ATOM     10  H   UNL     1       4.858   2.749  16.897  0.00  0.00    +0.000 HD
ENDROOT
BRANCH   1  15
ATOM     11  C   UNL     1       0.067   9.962  20.671  0.00  0.00    +0.000 C 
ATOM     12  C   UNL     1       1.002   9.098  19.878  0.00  0.00    +0.000 A 
ATOM     13  C   UNL     1       1.541   7.932  20.433  0.00  0.00    +0.000 A 
ATOM     14  C   UNL     1       2.413   7.134  19.690  0.00  0.00    +0.000 A 
ATOM     15  C   UNL     1       2.756   7.494  18.382  0.00  0.00    +0.000 A 
ATOM     16  C   UNL     1       2.237   8.668  17.829  0.00  0.00    +0.000 A 
ATOM     17  C   UNL     1       1.356   9.460  18.572  0.00  0.00    +0.000 A 
ENDBRANCH   1  15
TORSDOF 1
ENDMDL
MODEL 4
REMARK VINA RESULT:      -6.6      2.209      6.539
REMARK  Name = 
REMARK  2 active torsions:
REMARK  status: ('A' for Active; 'I' for Inactive)
REMARK    1  A    between atoms: C_1  and  C_2
REMARK    2  A    between atoms: C_5  and  C_6
REMARK                            x       y       z     vdW  Elec       q    Type
REMARK                         _______ _______ _______ _____ _____    ______ ____
ROOT
ATOM      1  C   UNL     1       2.889   7.064  18.378  0.00  0.00    +0.000 A 
ATOM      2  C   UNL     1       2.346   8.334  17.876  0.00  0.00    +0.000 A 
ATOM      3  C   UNL     1       1.676   8.817  18.916  0.00  0.00    +0.000 A 
ATOM      4  N   UNL     1       0.933   9.925  19.188  0.00  0.00    +0.000 N 
ATOM      5  C   UNL     1       0.411  10.066  20.453  0.00  0.00    +0.000 A 
ATOM      6  C   UNL     1       0.603   9.135  21.413  0.00  0.00    +0.000 A 
ATOM      7  N   UNL     1       1.324   7.961  21.226  0.00  0.00    +0.000 NA
ATOM      8  C   UNL     1       1.820   7.834  20.037  0.00  0.00    +0.000 A 
ATOM      9  N   UNL     1       2.567   6.772  19.604  0.00  0.00    +0.000 NA
ATOM     10  H   UNL     1       0.784  10.635  18.485  0.00  0.00    +0.000 HD
ENDROOT
BRANCH   1  15
ATOM     11  C   UNL     1       6.182   3.772  14.952  0.00  0.00    +0.000 C 
ATOM     12  C   UNL     1       5.323   4.616  15.845  0.00  0.00    +0.000 A 
ATOM     13  C   UNL     1       4.400   4.025  16.715  0.00  0.00    +0.000 A 
ATOM     14  C   UNL     1       3.601   4.816  17.543  0.00  0.00    +0.000 A 
ATOM     15  C   UNL     1       3.718   6.210  17.509  0.00  0.00    +0.000 A 
ATOM     16  C   UNL     1       4.624   6.808  16.629  0.00  0.00    +0.000 A 
ATOM     17  C   UNL     1       5.430   6.013  15.808  0.00  0.00    +0.000 A 
ENDBRANCH   1  15
TORSDOF 1
ENDMDL
MODEL 5
REMARK VINA RESULT:      -6.6      2.201      6.452
REMARK  Name = 
REMARK  2 active torsions:
REMARK  status: ('A' for Active; 'I' for Inactive)
REMARK    1  A    between atoms: C_1  and  C_2
REMARK    2  A    between atoms: C_5  and  C_6
REMARK                            x       y       z     vdW  Elec       q    Type
REMARK                         _______ _______ _______ _____ _____    ______ ____
ROOT
ATOM      1  C   UNL     1       2.892   7.087  18.344  0.00  0.00    +0.000 A 
ATOM      2  C   UNL     1       2.359   8.365  17.851  0.00  0.00    +0.000 A 
ATOM      3  C   UNL     1       1.675   8.835  18.887  0.00  0.00    +0.000 A 
ATOM      4  N   UNL     1       0.929   9.942  19.164  0.00  0.00    +0.000 N 
ATOM      5  C   UNL     1       0.389  10.065  20.423  0.00  0.00    +0.000 A 
ATOM      6  C   UNL     1       0.564   9.122  21.373  0.00  0.00    +0.000 A 
ATOM      7  N   UNL     1       1.286   7.948  21.180  0.00  0.00    +0.000 NA
ATOM      8  C   UNL     1       1.799   7.836  19.997  0.00  0.00    +0.000 A 
ATOM      9  N   UNL     1       2.551   6.779  19.561  0.00  0.00    +0.000 NA
ATOM     10  H   UNL     1       0.792  10.661  18.469  0.00  0.00    +0.000 HD
ENDROOT
BRANCH   1  15
ATOM     11  C   UNL     1       6.148   3.721  14.955  0.00  0.00    +0.000 C 
ATOM     12  C   UNL     1       5.308   4.604  15.829  0.00  0.00    +0.000 A 
ATOM     13  C   UNL     1       5.438   5.996  15.772  0.00  0.00    +0.000 A 
ATOM     14  C   UNL     1       4.655   6.812  16.591  0.00  0.00    +0.000 A 
ATOM     15  C   UNL     1       3.732   6.244  17.476  0.00  0.00    +0.000 A 
ATOM     16  C   UNL     1       3.611   4.854  17.551  0.00  0.00    +0.000 A 
ATOM     17  C   UNL     1       4.390   4.039  16.724  0.00  0.00    +0.000 A 
ENDBRANCH   1  15
TORSDOF 1
ENDMDL
MODEL 6
REMARK VINA RESULT:      -6.6      3.964      6.513
REMARK  Name = 
REMARK  2 active torsions:
REMARK  status: ('A' for Active; 'I' for Inactive)
REMARK    1  A    between atoms: C_1  and  C_2
REMARK    2  A    between atoms: C_5  and  C_6
REMARK                            x       y       z     vdW  Elec       q    Type
REMARK                         _______ _______ _______ _____ _____    ______ ____
ROOT
ATOM      1  C   UNL     1       4.263   3.794  17.999  0.00  0.00    +0.000 A 
ATOM      2  C   UNL     1       2.807   3.978  17.902  0.00  0.00    +0.000 A 
ATOM      3  C   UNL     1       2.365   3.571  19.086  0.00  0.00    +0.000 A 
ATOM      4  N   UNL     1       1.158   3.455  19.706  0.00  0.00    +0.000 N 
ATOM      5  C   UNL     1       1.133   2.995  21.003  0.00  0.00    +0.000 A 
ATOM      6  C   UNL     1       2.259   2.645  21.660  0.00  0.00    +0.000 A 
ATOM      7  N   UNL     1       3.534   2.704  21.105  0.00  0.00    +0.000 NA
ATOM      8  C   UNL     1       3.556   3.144  19.888  0.00  0.00    +0.000 A 
ATOM      9  N   UNL     1       4.682   3.296  19.125  0.00  0.00    +0.000 NA
ATOM     10  H   UNL     1       0.305   3.718  19.234  0.00  0.00    +0.000 HD
ENDROOT
BRANCH   1  15
ATOM     11  C   UNL     1       7.752   5.171  13.600  0.00  0.00    +0.000 C 
ATOM     12  C   UNL     1       6.838   4.812  14.734  0.00  0.00    +0.000 A 
ATOM     13  C   UNL     1       5.503   4.465  14.493  0.00  0.00    +0.000 A 
ATOM     14  C   UNL     1       4.657   4.134  15.553  0.00  0.00    +0.000 A 
ATOM     15  C   UNL     1       5.137   4.146  16.867  0.00  0.00    +0.000 A 
ATOM     16  C   UNL     1       6.463   4.510  17.116  0.00  0.00    +0.000 A 
ATOM     17  C   UNL     1       7.311   4.832  16.052  0.00  0.00    +0.000 A 
ENDBRANCH   1  15
TORSDOF 1
ENDMDL
MODEL 7
REMARK VINA RESULT:      -6.6      3.570      6.558
REMARK  Name = 
REMARK  2 active torsions:
REMARK  status: ('A' for Active; 'I' for Inactive)
REMARK    1  A    between atoms: C_1  and  C_2
REMARK    2  A    between atoms: C_5  and  C_6
REMARK                            x       y       z     vdW  Elec       q    Type
REMARK                         _______ _______ _______ _____ _____    ______ ____
ROOT
ATOM      1  C   UNL     1       4.386   4.059  17.821  0.00  0.00    +0.000 A 
ATOM      2  C   UNL     1       4.209   5.061  18.882  0.00  0.00    +0.000 A 
ATOM      3  C   UNL     1       3.370   4.472  19.726  0.00  0.00    +0.000 A 
ATOM      4  N   UNL     1       2.769   4.788  20.907  0.00  0.00    +0.000 N 
ATOM      5  C   UNL     1       1.955   3.847  21.496  0.00  0.00    +0.000 A 
ATOM      6  C   UNL     1       1.728   2.642  20.930  0.00  0.00    +0.000 A 
ATOM      7  N   UNL     1       2.275   2.238  19.716  0.00  0.00    +0.000 NA
ATOM      8  C   UNL     1       3.046   3.121  19.168  0.00  0.00    +0.000 A 
ATOM      9  N   UNL     1       3.702   2.963  17.977  0.00  0.00    +0.000 NA
ATOM     10  H   UNL     1       2.931   5.681  21.349  0.00  0.00    +0.000 HD
ENDROOT
BRANCH   1  15
ATOM     11  C   UNL     1       7.799   5.123  13.278  0.00  0.00    +0.000 C 
ATOM     12  C   UNL     1       6.922   4.851  14.464  0.00  0.00    +0.000 A 
ATOM     13  C   UNL     1       7.371   5.123  15.761  0.00  0.00    +0.000 A 
ATOM     14  C   UNL     1       6.550   4.865  16.861  0.00  0.00    +0.000 A 
ATOM     15  C   UNL     1       5.270   4.333  16.674  0.00  0.00    +0.000 A 
ATOM     16  C   UNL     1       4.822   4.041  15.383  0.00  0.00    +0.000 A 
ATOM     17  C   UNL     1       5.642   4.309  14.282  0.00  0.00    +0.000 A 
ENDBRANCH   1  15
TORSDOF 1
ENDMDL
MODEL 8
REMARK VINA RESULT:      -6.6      2.114      6.371
REMARK  Name = 
REMARK  2 active torsions:
REMARK  status: ('A' for Active; 'I' for Inactive)
REMARK    1  A    between atoms: C_1  and  C_2
REMARK    2  A    between atoms: C_5  and  C_6
REMARK                            x       y       z     vdW  Elec       q    Type
REMARK                         _______ _______ _______ _____ _____    ______ ____
ROOT
ATOM      1  C   UNL     1       3.020   6.977  18.233  0.00  0.00    +0.000 A 
ATOM      2  C   UNL     1       2.746   6.533  19.608  0.00  0.00    +0.000 A 
ATOM      3  C   UNL     1       1.991   7.507  20.102  0.00  0.00    +0.000 A 
ATOM      4  N   UNL     1       1.376   7.780  21.287  0.00  0.00    +0.000 N 
ATOM      5  C   UNL     1       0.633   8.934  21.385  0.00  0.00    +0.000 A 
ATOM      6  C   UNL     1       0.514   9.798  20.354  0.00  0.00    +0.000 A 
ATOM      7  N   UNL     1       1.123   9.620  19.115  0.00  0.00    +0.000 NA
ATOM      8  C   UNL     1       1.815   8.530  19.023  0.00  0.00    +0.000 A 
ATOM      9  N   UNL     1       2.506   8.127  17.912  0.00  0.00    +0.000 NA
ATOM     10  H   UNL     1       1.448   7.143  22.067  0.00  0.00    +0.000 HD
ENDROOT
BRANCH   1  15
ATOM     11  C   UNL     1       6.272   3.789  14.672  0.00  0.00    +0.000 C 
ATOM     12  C   UNL     1       5.424   4.606  15.600  0.00  0.00    +0.000 A 
ATOM     13  C   UNL     1       4.567   3.986  16.517  0.00  0.00    +0.000 A 
ATOM     14  C   UNL     1       3.778   4.752  17.377  0.00  0.00    +0.000 A 
ATOM     15  C   UNL     1       3.839   6.149  17.331  0.00  0.00    +0.000 A 
ATOM     16  C   UNL     1       4.679   6.775  16.405  0.00  0.00    +0.000 A 
ATOM     17  C   UNL     1       5.474   6.005  15.551  0.00  0.00    +0.000 A 
ENDBRANCH   1  15
TORSDOF 1
ENDMDL
MODEL 9
REMARK VINA RESULT:      -6.6      2.113      6.273
REMARK  Name = 
REMARK  2 active torsions:
REMARK  status: ('A' for Active; 'I' for Inactive)
REMARK    1  A    between atoms: C_1  and  C_2
REMARK    2  A    between atoms: C_5  and  C_6
REMARK                            x       y       z     vdW  Elec       q    Type
REMARK                         _______ _______ _______ _____ _____    ______ ____
ROOT
ATOM      1  C   UNL     1       3.064   6.974  18.215  0.00  0.00    +0.000 A 
ATOM      2  C   UNL     1       2.794   6.502  19.581  0.00  0.00    +0.000 A 
ATOM      3  C   UNL     1       2.031   7.459  20.094  0.00  0.00    +0.000 A 
ATOM      4  N   UNL     1       1.414   7.705  21.284  0.00  0.00    +0.000 N 
ATOM      5  C   UNL     1       0.662   8.850  21.404  0.00  0.00    +0.000 A 
ATOM      6  C   UNL     1       0.535   9.733  20.390  0.00  0.00    +0.000 A 
ATOM      7  N   UNL     1       1.145   9.583  19.148  0.00  0.00    +0.000 NA
ATOM      8  C   UNL     1       1.846   8.502  19.035  0.00  0.00    +0.000 A 
ATOM      9  N   UNL     1       2.540   8.126  17.916  0.00  0.00    +0.000 NA
ATOM     10  H   UNL     1       1.492   7.054  22.052  0.00  0.00    +0.000 HD
ENDROOT
BRANCH   1  15
ATOM     11  C   UNL     1       6.266   3.763  14.630  0.00  0.00    +0.000 C 
ATOM     12  C   UNL     1       5.440   4.605  15.555  0.00  0.00    +0.000 A 
ATOM     13  C   UNL     1       5.517   6.002  15.510  0.00  0.00    +0.000 A 
ATOM     14  C   UNL     1       4.747   6.781  16.376  0.00  0.00    +0.000 A 
ATOM     15  C   UNL     1       3.889   6.171  17.297  0.00  0.00    +0.000 A 
ATOM     16  C   UNL     1       3.821   4.776  17.361  0.00  0.00    +0.000 A 
ATOM     17  C   UNL     1       4.587   3.998  16.486  0.00  0.00    +0.000 A 
ENDBRANCH   1  15
TORSDOF 1
ENDMDL
