MODEL 1
REMARK VINA RESULT:      -8.8      0.000      0.000
REMARK  Name = 
REMARK  3 active torsions:
REMARK  status: ('A' for Active; 'I' for Inactive)
REMARK    1  A    between atoms: C_1  and  C_2
REMARK    2  A    between atoms: C_6  and  C_7
REMARK    3  A    between atoms: C_7  and  C_9
REMARK                            x       y       z     vdW  Elec       q    Type
REMARK                         _______ _______ _______ _____ _____    ______ ____
ROOT
ATOM      1  C   UNL     1       5.784   6.038  16.515  0.00  0.00    +0.000 C 
ATOM      2  C   UNL     1       4.910   5.600  17.440  0.00  0.00    +0.000 C 
ATOM      3  N   UNL     1       4.929   4.356  18.052  0.00  0.00    +0.000 N 
ATOM      4  C   UNL     1       3.714   3.685  18.256  0.00  0.00    +0.000 A 
ATOM      5  C   UNL     1       3.703   2.325  18.569  0.00  0.00    +0.000 A 
ATOM      6  C   UNL     1       2.491   1.665  18.758  0.00  0.00    +0.000 A 
ATOM      7  C   UNL     1       1.291   2.368  18.656  0.00  0.00    +0.000 A 
ATOM      8  C   UNL     1       1.293   3.743  18.397  0.00  0.00    +0.000 A 
ATOM      9  C   UNL     1       2.506   4.401  18.215  0.00  0.00    +0.000 A 
ATOM     10  N   UNL     1       2.544   5.791  17.992  0.00  0.00    +0.000 N 
ATOM     11  C   UNL     1       3.704   6.476  17.692  0.00  0.00    +0.000 C 
ATOM     12  O   UNL     1       3.728   7.699  17.566  0.00  0.00    +0.000 OA
ATOM     13  H   UNL     1       5.676   3.753  17.692  0.00  0.00    +0.000 HD
ATOM     14  H   UNL     1       1.700   6.340  18.057  0.00  0.00    +0.000 HD
ENDROOT
BRANCH   1  15
ATOM     15  C   UNL     1       6.811   5.089  15.995  0.00  0.00    +0.000 C 
ATOM     16  O   UNL     1       7.593   4.531  16.766  0.00  0.00    +0.000 OA
BRANCH  15  22
ATOM     17  C   UNL     1       5.300   2.592  11.862  0.00  0.00    +0.000 C 
ATOM     18  C   UNL     1       6.185   3.604  12.531  0.00  0.00    +0.000 A 
ATOM     19  C   UNL     1       7.104   4.353  11.786  0.00  0.00    +0.000 A 
ATOM     20  C   UNL     1       7.920   5.284  12.407  0.00  0.00    +0.000 A 
ATOM     21  C   UNL     1       7.818   5.487  13.783  0.00  0.00    +0.000 A 
ATOM     22  C   UNL     1       6.889   4.759  14.547  0.00  0.00    +0.000 A 
ATOM     23  C   UNL     1       6.087   3.806  13.917  0.00  0.00    +0.000 A 
ENDBRANCH  15  22
ENDBRANCH   1  15
TORSDOF 2
ENDMDL
MODEL 2
REMARK VINA RESULT:      -8.3      2.632      6.580
REMARK  Name = 
REMARK  3 active torsions:
REMARK  status: ('A' for Active; 'I' for Inactive)
REMARK    1  A    between atoms: C_1  and  C_2
REMARK    2  A    between atoms: C_6  and  C_7
REMARK    3  A    between atoms: C_7  and  C_9
REMARK                            x       y       z     vdW  Elec       q    Type
REMARK                         _______ _______ _______ _____ _____    ______ ____
ROOT
ATOM      1  C   UNL     1       4.009   3.282  16.562  0.00  0.00    +0.000 C 
ATOM      2  C   UNL     1       5.212   3.884  16.540  0.00  0.00    +0.000 C 
ATOM      3  N   UNL     1       6.115   3.938  17.591  0.00  0.00    +0.000 N 
ATOM      4  C   UNL     1       6.801   5.137  17.831  0.00  0.00    +0.000 A 
ATOM      5  C   UNL     1       7.467   5.339  19.042  0.00  0.00    +0.000 A 
ATOM      6  C   UNL     1       8.136   6.537  19.276  0.00  0.00    +0.000 A 
ATOM      7  C   UNL     1       8.160   7.526  18.292  0.00  0.00    +0.000 A 
ATOM      8  C   UNL     1       7.543   7.312  17.055  0.00  0.00    +0.000 A 
ATOM      9  C   UNL     1       6.880   6.110  16.822  0.00  0.00    +0.000 A 
ATOM     10  N   UNL     1       6.283   5.848  15.573  0.00  0.00    +0.000 N 
ATOM     11  C   UNL     1       5.518   4.728  15.323  0.00  0.00    +0.000 C 
ATOM     12  O   UNL     1       5.060   4.483  14.208  0.00  0.00    +0.000 OA
ATOM     13  H   UNL     1       5.753   3.494  18.442  0.00  0.00    +0.000 HD
ATOM     14  H   UNL     1       6.412   6.488  14.804  0.00  0.00    +0.000 HD
ENDROOT
BRANCH   1  15
ATOM     15  C   UNL     1       3.521   2.704  17.849  0.00  0.00    +0.000 C 
ATOM     16  O   UNL     1       3.744   1.526  18.129  0.00  0.00    +0.000 OA
BRANCH  15  22
ATOM     17  C   UNL     1       2.230   7.146  19.899  0.00  0.00    +0.000 C 
ATOM     18  C   UNL     1       2.129   5.649  19.846  0.00  0.00    +0.000 A 
ATOM     19  C   UNL     1       1.271   4.959  20.711  0.00  0.00    +0.000 A 
ATOM     20  C   UNL     1       1.182   3.578  20.661  0.00  0.00    +0.000 A 
ATOM     21  C   UNL     1       1.944   2.869  19.732  0.00  0.00    +0.000 A 
ATOM     22  C   UNL     1       2.798   3.542  18.841  0.00  0.00    +0.000 A 
ATOM     23  C   UNL     1       2.898   4.933  18.915  0.00  0.00    +0.000 A 
ENDBRANCH  15  22
ENDBRANCH   1  15
TORSDOF 2
ENDMDL
MODEL 3
REMARK VINA RESULT:      -8.2      2.055      6.714
REMARK  Name = 
REMARK  3 active torsions:
REMARK  status: ('A' for Active; 'I' for Inactive)
REMARK    1  A    between atoms: C_1  and  C_2
REMARK    2  A    between atoms: C_6  and  C_7
REMARK    3  A    between atoms: C_7  and  C_9
REMARK                            x       y       z     vdW  Elec       q    Type
REMARK                         _______ _______ _______ _____ _____    ______ ____
ROOT
ATOM      1  C   UNL     1       5.553   4.760  17.626  0.00  0.00    +0.000 C 
ATOM      2  C   UNL     1       5.757   5.082  16.336  0.00  0.00    +0.000 C 
ATOM      3  N   UNL     1       4.981   4.672  15.262  0.00  0.00    +0.000 N 
ATOM      4  C   UNL     1       5.621   4.293  14.073  0.00  0.00    +0.000 A 
ATOM      5  C   UNL     1       4.925   3.584  13.092  0.00  0.00    +0.000 A 
ATOM      6  C   UNL     1       5.572   3.203  11.919  0.00  0.00    +0.000 A 
ATOM      7  C   UNL     1       6.908   3.549  11.716  0.00  0.00    +0.000 A 
ATOM      8  C   UNL     1       7.599   4.306  12.668  0.00  0.00    +0.000 A 
ATOM      9  C   UNL     1       6.947   4.692  13.836  0.00  0.00    +0.000 A 
ATOM     10  N   UNL     1       7.602   5.488  14.796  0.00  0.00    +0.000 N 
ATOM     11  C   UNL     1       7.048   5.803  16.020  0.00  0.00    +0.000 C 
ATOM     12  O   UNL     1       7.607   6.554  16.818  0.00  0.00    +0.000 OA
ATOM     13  H   UNL     1       4.227   4.036  15.544  0.00  0.00    +0.000 HD
ATOM     14  H   UNL     1       8.517   5.868  14.603  0.00  0.00    +0.000 HD
ENDROOT
BRANCH   1  15
ATOM     15  C   UNL     1       4.473   3.786  17.959  0.00  0.00    +0.000 C 
ATOM     16  O   UNL     1       4.440   2.680  17.417  0.00  0.00    +0.000 OA
BRANCH  15  22
ATOM     17  C   UNL     1       1.382   2.540  21.766  0.00  0.00    +0.000 C 
ATOM     18  C   UNL     1       1.960   3.560  20.828  0.00  0.00    +0.000 A 
ATOM     19  C   UNL     1       1.593   4.907  20.923  0.00  0.00    +0.000 A 
ATOM     20  C   UNL     1       2.126   5.845  20.055  0.00  0.00    +0.000 A 
ATOM     21  C   UNL     1       3.046   5.446  19.085  0.00  0.00    +0.000 A 
ATOM     22  C   UNL     1       3.442   4.101  18.983  0.00  0.00    +0.000 A 
ATOM     23  C   UNL     1       2.882   3.160  19.848  0.00  0.00    +0.000 A 
ENDBRANCH  15  22
ENDBRANCH   1  15
TORSDOF 2
ENDMDL
MODEL 4
REMARK VINA RESULT:      -8.2      2.655      4.638
REMARK  Name = 
REMARK  3 active torsions:
REMARK  status: ('A' for Active; 'I' for Inactive)
REMARK    1  A    between atoms: C_1  and  C_2
REMARK    2  A    between atoms: C_6  and  C_7
REMARK    3  A    between atoms: C_7  and  C_9
REMARK                            x       y       z     vdW  Elec       q    Type
REMARK                         _______ _______ _______ _____ _____    ______ ____
ROOT
ATOM      1  C   UNL     1       4.953   3.602  16.665  0.00  0.00    +0.000 C 
ATOM      2  C   UNL     1       3.807   4.014  17.237  0.00  0.00    +0.000 C 
ATOM      3  N   UNL     1       3.350   5.322  17.295  0.00  0.00    +0.000 N 
ATOM      4  C   UNL     1       2.762   5.780  18.483  0.00  0.00    +0.000 A 
ATOM      5  C   UNL     1       2.579   7.147  18.699  0.00  0.00    +0.000 A 
ATOM      6  C   UNL     1       2.004   7.592  19.886  0.00  0.00    +0.000 A 
ATOM      7  C   UNL     1       1.592   6.672  20.850  0.00  0.00    +0.000 A 
ATOM      8  C   UNL     1       1.720   5.297  20.620  0.00  0.00    +0.000 A 
ATOM      9  C   UNL     1       2.288   4.855  19.429  0.00  0.00    +0.000 A 
ATOM     10  N   UNL     1       2.395   3.478  19.150  0.00  0.00    +0.000 N 
ATOM     11  C   UNL     1       3.051   2.982  18.042  0.00  0.00    +0.000 C 
ATOM     12  O   UNL     1       3.077   1.780  17.782  0.00  0.00    +0.000 OA
ATOM     13  H   UNL     1       4.012   5.987  16.881  0.00  0.00    +0.000 HD
ATOM     14  H   UNL     1       1.974   2.801  19.768  0.00  0.00    +0.000 HD
ENDROOT
BRANCH   1  15
ATOM     15  C   UNL     1       5.896   4.629  16.131  0.00  0.00    +0.000 C 
ATOM     16  O   UNL     1       5.966   4.843  14.920  0.00  0.00    +0.000 OA
BRANCH  15  22
ATOM     17  C   UNL     1       7.927   9.000  17.667  0.00  0.00    +0.000 C 
ATOM     18  C   UNL     1       7.716   7.523  17.836  0.00  0.00    +0.000 A 
ATOM     19  C   UNL     1       8.261   6.844  18.931  0.00  0.00    +0.000 A 
ATOM     20  C   UNL     1       8.066   5.481  19.082  0.00  0.00    +0.000 A 
ATOM     21  C   UNL     1       7.309   4.782  18.142  0.00  0.00    +0.000 A 
ATOM     22  C   UNL     1       6.736   5.448  17.044  0.00  0.00    +0.000 A 
ATOM     23  C   UNL     1       6.958   6.817  16.888  0.00  0.00    +0.000 A 
ENDBRANCH  15  22
ENDBRANCH   1  15
TORSDOF 2
ENDMDL
MODEL 5
REMARK VINA RESULT:      -8.1      1.996      6.790
REMARK  Name = 
REMARK  3 active torsions:
REMARK  status: ('A' for Active; 'I' for Inactive)
REMARK    1  A    between atoms: C_1  and  C_2
REMARK    2  A    between atoms: C_6  and  C_7
REMARK    3  A    between atoms: C_7  and  C_9
REMARK                            x       y       z     vdW  Elec       q    Type
REMARK                         _______ _______ _______ _____ _____    ______ ____
ROOT
ATOM      1  C   UNL     1       5.437   4.554  17.801  0.00  0.00    +0.000 C 
ATOM      2  C   UNL     1       5.693   4.957  16.543  0.00  0.00    +0.000 C 
ATOM      3  N   UNL     1       4.947   4.637  15.419  0.00  0.00    +0.000 N 
ATOM      4  C   UNL     1       5.620   4.324  14.229  0.00  0.00    +0.000 A 
ATOM      5  C   UNL     1       4.945   3.699  13.179  0.00  0.00    +0.000 A 
ATOM      6  C   UNL     1       5.624   3.382  12.006  0.00  0.00    +0.000 A 
ATOM      7  C   UNL     1       6.973   3.709  11.871  0.00  0.00    +0.000 A 
ATOM      8  C   UNL     1       7.646   4.385  12.895  0.00  0.00    +0.000 A 
ATOM      9  C   UNL     1       6.962   4.706  14.064  0.00  0.00    +0.000 A 
ATOM     10  N   UNL     1       7.599   5.422  15.097  0.00  0.00    +0.000 N 
ATOM     11  C   UNL     1       7.009   5.667  16.320  0.00  0.00    +0.000 C 
ATOM     12  O   UNL     1       7.556   6.350  17.185  0.00  0.00    +0.000 OA
ATOM     13  H   UNL     1       4.171   4.001  15.632  0.00  0.00    +0.000 HD
ATOM     14  H   UNL     1       8.528   5.792  14.961  0.00  0.00    +0.000 HD
ENDROOT
BRANCH   1  15
ATOM     15  C   UNL     1       4.326   3.585  18.031  0.00  0.00    +0.000 C 
ATOM     16  O   UNL     1       4.322   2.493  17.461  0.00  0.00    +0.000 OA
BRANCH  15  22
ATOM     17  C   UNL     1       1.512   6.757  20.791  0.00  0.00    +0.000 C 
ATOM     18  C   UNL     1       1.832   5.372  20.308  0.00  0.00    +0.000 A 
ATOM     19  C   UNL     1       1.043   4.281  20.690  0.00  0.00    +0.000 A 
ATOM     20  C   UNL     1       1.342   3.004  20.244  0.00  0.00    +0.000 A 
ATOM     21  C   UNL     1       2.431   2.805  19.396  0.00  0.00    +0.000 A 
ATOM     22  C   UNL     1       3.227   3.889  18.984  0.00  0.00    +0.000 A 
ATOM     23  C   UNL     1       2.931   5.168  19.458  0.00  0.00    +0.000 A 
ENDBRANCH  15  22
ENDBRANCH   1  15
TORSDOF 2
ENDMDL
MODEL 6
REMARK VINA RESULT:      -8.1      1.077      1.077
REMARK  Name = 
REMARK  3 active torsions:
REMARK  status: ('A' for Active; 'I' for Inactive)
REMARK    1  A    between atoms: C_1  and  C_2
REMARK    2  A    between atoms: C_6  and  C_7
REMARK    3  A    between atoms: C_7  and  C_9
REMARK                            x       y       z     vdW  Elec       q    Type
REMARK                         _______ _______ _______ _____ _____    ______ ____
ROOT
ATOM      1  C   UNL     1       5.186   6.001  16.568  0.00  0.00    +0.000 C 
ATOM      2  C   UNL     1       4.552   5.884  17.748  0.00  0.00    +0.000 C 
ATOM      3  N   UNL     1       4.764   4.889  18.691  0.00  0.00    +0.000 N 
ATOM      4  C   UNL     1       3.657   4.333  19.348  0.00  0.00    +0.000 A 
ATOM      5  C   UNL     1       3.782   3.136  20.055  0.00  0.00    +0.000 A 
ATOM      6  C   UNL     1       2.674   2.587  20.694  0.00  0.00    +0.000 A 
ATOM      7  C   UNL     1       1.444   3.243  20.646  0.00  0.00    +0.000 A 
ATOM      8  C   UNL     1       1.320   4.471  19.987  0.00  0.00    +0.000 A 
ATOM      9  C   UNL     1       2.432   5.021  19.354  0.00  0.00    +0.000 A 
ATOM     10  N   UNL     1       2.349   6.274  18.716  0.00  0.00    +0.000 N 
ATOM     11  C   UNL     1       3.382   6.814  17.978  0.00  0.00    +0.000 C 
ATOM     12  O   UNL     1       3.315   7.939  17.483  0.00  0.00    +0.000 OA
ATOM     13  H   UNL     1       5.449   4.192  18.378  0.00  0.00    +0.000 HD
ATOM     14  H   UNL     1       1.510   6.830  18.793  0.00  0.00    +0.000 HD
ENDROOT
BRANCH   1  15
ATOM     15  C   UNL     1       6.128   4.922  16.150  0.00  0.00    +0.000 C 
ATOM     16  O   UNL     1       6.687   4.220  16.994  0.00  0.00    +0.000 OA
BRANCH  15  22
ATOM     17  C   UNL     1       4.909   2.864  11.692  0.00  0.00    +0.000 C 
ATOM     18  C   UNL     1       5.828   3.688  12.547  0.00  0.00    +0.000 A 
ATOM     19  C   UNL     1       6.961   4.298  11.997  0.00  0.00    +0.000 A 
ATOM     20  C   UNL     1       7.808   5.056  12.789  0.00  0.00    +0.000 A 
ATOM     21  C   UNL     1       7.522   5.223  14.144  0.00  0.00    +0.000 A 
ATOM     22  C   UNL     1       6.380   4.635  14.714  0.00  0.00    +0.000 A 
ATOM     23  C   UNL     1       5.545   3.854  13.912  0.00  0.00    +0.000 A 
ENDBRANCH  15  22
ENDBRANCH   1  15
TORSDOF 2
ENDMDL
MODEL 7
REMARK VINA RESULT:      -8.1      1.972      2.921
REMARK  Name = 
REMARK  3 active torsions:
REMARK  status: ('A' for Active; 'I' for Inactive)
REMARK    1  A    between atoms: C_1  and  C_2
REMARK    2  A    between atoms: C_6  and  C_7
REMARK    3  A    between atoms: C_7  and  C_9
REMARK                            x       y       z     vdW  Elec       q    Type
REMARK                         _______ _______ _______ _____ _____    ______ ____
ROOT
ATOM      1  C   UNL     1       5.071   3.585  16.788  0.00  0.00    +0.000 C 
ATOM      2  C   UNL     1       3.926   4.006  17.355  0.00  0.00    +0.000 C 
ATOM      3  N   UNL     1       3.393   5.283  17.264  0.00  0.00    +0.000 N 
ATOM      4  C   UNL     1       2.825   5.861  18.409  0.00  0.00    +0.000 A 
ATOM      5  C   UNL     1       2.568   7.232  18.455  0.00  0.00    +0.000 A 
ATOM      6  C   UNL     1       2.014   7.798  19.600  0.00  0.00    +0.000 A 
ATOM      7  C   UNL     1       1.695   6.991  20.692  0.00  0.00    +0.000 A 
ATOM      8  C   UNL     1       1.896   5.608  20.636  0.00  0.00    +0.000 A 
ATOM      9  C   UNL     1       2.444   5.044  19.487  0.00  0.00    +0.000 A 
ATOM     10  N   UNL     1       2.623   3.651  19.384  0.00  0.00    +0.000 N 
ATOM     11  C   UNL     1       3.264   3.049  18.321  0.00  0.00    +0.000 C 
ATOM     12  O   UNL     1       3.352   1.826  18.217  0.00  0.00    +0.000 OA
ATOM     13  H   UNL     1       3.998   5.923  16.738  0.00  0.00    +0.000 HD
ATOM     14  H   UNL     1       2.267   3.038  20.103  0.00  0.00    +0.000 HD
ENDROOT
BRANCH   1  15
ATOM     15  C   UNL     1       5.929   4.582  16.084  0.00  0.00    +0.000 C 
ATOM     16  O   UNL     1       6.371   5.562  16.686  0.00  0.00    +0.000 OA
BRANCH  15  22
ATOM     17  C   UNL     1       5.339   2.532  11.496  0.00  0.00    +0.000 C 
ATOM     18  C   UNL     1       6.057   3.459  12.434  0.00  0.00    +0.000 A 
ATOM     19  C   UNL     1       7.107   4.266  11.979  0.00  0.00    +0.000 A 
ATOM     20  C   UNL     1       7.768   5.118  12.848  0.00  0.00    +0.000 A 
ATOM     21  C   UNL     1       7.376   5.183  14.185  0.00  0.00    +0.000 A 
ATOM     22  C   UNL     1       6.312   4.397  14.660  0.00  0.00    +0.000 A 
ATOM     23  C   UNL     1       5.667   3.524  13.782  0.00  0.00    +0.000 A 
ENDBRANCH  15  22
ENDBRANCH   1  15
TORSDOF 2
ENDMDL
MODEL 8
REMARK VINA RESULT:      -7.9      1.471      2.025
REMARK  Name = 
REMARK  3 active torsions:
REMARK  status: ('A' for Active; 'I' for Inactive)
REMARK    1  A    between atoms: C_1  and  C_2
REMARK    2  A    between atoms: C_6  and  C_7
REMARK    3  A    between atoms: C_7  and  C_9
REMARK                            x       y       z     vdW  Elec       q    Type
REMARK                         _______ _______ _______ _____ _____    ______ ____
ROOT
ATOM      1  C   UNL     1       6.218   5.516  16.790  0.00  0.00    +0.000 C 
ATOM      2  C   UNL     1       5.500   4.683  17.565  0.00  0.00    +0.000 C 
ATOM      3  N   UNL     1       4.362   3.990  17.179  0.00  0.00    +0.000 N 
ATOM      4  C   UNL     1       3.290   3.898  18.078  0.00  0.00    +0.000 A 
ATOM      5  C   UNL     1       2.028   3.497  17.634  0.00  0.00    +0.000 A 
ATOM      6  C   UNL     1       0.967   3.421  18.532  0.00  0.00    +0.000 A 
ATOM      7  C   UNL     1       1.170   3.723  19.879  0.00  0.00    +0.000 A 
ATOM      8  C   UNL     1       2.442   4.072  20.344  0.00  0.00    +0.000 A 
ATOM      9  C   UNL     1       3.502   4.141  19.445  0.00  0.00    +0.000 A 
ATOM     10  N   UNL     1       4.803   4.451  19.889  0.00  0.00    +0.000 N 
ATOM     11  C   UNL     1       5.866   4.646  19.031  0.00  0.00    +0.000 C 
ATOM     12  O   UNL     1       7.008   4.851  19.440  0.00  0.00    +0.000 OA
ATOM     13  H   UNL     1       4.076   4.210  16.219  0.00  0.00    +0.000 HD
ATOM     14  H   UNL     1       4.998   4.532  20.875  0.00  0.00    +0.000 HD
ENDROOT
BRANCH   1  15
ATOM     15  C   UNL     1       5.714   5.835  15.422  0.00  0.00    +0.000 C 
ATOM     16  O   UNL     1       4.916   6.758  15.251  0.00  0.00    +0.000 OA
BRANCH  15  22
ATOM     17  C   UNL     1       5.159   2.418  11.733  0.00  0.00    +0.000 C 
ATOM     18  C   UNL     1       5.967   3.474  12.429  0.00  0.00    +0.000 A 
ATOM     19  C   UNL     1       7.218   3.860  11.933  0.00  0.00    +0.000 A 
ATOM     20  C   UNL     1       7.962   4.833  12.579  0.00  0.00    +0.000 A 
ATOM     21  C   UNL     1       7.455   5.444  13.727  0.00  0.00    +0.000 A 
ATOM     22  C   UNL     1       6.193   5.085  14.232  0.00  0.00    +0.000 A 
ATOM     23  C   UNL     1       5.461   4.086  13.587  0.00  0.00    +0.000 A 
ENDBRANCH  15  22
ENDBRANCH   1  15
TORSDOF 2
ENDMDL
MODEL 9
REMARK VINA RESULT:      -7.8      2.644      6.534
REMARK  Name = 
REMARK  3 active torsions:
REMARK  status: ('A' for Active; 'I' for Inactive)
REMARK    1  A    between atoms: C_1  and  C_2
REMARK    2  A    between atoms: C_6  and  C_7
REMARK    3  A    between atoms: C_7  and  C_9
REMARK                            x       y       z     vdW  Elec       q    Type
REMARK                         _______ _______ _______ _____ _____    ______ ____
ROOT
ATOM      1  C   UNL     1       4.153   3.313  16.436  0.00  0.00    +0.000 C 
ATOM      2  C   UNL     1       5.329   3.965  16.438  0.00  0.00    +0.000 C 
ATOM      3  N   UNL     1       6.262   3.958  17.464  0.00  0.00    +0.000 N 
ATOM      4  C   UNL     1       6.909   5.158  17.796  0.00  0.00    +0.000 A 
ATOM      5  C   UNL     1       7.604   5.275  19.002  0.00  0.00    +0.000 A 
ATOM      6  C   UNL     1       8.233   6.473  19.328  0.00  0.00    +0.000 A 
ATOM      7  C   UNL     1       8.187   7.549  18.441  0.00  0.00    +0.000 A 
ATOM      8  C   UNL     1       7.541   7.424  17.206  0.00  0.00    +0.000 A 
ATOM      9  C   UNL     1       6.918   6.223  16.880  0.00  0.00    +0.000 A 
ATOM     10  N   UNL     1       6.293   6.052  15.629  0.00  0.00    +0.000 N 
ATOM     11  C   UNL     1       5.565   4.929  15.297  0.00  0.00    +0.000 C 
ATOM     12  O   UNL     1       5.082   4.769  14.177  0.00  0.00    +0.000 OA
ATOM     13  H   UNL     1       5.944   3.423  18.279  0.00  0.00    +0.000 HD
ATOM     14  H   UNL     1       6.373   6.765  14.920  0.00  0.00    +0.000 HD
ENDROOT
BRANCH   1  15
ATOM     15  C   UNL     1       3.727   2.600  17.676  0.00  0.00    +0.000 C 
ATOM     16  O   UNL     1       4.062   1.431  17.870  0.00  0.00    +0.000 OA
BRANCH  15  22
ATOM     17  C   UNL     1       1.229   2.730  22.074  0.00  0.00    +0.000 C 
ATOM     18  C   UNL     1       1.744   3.412  20.840  0.00  0.00    +0.000 A 
ATOM     19  C   UNL     1       1.553   4.785  20.649  0.00  0.00    +0.000 A 
ATOM     20  C   UNL     1       2.028   5.411  19.508  0.00  0.00    +0.000 A 
ATOM     21  C   UNL     1       2.714   4.668  18.547  0.00  0.00    +0.000 A 
ATOM     22  C   UNL     1       2.933   3.291  18.726  0.00  0.00    +0.000 A 
ATOM     23  C   UNL     1       2.430   2.666  19.868  0.00  0.00    +0.000 A 
ENDBRANCH  15  22
ENDBRANCH   1  15
TORSDOF 2
ENDMDL
