MODEL 1
REMARK VINA RESULT:      -7.7      0.000      0.000
REMARK  Name = 
REMARK  8 active torsions:
REMARK  status: ('A' for Active; 'I' for Inactive)
REMARK    1  A    between atoms: C_12  and  N_13
REMARK    2  A    between atoms: N_13  and  C_14
REMARK    3  A    between atoms: C_14  and  C_15
REMARK    4  A    between atoms: C_15  and  N_16
REMARK    5  A    between atoms: N_16  and  C_17
REMARK    6  A    between atoms: C_17  and  C_18
REMARK    7  A    between atoms: C_18  and  O_19
REMARK    8  A    between atoms: C_20  and  C_21
REMARK                            x       y       z     vdW  Elec       q    Type
REMARK                         _______ _______ _______ _____ _____    ______ ____
ROOT
ATOM      1  O   UNL     1       2.457   9.257  17.294  0.00  0.00    +0.000 OA
ATOM      2  C   UNL     1       2.835   8.241  17.871  0.00  0.00    +0.000 A 
ATOM      3  N   UNL     1       3.807   7.452  17.342  0.00  0.00    +0.000 N 
ATOM      4  C   UNL     1       4.060   6.188  17.791  0.00  0.00    +0.000 A 
ATOM      5  N   UNL     1       4.957   5.434  17.067  0.00  0.00    +0.000 N 
ATOM      6  C   UNL     1       6.110   5.974  16.338  0.00  0.00    +0.000 C 
ATOM      7  C   UNL     1       6.204   5.285  14.970  0.00  0.00    +0.000 C 
ATOM      8  O   UNL     1       6.322   3.859  15.112  0.00  0.00    +0.000 OA
ATOM      9  C   UNL     1       5.183   3.334  15.822  0.00  0.00    +0.000 C 
ATOM     10  C   UNL     1       5.053   3.969  17.219  0.00  0.00    +0.000 C 
ATOM     11  N   UNL     1       3.425   5.720  18.818  0.00  0.00    +0.000 NA
ATOM     12  C   UNL     1       2.573   6.518  19.554  0.00  0.00    +0.000 A 
ATOM     13  C   UNL     1       2.264   7.773  19.145  0.00  0.00    +0.000 A 
ATOM     14  H   UNL     1       4.147   7.737  16.442  0.00  0.00    +0.000 HD
ENDROOT
BRANCH  13  15
ATOM     15  C   UNL     1       1.456   8.657  19.902  0.00  0.00    +0.000 A 
ATOM     16  N   UNL     1       1.246   8.566  21.201  0.00  0.00    +0.000 NA
ATOM     17  C   UNL     1       0.348   9.526  21.622  0.00  0.00    +0.000 A 
ATOM     18  C   UNL     1      -0.109   9.693  22.943  0.00  0.00    +0.000 A 
ATOM     19  C   UNL     1      -1.087  10.651  23.224  0.00  0.00    +0.000 A 
ATOM     20  C   UNL     1      -1.593  11.456  22.208  0.00  0.00    +0.000 A 
ATOM     21  C   UNL     1      -1.125  11.335  20.894  0.00  0.00    +0.000 A 
ATOM     22  C   UNL     1      -0.154  10.356  20.621  0.00  0.00    +0.000 A 
ATOM     23  S   UNL     1       0.600   9.947  19.129  0.00  0.00    +0.000 S 
ENDBRANCH  13  15
BRANCH  12  24
ATOM     24  N   UNL     1       2.103   5.990  20.767  0.00  0.00    +0.000 N 
ATOM     25  H   UNL     1       1.548   6.696  21.254  0.00  0.00    +0.000 HD
BRANCH  24  26
ATOM     26  C   UNL     1       1.414   4.692  20.874  0.00  0.00    +0.000 C 
BRANCH  26  27
ATOM     27  C   UNL     1       2.245   3.521  21.445  0.00  0.00    +0.000 C 
BRANCH  27  28
ATOM     28  N   UNL     1       2.550   2.482  20.460  0.00  0.00    +0.000 NA
ATOM     29  H   UNL     1       2.810   1.614  20.924  0.00  0.00    +0.000 HD
BRANCH  28  30
ATOM     30  C   UNL     1       1.510   2.263  19.454  0.00  0.00    +0.000 C 
BRANCH  30  31
ATOM     31  C   UNL     1       2.007   2.422  18.009  0.00  0.00    +0.000 C 
BRANCH  31  32
ATOM     32  O   UNL     1       1.545   3.644  17.451  0.00  0.00    +0.000 OA
ATOM     33  H   UNL     1       2.350   4.069  17.072  0.00  0.00    +0.000 HD
ENDBRANCH  31  32
ENDBRANCH  30  31
ENDBRANCH  28  30
ENDBRANCH  27  28
ENDBRANCH  26  27
ENDBRANCH  24  26
ENDBRANCH  12  24
TORSDOF 8
ENDMDL
MODEL 2
REMARK VINA RESULT:      -7.5      0.927      1.292
REMARK  Name = 
REMARK  8 active torsions:
REMARK  status: ('A' for Active; 'I' for Inactive)
REMARK    1  A    between atoms: C_12  and  N_13
REMARK    2  A    between atoms: N_13  and  C_14
REMARK    3  A    between atoms: C_14  and  C_15
REMARK    4  A    between atoms: C_15  and  N_16
REMARK    5  A    between atoms: N_16  and  C_17
REMARK    6  A    between atoms: C_17  and  C_18
REMARK    7  A    between atoms: C_18  and  O_19
REMARK    8  A    between atoms: C_20  and  C_21
REMARK                            x       y       z     vdW  Elec       q    Type
REMARK                         _______ _______ _______ _____ _____    ______ ____
ROOT
ATOM      1  O   UNL     1       2.344   9.297  17.373  0.00  0.00    +0.000 OA
ATOM      2  C   UNL     1       2.730   8.279  17.942  0.00  0.00    +0.000 A 
ATOM      3  N   UNL     1       3.754   7.538  17.440  0.00  0.00    +0.000 N 
ATOM      4  C   UNL     1       4.029   6.272  17.869  0.00  0.00    +0.000 A 
ATOM      5  N   UNL     1       4.986   5.568  17.170  0.00  0.00    +0.000 N 
ATOM      6  C   UNL     1       6.152   6.166  16.512  0.00  0.00    +0.000 C 
ATOM      7  C   UNL     1       6.334   5.518  15.133  0.00  0.00    +0.000 C 
ATOM      8  O   UNL     1       6.496   4.094  15.244  0.00  0.00    +0.000 OA
ATOM      9  C   UNL     1       5.344   3.511  15.886  0.00  0.00    +0.000 C 
ATOM     10  C   UNL     1       5.125   4.104  17.290  0.00  0.00    +0.000 C 
ATOM     11  N   UNL     1       3.363   5.755  18.852  0.00  0.00    +0.000 NA
ATOM     12  C   UNL     1       2.449   6.504  19.566  0.00  0.00    +0.000 A 
ATOM     13  C   UNL     1       2.117   7.757  19.175  0.00  0.00    +0.000 A 
ATOM     14  H   UNL     1       4.125   7.858  16.565  0.00  0.00    +0.000 HD
ENDROOT
BRANCH  13  15
ATOM     15  C   UNL     1       1.243   8.593  19.914  0.00  0.00    +0.000 A 
ATOM     16  N   UNL     1       0.466   9.524  19.394  0.00  0.00    +0.000 NA
ATOM     17  C   UNL     1      -0.200  10.218  20.383  0.00  0.00    +0.000 A 
ATOM     18  C   UNL     1      -1.092  11.286  20.173  0.00  0.00    +0.000 A 
ATOM     19  C   UNL     1      -1.636  11.963  21.268  0.00  0.00    +0.000 A 
ATOM     20  C   UNL     1      -1.319  11.569  22.565  0.00  0.00    +0.000 A 
ATOM     21  C   UNL     1      -0.467  10.483  22.798  0.00  0.00    +0.000 A 
ATOM     22  C   UNL     1       0.088   9.822  21.689  0.00  0.00    +0.000 A 
ATOM     23  S   UNL     1       1.172   8.486  21.639  0.00  0.00    +0.000 S 
ENDBRANCH  13  15
BRANCH  12  24
ATOM     24  N   UNL     1       1.941   5.927  20.741  0.00  0.00    +0.000 N 
ATOM     25  H   UNL     1       0.922   5.883  20.686  0.00  0.00    +0.000 HD
BRANCH  24  26
ATOM     26  C   UNL     1       2.439   4.660  21.305  0.00  0.00    +0.000 C 
BRANCH  26  27
ATOM     27  C   UNL     1       1.492   3.445  21.200  0.00  0.00    +0.000 C 
BRANCH  27  28
ATOM     28  N   UNL     1       0.518   3.550  20.112  0.00  0.00    +0.000 NA
ATOM     29  H   UNL     1       0.545   4.478  19.695  0.00  0.00    +0.000 HD
BRANCH  28  30
ATOM     30  C   UNL     1       0.615   2.502  19.094  0.00  0.00    +0.000 C 
BRANCH  30  31
ATOM     31  C   UNL     1       1.849   2.634  18.188  0.00  0.00    +0.000 C 
BRANCH  31  32
ATOM     32  O   UNL     1       1.674   3.688  17.253  0.00  0.00    +0.000 OA
ATOM     33  H   UNL     1       1.358   4.452  17.790  0.00  0.00    +0.000 HD
ENDBRANCH  31  32
ENDBRANCH  30  31
ENDBRANCH  28  30
ENDBRANCH  27  28
ENDBRANCH  26  27
ENDBRANCH  24  26
ENDBRANCH  12  24
TORSDOF 8
ENDMDL
MODEL 3
REMARK VINA RESULT:      -7.3      1.006      1.009
REMARK  Name = 
REMARK  8 active torsions:
REMARK  status: ('A' for Active; 'I' for Inactive)
REMARK    1  A    between atoms: C_12  and  N_13
REMARK    2  A    between atoms: N_13  and  C_14
REMARK    3  A    between atoms: C_14  and  C_15
REMARK    4  A    between atoms: C_15  and  N_16
REMARK    5  A    between atoms: N_16  and  C_17
REMARK    6  A    between atoms: C_17  and  C_18
REMARK    7  A    between atoms: C_18  and  O_19
REMARK    8  A    between atoms: C_20  and  C_21
REMARK                            x       y       z     vdW  Elec       q    Type
REMARK                         _______ _______ _______ _____ _____    ______ ____
ROOT
ATOM      1  O   UNL     1       2.461   9.308  17.288  0.00  0.00    +0.000 OA
ATOM      2  C   UNL     1       2.841   8.283  17.848  0.00  0.00    +0.000 A 
ATOM      3  N   UNL     1       3.815   7.505  17.305  0.00  0.00    +0.000 N 
ATOM      4  C   UNL     1       4.071   6.235  17.734  0.00  0.00    +0.000 A 
ATOM      5  N   UNL     1       4.970   5.494  16.997  0.00  0.00    +0.000 N 
ATOM      6  C   UNL     1       6.120   6.048  16.276  0.00  0.00    +0.000 C 
ATOM      7  C   UNL     1       6.215   5.382  14.897  0.00  0.00    +0.000 C 
ATOM      8  O   UNL     1       6.337   3.955  15.016  0.00  0.00    +0.000 OA
ATOM      9  C   UNL     1       5.199   3.416  15.718  0.00  0.00    +0.000 C 
ATOM     10  C   UNL     1       5.068   4.027  17.125  0.00  0.00    +0.000 C 
ATOM     11  N   UNL     1       3.437   5.748  18.753  0.00  0.00    +0.000 NA
ATOM     12  C   UNL     1       2.584   6.533  19.502  0.00  0.00    +0.000 A 
ATOM     13  C   UNL     1       2.273   7.793  19.114  0.00  0.00    +0.000 A 
ATOM     14  H   UNL     1       4.154   7.805  16.410  0.00  0.00    +0.000 HD
ENDROOT
BRANCH  13  15
ATOM     15  C   UNL     1       1.463   8.663  19.886  0.00  0.00    +0.000 A 
ATOM     16  N   UNL     1       1.268   8.561  21.187  0.00  0.00    +0.000 NA
ATOM     17  C   UNL     1       0.364   9.508  21.624  0.00  0.00    +0.000 A 
ATOM     18  C   UNL     1      -0.080   9.661  22.951  0.00  0.00    +0.000 A 
ATOM     19  C   UNL     1      -1.066  10.606  23.249  0.00  0.00    +0.000 A 
ATOM     20  C   UNL     1      -1.592  11.412  22.244  0.00  0.00    +0.000 A 
ATOM     21  C   UNL     1      -1.137  11.305  20.924  0.00  0.00    +0.000 A 
ATOM     22  C   UNL     1      -0.158  10.339  20.634  0.00  0.00    +0.000 A 
ATOM     23  S   UNL     1       0.584   9.948  19.131  0.00  0.00    +0.000 S 
ENDBRANCH  13  15
BRANCH  12  24
ATOM     24  N   UNL     1       2.115   5.984  20.707  0.00  0.00    +0.000 N 
ATOM     25  H   UNL     1       1.669   6.715  21.264  0.00  0.00    +0.000 HD
BRANCH  24  26
ATOM     26  C   UNL     1       1.289   4.766  20.776  0.00  0.00    +0.000 C 
BRANCH  26  27
ATOM     27  C   UNL     1       2.044   3.438  21.009  0.00  0.00    +0.000 C 
BRANCH  27  28
ATOM     28  N   UNL     1       3.435   3.465  20.554  0.00  0.00    +0.000 NA
ATOM     29  H   UNL     1       4.024   3.946  21.230  0.00  0.00    +0.000 HD
BRANCH  28  30
ATOM     30  C   UNL     1       3.989   2.161  20.189  0.00  0.00    +0.000 C 
BRANCH  30  31
ATOM     31  C   UNL     1       3.388   1.573  18.903  0.00  0.00    +0.000 C 
BRANCH  31  32
ATOM     32  O   UNL     1       4.279   0.635  18.316  0.00  0.00    +0.000 OA
ATOM     33  H   UNL     1       3.772   0.238  17.569  0.00  0.00    +0.000 HD
ENDBRANCH  31  32
ENDBRANCH  30  31
ENDBRANCH  28  30
ENDBRANCH  27  28
ENDBRANCH  26  27
ENDBRANCH  24  26
ENDBRANCH  12  24
TORSDOF 8
ENDMDL
MODEL 4
REMARK VINA RESULT:      -7.2      2.137      7.211
REMARK  Name = 
REMARK  8 active torsions:
REMARK  status: ('A' for Active; 'I' for Inactive)
REMARK    1  A    between atoms: C_12  and  N_13
REMARK    2  A    between atoms: N_13  and  C_14
REMARK    3  A    between atoms: C_14  and  C_15
REMARK    4  A    between atoms: C_15  and  N_16
REMARK    5  A    between atoms: N_16  and  C_17
REMARK    6  A    between atoms: C_17  and  C_18
REMARK    7  A    between atoms: C_18  and  O_19
REMARK    8  A    between atoms: C_20  and  C_21
REMARK                            x       y       z     vdW  Elec       q    Type
REMARK                         _______ _______ _______ _____ _____    ______ ____
ROOT
ATOM      1  O   UNL     1       2.654   9.444  17.129  0.00  0.00    +0.000 OA
ATOM      2  C   UNL     1       2.181   8.889  18.118  0.00  0.00    +0.000 A 
ATOM      3  N   UNL     1       1.141   9.436  18.802  0.00  0.00    +0.000 N 
ATOM      4  C   UNL     1       0.771   9.013  20.046  0.00  0.00    +0.000 A 
ATOM      5  N   UNL     1      -0.191   9.754  20.699  0.00  0.00    +0.000 N 
ATOM      6  C   UNL     1      -1.286  10.473  20.039  0.00  0.00    +0.000 C 
ATOM      7  C   UNL     1      -1.439  11.855  20.687  0.00  0.00    +0.000 C 
ATOM      8  O   UNL     1      -1.690  11.743  22.099  0.00  0.00    +0.000 OA
ATOM      9  C   UNL     1      -0.606  11.043  22.742  0.00  0.00    +0.000 C 
ATOM     10  C   UNL     1      -0.422   9.633  22.151  0.00  0.00    +0.000 C 
ATOM     11  N   UNL     1       1.357   7.996  20.592  0.00  0.00    +0.000 NA
ATOM     12  C   UNL     1       2.277   7.242  19.892  0.00  0.00    +0.000 A 
ATOM     13  C   UNL     1       2.701   7.624  18.663  0.00  0.00    +0.000 A 
ATOM     14  H   UNL     1       0.832  10.330  18.468  0.00  0.00    +0.000 HD
ENDROOT
BRANCH  13  15
ATOM     15  C   UNL     1       3.586   6.848  17.874  0.00  0.00    +0.000 A 
ATOM     16  N   UNL     1       3.364   5.607  17.487  0.00  0.00    +0.000 NA
ATOM     17  C   UNL     1       4.451   5.104  16.802  0.00  0.00    +0.000 A 
ATOM     18  C   UNL     1       4.551   3.804  16.269  0.00  0.00    +0.000 A 
ATOM     19  C   UNL     1       5.743   3.389  15.671  0.00  0.00    +0.000 A 
ATOM     20  C   UNL     1       6.823   4.261  15.577  0.00  0.00    +0.000 A 
ATOM     21  C   UNL     1       6.734   5.571  16.063  0.00  0.00    +0.000 A 
ATOM     22  C   UNL     1       5.535   5.972  16.679  0.00  0.00    +0.000 A 
ATOM     23  S   UNL     1       5.119   7.485  17.387  0.00  0.00    +0.000 S 
ENDBRANCH  13  15
BRANCH  12  24
ATOM     24  N   UNL     1       2.692   6.040  20.487  0.00  0.00    +0.000 N 
ATOM     25  H   UNL     1       3.367   6.241  21.227  0.00  0.00    +0.000 HD
BRANCH  24  26
ATOM     26  C   UNL     1       1.757   5.007  20.967  0.00  0.00    +0.000 C 
BRANCH  26  27
ATOM     27  C   UNL     1       1.306   3.956  19.928  0.00  0.00    +0.000 C 
BRANCH  27  28
ATOM     28  N   UNL     1       1.790   2.604  20.211  0.00  0.00    +0.000 NA
ATOM     29  H   UNL     1       1.641   1.995  19.410  0.00  0.00    +0.000 HD
BRANCH  28  30
ATOM     30  C   UNL     1       3.170   2.532  20.692  0.00  0.00    +0.000 C 
BRANCH  30  31
ATOM     31  C   UNL     1       4.181   2.129  19.606  0.00  0.00    +0.000 C 
BRANCH  31  32
ATOM     32  O   UNL     1       5.272   3.037  19.574  0.00  0.00    +0.000 OA
ATOM     33  H   UNL     1       4.857   3.931  19.602  0.00  0.00    +0.000 HD
ENDBRANCH  31  32
ENDBRANCH  30  31
ENDBRANCH  28  30
ENDBRANCH  27  28
ENDBRANCH  26  27
ENDBRANCH  24  26
ENDBRANCH  12  24
TORSDOF 8
ENDMDL
MODEL 5
REMARK VINA RESULT:      -7.2      3.480      5.957
REMARK  Name = 
REMARK  8 active torsions:
REMARK  status: ('A' for Active; 'I' for Inactive)
REMARK    1  A    between atoms: C_12  and  N_13
REMARK    2  A    between atoms: N_13  and  C_14
REMARK    3  A    between atoms: C_14  and  C_15
REMARK    4  A    between atoms: C_15  and  N_16
REMARK    5  A    between atoms: N_16  and  C_17
REMARK    6  A    between atoms: C_17  and  C_18
REMARK    7  A    between atoms: C_18  and  O_19
REMARK    8  A    between atoms: C_20  and  C_21
REMARK                            x       y       z     vdW  Elec       q    Type
REMARK                         _______ _______ _______ _____ _____    ______ ____
ROOT
ATOM      1  O   UNL     1       1.481   9.347  23.100  0.00  0.00    +0.000 OA
ATOM      2  C   UNL     1       1.265   9.226  21.898  0.00  0.00    +0.000 A 
ATOM      3  N   UNL     1       1.748   8.164  21.198  0.00  0.00    +0.000 N 
ATOM      4  C   UNL     1       1.777   8.128  19.835  0.00  0.00    +0.000 A 
ATOM      5  N   UNL     1       2.439   7.071  19.250  0.00  0.00    +0.000 N 
ATOM      6  C   UNL     1       2.523   5.720  19.813  0.00  0.00    +0.000 C 
ATOM      7  C   UNL     1       3.957   5.199  19.653  0.00  0.00    +0.000 C 
ATOM      8  O   UNL     1       4.357   5.193  18.271  0.00  0.00    +0.000 OA
ATOM      9  C   UNL     1       4.279   6.524  17.725  0.00  0.00    +0.000 C 
ATOM     10  C   UNL     1       2.851   7.091  17.833  0.00  0.00    +0.000 C 
ATOM     11  N   UNL     1       1.253   9.090  19.144  0.00  0.00    +0.000 NA
ATOM     12  C   UNL     1       0.550  10.108  19.758  0.00  0.00    +0.000 A 
ATOM     13  C   UNL     1       0.506  10.210  21.108  0.00  0.00    +0.000 A 
ATOM     14  H   UNL     1       2.321   7.530  21.725  0.00  0.00    +0.000 HD
ENDROOT
BRANCH  13  15
ATOM     15  C   UNL     1      -0.262  11.189  21.786  0.00  0.00    +0.000 A 
ATOM     16  N   UNL     1      -1.358  10.946  22.479  0.00  0.00    +0.000 NA
ATOM     17  C   UNL     1      -1.914  12.119  22.946  0.00  0.00    +0.000 A 
ATOM     18  C   UNL     1      -3.097  12.217  23.704  0.00  0.00    +0.000 A 
ATOM     19  C   UNL     1      -3.603  13.475  24.042  0.00  0.00    +0.000 A 
ATOM     20  C   UNL     1      -2.929  14.630  23.655  0.00  0.00    +0.000 A 
ATOM     21  C   UNL     1      -1.730  14.556  22.936  0.00  0.00    +0.000 A 
ATOM     22  C   UNL     1      -1.241  13.286  22.586  0.00  0.00    +0.000 A 
ATOM     23  S   UNL     1       0.173  12.862  21.700  0.00  0.00    +0.000 S 
ENDBRANCH  13  15
BRANCH  12  24
ATOM     24  N   UNL     1      -0.163  10.979  18.918  0.00  0.00    +0.000 N 
ATOM     25  H   UNL     1       0.376  11.149  18.067  0.00  0.00    +0.000 HD
BRANCH  24  26
ATOM     26  C   UNL     1      -1.575  10.778  18.551  0.00  0.00    +0.000 C 
BRANCH  26  27
ATOM     27  C   UNL     1      -1.843  10.233  17.130  0.00  0.00    +0.000 C 
BRANCH  27  28
ATOM     28  N   UNL     1      -2.360  11.240  16.202  0.00  0.00    +0.000 NA
ATOM     29  H   UNL     1      -1.729  11.358  15.413  0.00  0.00    +0.000 HD
BRANCH  28  30
ATOM     30  C   UNL     1      -3.738  11.021  15.761  0.00  0.00    +0.000 C 
BRANCH  30  31
ATOM     31  C   UNL     1      -4.788  11.321  16.843  0.00  0.00    +0.000 C 
BRANCH  31  32
ATOM     32  O   UNL     1      -5.143  12.697  16.829  0.00  0.00    +0.000 OA
ATOM     33  H   UNL     1      -5.024  12.997  17.761  0.00  0.00    +0.000 HD
ENDBRANCH  31  32
ENDBRANCH  30  31
ENDBRANCH  28  30
ENDBRANCH  27  28
ENDBRANCH  26  27
ENDBRANCH  24  26
ENDBRANCH  12  24
TORSDOF 8
ENDMDL
MODEL 6
REMARK VINA RESULT:      -7.2      2.011      7.168
REMARK  Name = 
REMARK  8 active torsions:
REMARK  status: ('A' for Active; 'I' for Inactive)
REMARK    1  A    between atoms: C_12  and  N_13
REMARK    2  A    between atoms: N_13  and  C_14
REMARK    3  A    between atoms: C_14  and  C_15
REMARK    4  A    between atoms: C_15  and  N_16
REMARK    5  A    between atoms: N_16  and  C_17
REMARK    6  A    between atoms: C_17  and  C_18
REMARK    7  A    between atoms: C_18  and  O_19
REMARK    8  A    between atoms: C_20  and  C_21
REMARK                            x       y       z     vdW  Elec       q    Type
REMARK                         _______ _______ _______ _____ _____    ______ ____
ROOT
ATOM      1  O   UNL     1       2.526   9.368  17.102  0.00  0.00    +0.000 OA
ATOM      2  C   UNL     1       2.011   8.957  18.138  0.00  0.00    +0.000 A 
ATOM      3  N   UNL     1       0.984   9.626  18.727  0.00  0.00    +0.000 N 
ATOM      4  C   UNL     1       0.572   9.373  20.003  0.00  0.00    +0.000 A 
ATOM      5  N   UNL     1      -0.367  10.227  20.539  0.00  0.00    +0.000 N 
ATOM      6  C   UNL     1      -1.417  10.907  19.773  0.00  0.00    +0.000 C 
ATOM      7  C   UNL     1      -1.520  12.362  20.247  0.00  0.00    +0.000 C 
ATOM      8  O   UNL     1      -1.801  12.432  21.655  0.00  0.00    +0.000 OA
ATOM      9  C   UNL     1      -0.763  11.770  22.403  0.00  0.00    +0.000 C 
ATOM     10  C   UNL     1      -0.631  10.292  21.990  0.00  0.00    +0.000 C 
ATOM     11  N   UNL     1       1.102   8.405  20.682  0.00  0.00    +0.000 NA
ATOM     12  C   UNL     1       2.000   7.534  20.099  0.00  0.00    +0.000 A 
ATOM     13  C   UNL     1       2.464   7.747  18.844  0.00  0.00    +0.000 A 
ATOM     14  H   UNL     1       0.721  10.486  18.281  0.00  0.00    +0.000 HD
ENDROOT
BRANCH  13  15
ATOM     15  C   UNL     1       3.327   6.845  18.174  0.00  0.00    +0.000 A 
ATOM     16  N   UNL     1       4.570   7.109  17.818  0.00  0.00    +0.000 NA
ATOM     17  C   UNL     1       5.114   6.055  17.112  0.00  0.00    +0.000 A 
ATOM     18  C   UNL     1       6.413   6.019  16.571  0.00  0.00    +0.000 A 
ATOM     19  C   UNL     1       6.814   4.924  15.801  0.00  0.00    +0.000 A 
ATOM     20  C   UNL     1       5.944   3.859  15.588  0.00  0.00    +0.000 A 
ATOM     21  C   UNL     1       4.662   3.854  16.150  0.00  0.00    +0.000 A 
ATOM     22  C   UNL     1       4.264   4.969  16.908  0.00  0.00    +0.000 A 
ATOM     23  S   UNL     1       2.768   5.276  17.703  0.00  0.00    +0.000 S 
ENDBRANCH  13  15
BRANCH  12  24
ATOM     24  N   UNL     1       2.350   6.396  20.843  0.00  0.00    +0.000 N 
ATOM     25  H   UNL     1       2.577   6.672  21.800  0.00  0.00    +0.000 HD
BRANCH  24  26
ATOM     26  C   UNL     1       1.532   5.171  20.885  0.00  0.00    +0.000 C 
BRANCH  26  27
ATOM     27  C   UNL     1       2.208   3.917  21.483  0.00  0.00    +0.000 C 
BRANCH  27  28
ATOM     28  N   UNL     1       1.683   2.658  20.952  0.00  0.00    +0.000 NA
ATOM     29  H   UNL     1       1.324   2.073  21.704  0.00  0.00    +0.000 HD
BRANCH  28  30
ATOM     30  C   UNL     1       0.705   2.804  19.873  0.00  0.00    +0.000 C 
BRANCH  30  31
ATOM     31  C   UNL     1       1.134   2.137  18.557  0.00  0.00    +0.000 C 
BRANCH  31  32
ATOM     32  O   UNL     1       2.407   1.522  18.698  0.00  0.00    +0.000 OA
ATOM     33  H   UNL     1       2.965   2.198  19.149  0.00  0.00    +0.000 HD
ENDBRANCH  31  32
ENDBRANCH  30  31
ENDBRANCH  28  30
ENDBRANCH  27  28
ENDBRANCH  26  27
ENDBRANCH  24  26
ENDBRANCH  12  24
TORSDOF 8
ENDMDL
MODEL 7
REMARK VINA RESULT:      -7.1      3.529      6.057
REMARK  Name = 
REMARK  8 active torsions:
REMARK  status: ('A' for Active; 'I' for Inactive)
REMARK    1  A    between atoms: C_12  and  N_13
REMARK    2  A    between atoms: N_13  and  C_14
REMARK    3  A    between atoms: C_14  and  C_15
REMARK    4  A    between atoms: C_15  and  N_16
REMARK    5  A    between atoms: N_16  and  C_17
REMARK    6  A    between atoms: C_17  and  C_18
REMARK    7  A    between atoms: C_18  and  O_19
REMARK    8  A    between atoms: C_20  and  C_21
REMARK                            x       y       z     vdW  Elec       q    Type
REMARK                         _______ _______ _______ _____ _____    ______ ____
ROOT
ATOM      1  O   UNL     1       1.697   9.456  23.035  0.00  0.00    +0.000 OA
ATOM      2  C   UNL     1       1.465   9.224  21.852  0.00  0.00    +0.000 A 
ATOM      3  N   UNL     1       1.775   8.021  21.297  0.00  0.00    +0.000 N 
ATOM      4  C   UNL     1       1.799   7.813  19.949  0.00  0.00    +0.000 A 
ATOM      5  N   UNL     1       2.285   6.600  19.510  0.00  0.00    +0.000 N 
ATOM      6  C   UNL     1       2.152   5.333  20.236  0.00  0.00    +0.000 C 
ATOM      7  C   UNL     1       3.485   4.576  20.170  0.00  0.00    +0.000 C 
ATOM      8  O   UNL     1       3.881   4.336  18.809  0.00  0.00    +0.000 OA
ATOM      9  C   UNL     1       4.016   5.586  18.103  0.00  0.00    +0.000 C 
ATOM     10  C   UNL     1       2.697   6.380  18.111  0.00  0.00    +0.000 C 
ATOM     11  N   UNL     1       1.436   8.753  19.135  0.00  0.00    +0.000 NA
ATOM     12  C   UNL     1       0.903   9.936  19.606  0.00  0.00    +0.000 A 
ATOM     13  C   UNL     1       0.873  10.210  20.932  0.00  0.00    +0.000 A 
ATOM     14  H   UNL     1       2.238   7.374  21.908  0.00  0.00    +0.000 HD
ENDROOT
BRANCH  13  15
ATOM     15  C   UNL     1       0.271  11.374  21.470  0.00  0.00    +0.000 A 
ATOM     16  N   UNL     1       0.727  12.603  21.316  0.00  0.00    +0.000 NA
ATOM     17  C   UNL     1      -0.036  13.504  22.030  0.00  0.00    +0.000 A 
ATOM     18  C   UNL     1       0.189  14.892  22.097  0.00  0.00    +0.000 A 
ATOM     19  C   UNL     1      -0.608  15.685  22.927  0.00  0.00    +0.000 A 
ATOM     20  C   UNL     1      -1.638  15.113  23.667  0.00  0.00    +0.000 A 
ATOM     21  C   UNL     1      -1.907  13.741  23.585  0.00  0.00    +0.000 A 
ATOM     22  C   UNL     1      -1.088  12.951  22.760  0.00  0.00    +0.000 A 
ATOM     23  S   UNL     1      -1.142  11.256  22.462  0.00  0.00    +0.000 S 
ENDBRANCH  13  15
BRANCH  12  24
ATOM     24  N   UNL     1       0.339  10.799  18.651  0.00  0.00    +0.000 N 
ATOM     25  H   UNL     1       0.981  10.901  17.864  0.00  0.00    +0.000 HD
BRANCH  24  26
ATOM     26  C   UNL     1      -1.030  10.648  18.129  0.00  0.00    +0.000 C 
BRANCH  26  27
ATOM     27  C   UNL     1      -1.865  11.942  18.012  0.00  0.00    +0.000 C 
BRANCH  27  28
ATOM     28  N   UNL     1      -3.003  11.827  17.098  0.00  0.00    +0.000 NA
ATOM     29  H   UNL     1      -2.690  11.862  16.130  0.00  0.00    +0.000 HD
BRANCH  28  30
ATOM     30  C   UNL     1      -3.873  10.675  17.340  0.00  0.00    +0.000 C 
BRANCH  30  31
ATOM     31  C   UNL     1      -5.198  11.037  18.028  0.00  0.00    +0.000 C 
BRANCH  31  32
ATOM     32  O   UNL     1      -6.095  11.638  17.104  0.00  0.00    +0.000 OA
ATOM     33  H   UNL     1      -5.743  12.549  16.967  0.00  0.00    +0.000 HD
ENDBRANCH  31  32
ENDBRANCH  30  31
ENDBRANCH  28  30
ENDBRANCH  27  28
ENDBRANCH  26  27
ENDBRANCH  24  26
ENDBRANCH  12  24
TORSDOF 8
ENDMDL
MODEL 8
REMARK VINA RESULT:      -6.9      3.312      5.747
REMARK  Name = 
REMARK  8 active torsions:
REMARK  status: ('A' for Active; 'I' for Inactive)
REMARK    1  A    between atoms: C_12  and  N_13
REMARK    2  A    between atoms: N_13  and  C_14
REMARK    3  A    between atoms: C_14  and  C_15
REMARK    4  A    between atoms: C_15  and  N_16
REMARK    5  A    between atoms: N_16  and  C_17
REMARK    6  A    between atoms: C_17  and  C_18
REMARK    7  A    between atoms: C_18  and  O_19
REMARK    8  A    between atoms: C_20  and  C_21
REMARK                            x       y       z     vdW  Elec       q    Type
REMARK                         _______ _______ _______ _____ _____    ______ ____
ROOT
ATOM      1  O   UNL     1       1.688   9.308  23.080  0.00  0.00    +0.000 OA
ATOM      2  C   UNL     1       1.459   9.100  21.892  0.00  0.00    +0.000 A 
ATOM      3  N   UNL     1       1.808   7.925  21.302  0.00  0.00    +0.000 N 
ATOM      4  C   UNL     1       1.833   7.755  19.949  0.00  0.00    +0.000 A 
ATOM      5  N   UNL     1       2.360   6.573  19.475  0.00  0.00    +0.000 N 
ATOM      6  C   UNL     1       2.276   5.282  20.166  0.00  0.00    +0.000 C 
ATOM      7  C   UNL     1       3.635   4.576  20.073  0.00  0.00    +0.000 C 
ATOM      8  O   UNL     1       4.032   4.389  18.704  0.00  0.00    +0.000 OA
ATOM      9  C   UNL     1       4.120   5.662  18.033  0.00  0.00    +0.000 C 
ATOM     10  C   UNL     1       2.773   6.408  18.068  0.00  0.00    +0.000 C 
ATOM     11  N   UNL     1       1.433   8.704  19.164  0.00  0.00    +0.000 NA
ATOM     12  C   UNL     1       0.860   9.854  19.669  0.00  0.00    +0.000 A 
ATOM     13  C   UNL     1       0.828  10.089  21.003  0.00  0.00    +0.000 A 
ATOM     14  H   UNL     1       2.298   7.279  21.894  0.00  0.00    +0.000 HD
ENDROOT
BRANCH  13  15
ATOM     15  C   UNL     1       0.187  11.216  21.575  0.00  0.00    +0.000 A 
ATOM     16  N   UNL     1       0.565  12.469  21.407  0.00  0.00    +0.000 NA
ATOM     17  C   UNL     1      -0.213  13.323  22.161  0.00  0.00    +0.000 A 
ATOM     18  C   UNL     1      -0.063  14.721  22.226  0.00  0.00    +0.000 A 
ATOM     19  C   UNL     1      -0.862  15.465  23.098  0.00  0.00    +0.000 A 
ATOM     20  C   UNL     1      -1.823  14.834  23.883  0.00  0.00    +0.000 A 
ATOM     21  C   UNL     1      -2.017  13.449  23.805  0.00  0.00    +0.000 A 
ATOM     22  C   UNL     1      -1.195  12.710  22.938  0.00  0.00    +0.000 A 
ATOM     23  S   UNL     1      -1.168  11.015  22.633  0.00  0.00    +0.000 S 
ENDBRANCH  13  15
BRANCH  12  24
ATOM     24  N   UNL     1       0.262  10.722  18.742  0.00  0.00    +0.000 N 
ATOM     25  H   UNL     1       0.968  11.058  18.085  0.00  0.00    +0.000 HD
BRANCH  24  26
ATOM     26  C   UNL     1      -0.961  10.389  17.991  0.00  0.00    +0.000 C 
BRANCH  26  27
ATOM     27  C   UNL     1      -2.136  11.384  18.120  0.00  0.00    +0.000 C 
BRANCH  27  28
ATOM     28  N   UNL     1      -3.451  10.769  17.925  0.00  0.00    +0.000 NA
ATOM     29  H   UNL     1      -4.033  10.900  18.749  0.00  0.00    +0.000 HD
BRANCH  28  30
ATOM     30  C   UNL     1      -4.147  11.178  16.704  0.00  0.00    +0.000 C 
BRANCH  30  31
ATOM     31  C   UNL     1      -3.307  11.005  15.429  0.00  0.00    +0.000 C 
BRANCH  31  32
ATOM     32  O   UNL     1      -3.042   9.631  15.185  0.00  0.00    +0.000 OA
ATOM     33  H   UNL     1      -2.528   9.330  15.971  0.00  0.00    +0.000 HD
ENDBRANCH  31  32
ENDBRANCH  30  31
ENDBRANCH  28  30
ENDBRANCH  27  28
ENDBRANCH  26  27
ENDBRANCH  24  26
ENDBRANCH  12  24
TORSDOF 8
ENDMDL
MODEL 9
REMARK VINA RESULT:      -6.9      3.524      5.852
REMARK  Name = 
REMARK  8 active torsions:
REMARK  status: ('A' for Active; 'I' for Inactive)
REMARK    1  A    between atoms: C_12  and  N_13
REMARK    2  A    between atoms: N_13  and  C_14
REMARK    3  A    between atoms: C_14  and  C_15
REMARK    4  A    between atoms: C_15  and  N_16
REMARK    5  A    between atoms: N_16  and  C_17
REMARK    6  A    between atoms: C_17  and  C_18
REMARK    7  A    between atoms: C_18  and  O_19
REMARK    8  A    between atoms: C_20  and  C_21
REMARK                            x       y       z     vdW  Elec       q    Type
REMARK                         _______ _______ _______ _____ _____    ______ ____
ROOT
ATOM      1  O   UNL     1       1.182   9.552  23.244  0.00  0.00    +0.000 OA
ATOM      2  C   UNL     1       0.990   9.497  22.032  0.00  0.00    +0.000 A 
ATOM      3  N   UNL     1       1.487   8.474  21.286  0.00  0.00    +0.000 N 
ATOM      4  C   UNL     1       1.544   8.513  19.923  0.00  0.00    +0.000 A 
ATOM      5  N   UNL     1       2.217   7.487  19.295  0.00  0.00    +0.000 N 
ATOM      6  C   UNL     1       2.287   6.107  19.786  0.00  0.00    +0.000 C 
ATOM      7  C   UNL     1       3.724   5.592  19.627  0.00  0.00    +0.000 C 
ATOM      8  O   UNL     1       4.152   5.660  18.256  0.00  0.00    +0.000 OA
ATOM      9  C   UNL     1       4.088   7.020  17.782  0.00  0.00    +0.000 C 
ATOM     10  C   UNL     1       2.659   7.584  17.891  0.00  0.00    +0.000 C 
ATOM     11  N   UNL     1       1.037   9.513  19.275  0.00  0.00    +0.000 NA
ATOM     12  C   UNL     1       0.322  10.497  19.929  0.00  0.00    +0.000 A 
ATOM     13  C   UNL     1       0.250  10.525  21.281  0.00  0.00    +0.000 A 
ATOM     14  H   UNL     1       2.048   7.811  21.789  0.00  0.00    +0.000 HD
ENDROOT
BRANCH  13  15
ATOM     15  C   UNL     1      -0.530  11.468  21.996  0.00  0.00    +0.000 A 
ATOM     16  N   UNL     1      -1.624  11.185  22.677  0.00  0.00    +0.000 NA
ATOM     17  C   UNL     1      -2.196  12.332  23.188  0.00  0.00    +0.000 A 
ATOM     18  C   UNL     1      -3.380  12.386  23.947  0.00  0.00    +0.000 A 
ATOM     19  C   UNL     1      -3.901  13.624  24.333  0.00  0.00    +0.000 A 
ATOM     20  C   UNL     1      -3.241  14.801  23.993  0.00  0.00    +0.000 A 
ATOM     21  C   UNL     1      -2.041  14.770  23.274  0.00  0.00    +0.000 A 
ATOM     22  C   UNL     1      -1.536  13.520  22.876  0.00  0.00    +0.000 A 
ATOM     23  S   UNL     1      -0.116  13.148  21.976  0.00  0.00    +0.000 S 
ENDBRANCH  13  15
BRANCH  12  24
ATOM     24  N   UNL     1      -0.371  11.415  19.123  0.00  0.00    +0.000 N 
ATOM     25  H   UNL     1       0.257  12.174  18.854  0.00  0.00    +0.000 HD
BRANCH  24  26
ATOM     26  C   UNL     1      -1.168  11.023  17.948  0.00  0.00    +0.000 C 
BRANCH  26  27
ATOM     27  C   UNL     1      -2.287   9.986  18.195  0.00  0.00    +0.000 C 
BRANCH  27  28
ATOM     28  N   UNL     1      -3.269   9.911  17.112  0.00  0.00    +0.000 NA
ATOM     29  H   UNL     1      -4.211  10.038  17.473  0.00  0.00    +0.000 HD
BRANCH  28  30
ATOM     30  C   UNL     1      -3.004  10.799  15.978  0.00  0.00    +0.000 C 
BRANCH  30  31
ATOM     31  C   UNL     1      -2.993  10.079  14.621  0.00  0.00    +0.000 C 
BRANCH  31  32
ATOM     32  O   UNL     1      -4.312   9.954  14.109  0.00  0.00    +0.000 OA
ATOM     33  H   UNL     1      -4.205   9.482  13.249  0.00  0.00    +0.000 HD
ENDBRANCH  31  32
ENDBRANCH  30  31
ENDBRANCH  28  30
ENDBRANCH  27  28
ENDBRANCH  26  27
ENDBRANCH  24  26
ENDBRANCH  12  24
TORSDOF 8
ENDMDL
