MODEL 1
REMARK VINA RESULT:      -6.3      0.000      0.000
REMARK  Name = 
REMARK  4 active torsions:
REMARK  status: ('A' for Active; 'I' for Inactive)
REMARK    1  A    between atoms: C_1  and  N_2
REMARK    2  A    between atoms: C_6  and  C_8
REMARK    3  A    between atoms: C_8  and  C_9
REMARK    4  A    between atoms: C_9  and  C_10
REMARK                            x       y       z     vdW  Elec       q    Type
REMARK                         _______ _______ _______ _____ _____    ______ ____
ROOT
ATOM      1  C   UNL     1       6.757   4.570  13.592  0.00  0.00    +0.000 C 
ATOM      2  N   UNL     1       6.672   5.189  14.912  0.00  0.00    +0.000 NA
ATOM      3  C   UNL     1       6.795   4.177  15.982  0.00  0.00    +0.000 C 
ATOM      4  C   UNL     1       6.717   4.811  17.386  0.00  0.00    +0.000 C 
ATOM      5  N   UNL     1       5.515   5.639  17.539  0.00  0.00    +0.000 N 
ATOM      6  C   UNL     1       4.827   5.631  18.745  0.00  0.00    +0.000 C 
ATOM      7  O   UNL     1       5.161   4.918  19.690  0.00  0.00    +0.000 OA
ATOM      8  C   UNL     1       5.304   6.598  16.448  0.00  0.00    +0.000 C 
ATOM      9  C   UNL     1       5.396   5.915  15.071  0.00  0.00    +0.000 C 
ENDROOT
BRANCH   6  10
ATOM     10  C   UNL     1       3.599   6.524  18.828  0.00  0.00    +0.000 C 
BRANCH  10  11
ATOM     11  C   UNL     1       2.421   5.976  18.025  0.00  0.00    +0.000 C 
BRANCH  11  12
ATOM     12  C   UNL     1       1.966   4.637  18.545  0.00  0.00    +0.000 A 
ATOM     13  C   UNL     1       1.519   4.473  19.857  0.00  0.00    +0.000 A 
ATOM     14  C   UNL     1       1.094   3.217  20.290  0.00  0.00    +0.000 A 
ATOM     15  C   UNL     1       1.123   2.167  19.388  0.00  0.00    +0.000 A 
ATOM     16  N   UNL     1       1.539   2.288  18.110  0.00  0.00    +0.000 NA
ATOM     17  C   UNL     1       1.951   3.515  17.720  0.00  0.00    +0.000 A 
ENDBRANCH  11  12
ENDBRANCH  10  11
ENDBRANCH   6  10
TORSDOF 3
ENDMDL
MODEL 2
REMARK VINA RESULT:      -6.3      0.997      1.355
REMARK  Name = 
REMARK  4 active torsions:
REMARK  status: ('A' for Active; 'I' for Inactive)
REMARK    1  A    between atoms: C_1  and  N_2
REMARK    2  A    between atoms: C_6  and  C_8
REMARK    3  A    between atoms: C_8  and  C_9
REMARK    4  A    between atoms: C_9  and  C_10
REMARK                            x       y       z     vdW  Elec       q    Type
REMARK                         _______ _______ _______ _____ _____    ______ ____
ROOT
ATOM      1  C   UNL     1       7.337   4.715  14.004  0.00  0.00    +0.000 C 
ATOM      2  N   UNL     1       6.968   5.438  15.218  0.00  0.00    +0.000 NA
ATOM      3  C   UNL     1       7.179   4.601  16.418  0.00  0.00    +0.000 C 
ATOM      4  C   UNL     1       6.803   5.349  17.715  0.00  0.00    +0.000 C 
ATOM      5  N   UNL     1       5.441   5.892  17.649  0.00  0.00    +0.000 N 
ATOM      6  C   UNL     1       4.635   5.857  18.779  0.00  0.00    +0.000 C 
ATOM      7  O   UNL     1       5.001   5.345  19.835  0.00  0.00    +0.000 OA
ATOM      8  C   UNL     1       5.158   6.654  16.427  0.00  0.00    +0.000 C 
ATOM      9  C   UNL     1       5.556   5.866  15.165  0.00  0.00    +0.000 C 
ENDROOT
BRANCH   6  10
ATOM     10  C   UNL     1       3.242   6.450  18.632  0.00  0.00    +0.000 C 
BRANCH  10  11
ATOM     11  C   UNL     1       2.339   6.124  19.820  0.00  0.00    +0.000 C 
BRANCH  11  12
ATOM     12  C   UNL     1       1.876   4.691  19.792  0.00  0.00    +0.000 A 
ATOM     13  C   UNL     1       1.482   4.070  18.604  0.00  0.00    +0.000 A 
ATOM     14  C   UNL     1       1.074   2.737  18.624  0.00  0.00    +0.000 A 
ATOM     15  C   UNL     1       1.083   2.065  19.835  0.00  0.00    +0.000 A 
ATOM     16  N   UNL     1       1.466   2.627  21.001  0.00  0.00    +0.000 NA
ATOM     17  C   UNL     1       1.849   3.923  20.953  0.00  0.00    +0.000 A 
ENDBRANCH  11  12
ENDBRANCH  10  11
ENDBRANCH   6  10
TORSDOF 3
ENDMDL
MODEL 3
REMARK VINA RESULT:      -6.1      1.921      6.457
REMARK  Name = 
REMARK  4 active torsions:
REMARK  status: ('A' for Active; 'I' for Inactive)
REMARK    1  A    between atoms: C_1  and  N_2
REMARK    2  A    between atoms: C_6  and  C_8
REMARK    3  A    between atoms: C_8  and  C_9
REMARK    4  A    between atoms: C_9  and  C_10
REMARK                            x       y       z     vdW  Elec       q    Type
REMARK                         _______ _______ _______ _____ _____    ______ ____
ROOT
ATOM      1  C   UNL     1       1.474   3.969  20.990  0.00  0.00    +0.000 C 
ATOM      2  N   UNL     1       2.617   4.674  20.417  0.00  0.00    +0.000 NA
ATOM      3  C   UNL     1       2.183   5.629  19.375  0.00  0.00    +0.000 C 
ATOM      4  C   UNL     1       3.376   6.391  18.761  0.00  0.00    +0.000 C 
ATOM      5  N   UNL     1       4.412   5.473  18.275  0.00  0.00    +0.000 N 
ATOM      6  C   UNL     1       5.081   5.758  17.093  0.00  0.00    +0.000 C 
ATOM      7  O   UNL     1       4.810   6.739  16.402  0.00  0.00    +0.000 OA
ATOM      8  C   UNL     1       4.808   4.448  19.248  0.00  0.00    +0.000 C 
ATOM      9  C   UNL     1       3.582   3.721  19.833  0.00  0.00    +0.000 C 
ENDROOT
BRANCH   6  10
ATOM     10  C   UNL     1       6.149   4.764  16.664  0.00  0.00    +0.000 C 
BRANCH  10  11
ATOM     11  C   UNL     1       5.661   3.816  15.570  0.00  0.00    +0.000 C 
BRANCH  11  12
ATOM     12  C   UNL     1       6.313   4.112  14.244  0.00  0.00    +0.000 A 
ATOM     13  C   UNL     1       5.987   3.398  13.089  0.00  0.00    +0.000 A 
ATOM     14  C   UNL     1       6.606   3.717  11.882  0.00  0.00    +0.000 A 
ATOM     15  C   UNL     1       7.528   4.750  11.869  0.00  0.00    +0.000 A 
ATOM     16  N   UNL     1       7.862   5.470  12.961  0.00  0.00    +0.000 NA
ATOM     17  C   UNL     1       7.251   5.134  14.119  0.00  0.00    +0.000 A 
ENDBRANCH  11  12
ENDBRANCH  10  11
ENDBRANCH   6  10
TORSDOF 3
ENDMDL
MODEL 4
REMARK VINA RESULT:      -6.0      2.117      5.944
REMARK  Name = 
REMARK  4 active torsions:
REMARK  status: ('A' for Active; 'I' for Inactive)
REMARK    1  A    between atoms: C_1  and  N_2
REMARK    2  A    between atoms: C_6  and  C_8
REMARK    3  A    between atoms: C_8  and  C_9
REMARK    4  A    between atoms: C_9  and  C_10
REMARK                            x       y       z     vdW  Elec       q    Type
REMARK                         _______ _______ _______ _____ _____    ______ ____
ROOT
ATOM      1  C   UNL     1       1.406   2.826  21.323  0.00  0.00    +0.000 C 
ATOM      2  N   UNL     1       2.501   3.502  20.634  0.00  0.00    +0.000 NA
ATOM      3  C   UNL     1       2.073   4.823  20.128  0.00  0.00    +0.000 C 
ATOM      4  C   UNL     1       3.219   5.560  19.402  0.00  0.00    +0.000 C 
ATOM      5  N   UNL     1       3.816   4.729  18.351  0.00  0.00    +0.000 N 
ATOM      6  C   UNL     1       4.202   5.313  17.153  0.00  0.00    +0.000 C 
ATOM      7  O   UNL     1       4.025   6.506  16.913  0.00  0.00    +0.000 OA
ATOM      8  C   UNL     1       4.172   3.374  18.788  0.00  0.00    +0.000 C 
ATOM      9  C   UNL     1       2.997   2.686  19.509  0.00  0.00    +0.000 C 
ENDROOT
BRANCH   6  10
ATOM     10  C   UNL     1       4.823   4.387  16.119  0.00  0.00    +0.000 C 
BRANCH  10  11
ATOM     11  C   UNL     1       6.250   4.791  15.752  0.00  0.00    +0.000 C 
BRANCH  11  12
ATOM     12  C   UNL     1       6.973   5.406  16.921  0.00  0.00    +0.000 A 
ATOM     13  C   UNL     1       7.133   6.788  17.041  0.00  0.00    +0.000 A 
ATOM     14  C   UNL     1       7.797   7.314  18.148  0.00  0.00    +0.000 A 
ATOM     15  C   UNL     1       8.273   6.435  19.106  0.00  0.00    +0.000 A 
ATOM     16  N   UNL     1       8.130   5.095  19.031  0.00  0.00    +0.000 NA
ATOM     17  C   UNL     1       7.488   4.613  17.943  0.00  0.00    +0.000 A 
ENDBRANCH  11  12
ENDBRANCH  10  11
ENDBRANCH   6  10
TORSDOF 3
ENDMDL
MODEL 5
REMARK VINA RESULT:      -6.0      2.236      6.170
REMARK  Name = 
REMARK  4 active torsions:
REMARK  status: ('A' for Active; 'I' for Inactive)
REMARK    1  A    between atoms: C_1  and  N_2
REMARK    2  A    between atoms: C_6  and  C_8
REMARK    3  A    between atoms: C_8  and  C_9
REMARK    4  A    between atoms: C_9  and  C_10
REMARK                            x       y       z     vdW  Elec       q    Type
REMARK                         _______ _______ _______ _____ _____    ______ ____
ROOT
ATOM      1  C   UNL     1       1.458   2.514  22.046  0.00  0.00    +0.000 C 
ATOM      2  N   UNL     1       2.416   3.322  21.296  0.00  0.00    +0.000 NA
ATOM      3  C   UNL     1       1.753   4.489  20.676  0.00  0.00    +0.000 C 
ATOM      4  C   UNL     1       2.749   5.363  19.884  0.00  0.00    +0.000 C 
ATOM      5  N   UNL     1       3.507   4.570  18.909  0.00  0.00    +0.000 N 
ATOM      6  C   UNL     1       3.792   5.110  17.662  0.00  0.00    +0.000 C 
ATOM      7  O   UNL     1       3.396   6.222  17.318  0.00  0.00    +0.000 OA
ATOM      8  C   UNL     1       4.106   3.351  19.463  0.00  0.00    +0.000 C 
ATOM      9  C   UNL     1       3.072   2.519  20.246  0.00  0.00    +0.000 C 
ENDROOT
BRANCH   6  10
ATOM     10  C   UNL     1       4.591   4.231  16.713  0.00  0.00    +0.000 C 
BRANCH  10  11
ATOM     11  C   UNL     1       5.679   5.006  15.972  0.00  0.00    +0.000 C 
BRANCH  11  12
ATOM     12  C   UNL     1       6.560   5.776  16.921  0.00  0.00    +0.000 A 
ATOM     13  C   UNL     1       7.144   5.170  18.036  0.00  0.00    +0.000 A 
ATOM     14  C   UNL     1       7.964   5.919  18.878  0.00  0.00    +0.000 A 
ATOM     15  C   UNL     1       8.179   7.252  18.571  0.00  0.00    +0.000 A 
ATOM     16  N   UNL     1       7.640   7.870  17.499  0.00  0.00    +0.000 NA
ATOM     17  C   UNL     1       6.844   7.121  16.703  0.00  0.00    +0.000 A 
ENDBRANCH  11  12
ENDBRANCH  10  11
ENDBRANCH   6  10
TORSDOF 3
ENDMDL
MODEL 6
REMARK VINA RESULT:      -5.9      1.512      1.639
REMARK  Name = 
REMARK  4 active torsions:
REMARK  status: ('A' for Active; 'I' for Inactive)
REMARK    1  A    between atoms: C_1  and  N_2
REMARK    2  A    between atoms: C_6  and  C_8
REMARK    3  A    between atoms: C_8  and  C_9
REMARK    4  A    between atoms: C_9  and  C_10
REMARK                            x       y       z     vdW  Elec       q    Type
REMARK                         _______ _______ _______ _____ _____    ______ ____
ROOT
ATOM      1  C   UNL     1       6.070   3.784  13.336  0.00  0.00    +0.000 C 
ATOM      2  N   UNL     1       5.974   4.687  14.479  0.00  0.00    +0.000 NA
ATOM      3  C   UNL     1       7.258   4.759  15.207  0.00  0.00    +0.000 C 
ATOM      4  C   UNL     1       7.182   5.716  16.416  0.00  0.00    +0.000 C 
ATOM      5  N   UNL     1       6.060   5.381  17.300  0.00  0.00    +0.000 N 
ATOM      6  C   UNL     1       6.220   5.478  18.676  0.00  0.00    +0.000 C 
ATOM      7  O   UNL     1       7.288   5.795  19.195  0.00  0.00    +0.000 OA
ATOM      8  C   UNL     1       4.779   5.209  16.604  0.00  0.00    +0.000 C 
ATOM      9  C   UNL     1       4.912   4.250  15.406  0.00  0.00    +0.000 C 
ENDROOT
BRANCH   6  10
ATOM     10  C   UNL     1       5.007   5.124  19.523  0.00  0.00    +0.000 C 
BRANCH  10  11
ATOM     11  C   UNL     1       4.725   3.623  19.546  0.00  0.00    +0.000 C 
BRANCH  11  12
ATOM     12  C   UNL     1       3.247   3.333  19.535  0.00  0.00    +0.000 A 
ATOM     13  C   UNL     1       2.353   4.044  20.338  0.00  0.00    +0.000 A 
ATOM     14  C   UNL     1       0.992   3.749  20.283  0.00  0.00    +0.000 A 
ATOM     15  C   UNL     1       0.568   2.757  19.416  0.00  0.00    +0.000 A 
ATOM     16  N   UNL     1       1.400   2.055  18.617  0.00  0.00    +0.000 NA
ATOM     17  C   UNL     1       2.715   2.357  18.696  0.00  0.00    +0.000 A 
ENDBRANCH  11  12
ENDBRANCH  10  11
ENDBRANCH   6  10
TORSDOF 3
ENDMDL
MODEL 7
REMARK VINA RESULT:      -5.8      2.438      5.539
REMARK  Name = 
REMARK  4 active torsions:
REMARK  status: ('A' for Active; 'I' for Inactive)
REMARK    1  A    between atoms: C_1  and  N_2
REMARK    2  A    between atoms: C_6  and  C_8
REMARK    3  A    between atoms: C_8  and  C_9
REMARK    4  A    between atoms: C_9  and  C_10
REMARK                            x       y       z     vdW  Elec       q    Type
REMARK                         _______ _______ _______ _____ _____    ______ ____
ROOT
ATOM      1  C   UNL     1       1.894  10.121  18.377  0.00  0.00    +0.000 C 
ATOM      2  N   UNL     1       1.658   8.702  18.627  0.00  0.00    +0.000 NA
ATOM      3  C   UNL     1       1.762   8.394  20.069  0.00  0.00    +0.000 C 
ATOM      4  C   UNL     1       1.508   6.899  20.358  0.00  0.00    +0.000 C 
ATOM      5  N   UNL     1       2.371   6.037  19.542  0.00  0.00    +0.000 N 
ATOM      6  C   UNL     1       2.913   4.887  20.099  0.00  0.00    +0.000 C 
ATOM      7  O   UNL     1       2.735   4.576  21.275  0.00  0.00    +0.000 OA
ATOM      8  C   UNL     1       2.369   6.368  18.112  0.00  0.00    +0.000 C 
ATOM      9  C   UNL     1       2.622   7.870  17.880  0.00  0.00    +0.000 C 
ENDROOT
BRANCH   6  10
ATOM     10  C   UNL     1       3.787   4.041  19.184  0.00  0.00    +0.000 C 
BRANCH  10  11
ATOM     11  C   UNL     1       5.239   4.514  19.160  0.00  0.00    +0.000 C 
BRANCH  11  12
ATOM     12  C   UNL     1       5.809   4.491  17.766  0.00  0.00    +0.000 A 
ATOM     13  C   UNL     1       4.993   4.349  16.641  0.00  0.00    +0.000 A 
ATOM     14  C   UNL     1       5.565   4.349  15.369  0.00  0.00    +0.000 A 
ATOM     15  C   UNL     1       6.937   4.500  15.265  0.00  0.00    +0.000 A 
ATOM     16  N   UNL     1       7.757   4.649  16.327  0.00  0.00    +0.000 NA
ATOM     17  C   UNL     1       7.176   4.639  17.549  0.00  0.00    +0.000 A 
ENDBRANCH  11  12
ENDBRANCH  10  11
ENDBRANCH   6  10
TORSDOF 3
ENDMDL
MODEL 8
REMARK VINA RESULT:      -5.8      1.529      5.714
REMARK  Name = 
REMARK  4 active torsions:
REMARK  status: ('A' for Active; 'I' for Inactive)
REMARK    1  A    between atoms: C_1  and  N_2
REMARK    2  A    between atoms: C_6  and  C_8
REMARK    3  A    between atoms: C_8  and  C_9
REMARK    4  A    between atoms: C_9  and  C_10
REMARK                            x       y       z     vdW  Elec       q    Type
REMARK                         _______ _______ _______ _____ _____    ______ ____
ROOT
ATOM      1  C   UNL     1       1.136   2.026  18.972  0.00  0.00    +0.000 C 
ATOM      2  N   UNL     1       1.838   3.298  19.121  0.00  0.00    +0.000 NA
ATOM      3  C   UNL     1       1.621   4.164  17.943  0.00  0.00    +0.000 C 
ATOM      4  C   UNL     1       2.348   5.518  18.082  0.00  0.00    +0.000 C 
ATOM      5  N   UNL     1       3.772   5.338  18.384  0.00  0.00    +0.000 N 
ATOM      6  C   UNL     1       4.708   6.183  17.802  0.00  0.00    +0.000 C 
ATOM      7  O   UNL     1       4.395   7.060  16.999  0.00  0.00    +0.000 OA
ATOM      8  C   UNL     1       4.038   4.412  19.491  0.00  0.00    +0.000 C 
ATOM      9  C   UNL     1       3.287   3.080  19.305  0.00  0.00    +0.000 C 
ENDROOT
BRANCH   6  10
ATOM     10  C   UNL     1       6.162   5.938  18.174  0.00  0.00    +0.000 C 
BRANCH  10  11
ATOM     11  C   UNL     1       6.681   4.596  17.662  0.00  0.00    +0.000 C 
BRANCH  11  12
ATOM     12  C   UNL     1       6.675   4.534  16.157  0.00  0.00    +0.000 A 
ATOM     13  C   UNL     1       5.723   3.789  15.457  0.00  0.00    +0.000 A 
ATOM     14  C   UNL     1       5.749   3.773  14.063  0.00  0.00    +0.000 A 
ATOM     15  C   UNL     1       6.723   4.512  13.415  0.00  0.00    +0.000 A 
ATOM     16  N   UNL     1       7.653   5.251  14.056  0.00  0.00    +0.000 NA
ATOM     17  C   UNL     1       7.609   5.243  15.407  0.00  0.00    +0.000 A 
ENDBRANCH  11  12
ENDBRANCH  10  11
ENDBRANCH   6  10
TORSDOF 3
ENDMDL
MODEL 9
REMARK VINA RESULT:      -5.8      2.022      6.225
REMARK  Name = 
REMARK  4 active torsions:
REMARK  status: ('A' for Active; 'I' for Inactive)
REMARK    1  A    between atoms: C_1  and  N_2
REMARK    2  A    between atoms: C_6  and  C_8
REMARK    3  A    between atoms: C_8  and  C_9
REMARK    4  A    between atoms: C_9  and  C_10
REMARK                            x       y       z     vdW  Elec       q    Type
REMARK                         _______ _______ _______ _____ _____    ______ ____
ROOT
ATOM      1  C   UNL     1       1.367   8.177  20.780  0.00  0.00    +0.000 C 
ATOM      2  N   UNL     1       1.660   7.030  19.925  0.00  0.00    +0.000 NA
ATOM      3  C   UNL     1       2.078   5.862  20.730  0.00  0.00    +0.000 C 
ATOM      4  C   UNL     1       2.386   4.635  19.846  0.00  0.00    +0.000 C 
ATOM      5  N   UNL     1       3.353   4.958  18.790  0.00  0.00    +0.000 N 
ATOM      6  C   UNL     1       4.326   4.029  18.446  0.00  0.00    +0.000 C 
ATOM      7  O   UNL     1       4.442   2.950  19.024  0.00  0.00    +0.000 OA
ATOM      8  C   UNL     1       3.024   6.166  18.025  0.00  0.00    +0.000 C 
ATOM      9  C   UNL     1       2.722   7.358  18.953  0.00  0.00    +0.000 C 
ENDROOT
BRANCH   6  10
ATOM     10  C   UNL     1       5.283   4.434  17.335  0.00  0.00    +0.000 C 
BRANCH  10  11
ATOM     11  C   UNL     1       4.918   3.808  15.991  0.00  0.00    +0.000 C 
BRANCH  11  12
ATOM     12  C   UNL     1       5.891   4.202  14.910  0.00  0.00    +0.000 A 
ATOM     13  C   UNL     1       5.756   3.742  13.598  0.00  0.00    +0.000 A 
ATOM     14  C   UNL     1       6.674   4.144  12.628  0.00  0.00    +0.000 A 
ATOM     15  C   UNL     1       7.693   5.003  13.004  0.00  0.00    +0.000 A 
ATOM     16  N   UNL     1       7.850   5.476  14.258  0.00  0.00    +0.000 NA
ATOM     17  C   UNL     1       6.950   5.064  15.179  0.00  0.00    +0.000 A 
ENDBRANCH  11  12
ENDBRANCH  10  11
ENDBRANCH   6  10
TORSDOF 3
ENDMDL
