MODEL 1
REMARK VINA RESULT:      -7.4      0.000      0.000
REMARK  Name = 
REMARK  3 active torsions:
REMARK  status: ('A' for Active; 'I' for Inactive)
REMARK    1  A    between atoms: C_1  and  N_2
REMARK    2  A    between atoms: C_3  and  N_4
REMARK    3  A    between atoms: C_9  and  C_10
REMARK                            x       y       z     vdW  Elec       q    Type
REMARK                         _______ _______ _______ _____ _____    ______ ____
ROOT
ATOM      1  C   UNL     1       3.403   7.520  17.423  0.00  0.00    +0.000 C 
ATOM      2  C   UNL     1       2.636   7.965  18.432  0.00  0.00    +0.000 C 
ATOM      3  O   UNL     1       2.405   7.397  19.681  0.00  0.00    +0.000 OA
ATOM      4  C   UNL     1       1.543   8.259  20.333  0.00  0.00    +0.000 A 
ATOM      5  C   UNL     1       1.037   8.104  21.608  0.00  0.00    +0.000 A 
ATOM      6  C   UNL     1       0.168   9.095  22.094  0.00  0.00    +0.000 A 
ATOM      7  C   UNL     1      -0.171  10.210  21.301  0.00  0.00    +0.000 A 
ATOM      8 BR   UNL     1      -1.347  11.520  21.995  0.00  0.00    +0.000 Br
ATOM      9  C   UNL     1       0.343  10.362  20.015  0.00  0.00    +0.000 A 
ATOM     10  C   UNL     1       1.194   9.370  19.568  0.00  0.00    +0.000 A 
ATOM     11  C   UNL     1       1.883   9.242  18.292  0.00  0.00    +0.000 C 
ATOM     12  O   UNL     1       1.843  10.003  17.352  0.00  0.00    +0.000 OA
ENDROOT
BRANCH   1  18
ATOM     13  C   UNL     1       6.348   7.552  17.208  0.00  0.00    +0.000 C 
ATOM     14  N   UNL     1       5.564   6.346  17.371  0.00  0.00    +0.000 N 
ATOM     15  C   UNL     1       5.991   5.040  17.466  0.00  0.00    +0.000 A 
ATOM     16  C   UNL     1       4.856   4.277  17.568  0.00  0.00    +0.000 A 
ATOM     17  N   UNL     1       3.741   5.071  17.561  0.00  0.00    +0.000 NA
ATOM     18  C   UNL     1       4.163   6.318  17.455  0.00  0.00    +0.000 A 
BRANCH  15  19
ATOM     19  N   UNL     1       7.335   4.559  17.465  0.00  0.00    +0.000 N 
ATOM     20  O   UNL     1       7.917   4.427  18.544  0.00  0.00    +0.000 OA
ATOM     21  O   UNL     1       7.821   4.297  16.357  0.00  0.00    +0.000 OA
ENDBRANCH  15  19
ENDBRANCH   1  18
TORSDOF 2
ENDMDL
MODEL 2
REMARK VINA RESULT:      -7.3      1.991      2.565
REMARK  Name = 
REMARK  3 active torsions:
REMARK  status: ('A' for Active; 'I' for Inactive)
REMARK    1  A    between atoms: C_1  and  N_2
REMARK    2  A    between atoms: C_3  and  N_4
REMARK    3  A    between atoms: C_9  and  C_10
REMARK                            x       y       z     vdW  Elec       q    Type
REMARK                         _______ _______ _______ _____ _____    ______ ____
ROOT
ATOM      1  C   UNL     1       3.243   6.950  18.087  0.00  0.00    +0.000 C 
ATOM      2  C   UNL     1       2.466   7.671  18.910  0.00  0.00    +0.000 C 
ATOM      3  O   UNL     1       2.210   7.488  20.266  0.00  0.00    +0.000 OA
ATOM      4  C   UNL     1       1.347   8.506  20.627  0.00  0.00    +0.000 A 
ATOM      5  C   UNL     1       0.819   8.728  21.883  0.00  0.00    +0.000 A 
ATOM      6  C   UNL     1      -0.047   9.822  22.047  0.00  0.00    +0.000 A 
ATOM      7  C   UNL     1      -0.361  10.663  20.961  0.00  0.00    +0.000 A 
ATOM      8 BR   UNL     1      -1.534  12.124  21.227  0.00  0.00    +0.000 Br
ATOM      9  C   UNL     1       0.174  10.435  19.695  0.00  0.00    +0.000 A 
ATOM     10  C   UNL     1       1.021   9.351  19.568  0.00  0.00    +0.000 A 
ATOM     11  C   UNL     1       1.729   8.857  18.396  0.00  0.00    +0.000 C 
ATOM     12  O   UNL     1       1.711   9.316  17.275  0.00  0.00    +0.000 OA
ENDROOT
BRANCH   1  18
ATOM     13  C   UNL     1       1.925   4.363  18.626  0.00  0.00    +0.000 C 
ATOM     14  N   UNL     1       3.355   4.573  18.713  0.00  0.00    +0.000 N 
ATOM     15  C   UNL     1       4.347   3.672  19.032  0.00  0.00    +0.000 A 
ATOM     16  C   UNL     1       5.521   4.381  19.013  0.00  0.00    +0.000 A 
ATOM     17  N   UNL     1       5.291   5.685  18.671  0.00  0.00    +0.000 NA
ATOM     18  C   UNL     1       3.990   5.803  18.477  0.00  0.00    +0.000 A 
BRANCH  15  19
ATOM     19  N   UNL     1       4.203   2.282  19.322  0.00  0.00    +0.000 N 
ATOM     20  O   UNL     1       3.524   1.587  18.563  0.00  0.00    +0.000 OA
ATOM     21  O   UNL     1       4.791   1.871  20.331  0.00  0.00    +0.000 OA
ENDBRANCH  15  19
ENDBRANCH   1  18
TORSDOF 2
ENDMDL
MODEL 3
REMARK VINA RESULT:      -7.0      2.504      3.061
REMARK  Name = 
REMARK  3 active torsions:
REMARK  status: ('A' for Active; 'I' for Inactive)
REMARK    1  A    between atoms: C_1  and  N_2
REMARK    2  A    between atoms: C_3  and  N_4
REMARK    3  A    between atoms: C_9  and  C_10
REMARK                            x       y       z     vdW  Elec       q    Type
REMARK                         _______ _______ _______ _____ _____    ______ ____
ROOT
ATOM      1  C   UNL     1       2.277   6.773  19.476  0.00  0.00    +0.000 C 
ATOM      2  C   UNL     1       1.628   7.721  20.170  0.00  0.00    +0.000 C 
ATOM      3  O   UNL     1       1.031   7.643  21.424  0.00  0.00    +0.000 OA
ATOM      4  C   UNL     1       0.508   8.899  21.672  0.00  0.00    +0.000 A 
ATOM      5  C   UNL     1      -0.178   9.294  22.803  0.00  0.00    +0.000 A 
ATOM      6  C   UNL     1      -0.633  10.622  22.864  0.00  0.00    +0.000 A 
ATOM      7  C   UNL     1      -0.394  11.516  21.801  0.00  0.00    +0.000 A 
ATOM      8 BR   UNL     1      -1.027  13.295  21.924  0.00  0.00    +0.000 Br
ATOM      9  C   UNL     1       0.300  11.113  20.662  0.00  0.00    +0.000 A 
ATOM     10  C   UNL     1       0.733   9.802  20.635  0.00  0.00    +0.000 A 
ATOM     11  C   UNL     1       1.473   9.089  19.603  0.00  0.00    +0.000 C 
ATOM     12  O   UNL     1       1.861   9.522  18.541  0.00  0.00    +0.000 OA
ENDROOT
BRANCH   1  18
ATOM     13  C   UNL     1       4.031   4.904  18.010  0.00  0.00    +0.000 C 
ATOM     14  N   UNL     1       3.334   4.565  19.232  0.00  0.00    +0.000 N 
ATOM     15  C   UNL     1       3.344   3.381  19.937  0.00  0.00    +0.000 A 
ATOM     16  C   UNL     1       2.489   3.564  20.994  0.00  0.00    +0.000 A 
ATOM     17  N   UNL     1       1.967   4.829  20.978  0.00  0.00    +0.000 NA
ATOM     18  C   UNL     1       2.482   5.439  19.927  0.00  0.00    +0.000 A 
BRANCH  15  19
ATOM     19  N   UNL     1       4.088   2.199  19.646  0.00  0.00    +0.000 N 
ATOM     20  O   UNL     1       3.720   1.482  18.714  0.00  0.00    +0.000 OA
ATOM     21  O   UNL     1       5.074   1.984  20.364  0.00  0.00    +0.000 OA
ENDBRANCH  15  19
ENDBRANCH   1  18
TORSDOF 2
ENDMDL
MODEL 4
REMARK VINA RESULT:      -7.0      1.430      2.284
REMARK  Name = 
REMARK  3 active torsions:
REMARK  status: ('A' for Active; 'I' for Inactive)
REMARK    1  A    between atoms: C_1  and  N_2
REMARK    2  A    between atoms: C_3  and  N_4
REMARK    3  A    between atoms: C_9  and  C_10
REMARK                            x       y       z     vdW  Elec       q    Type
REMARK                         _______ _______ _______ _____ _____    ______ ____
ROOT
ATOM      1  C   UNL     1       3.295   5.345  18.986  0.00  0.00    +0.000 C 
ATOM      2  C   UNL     1       2.735   6.565  19.018  0.00  0.00    +0.000 C 
ATOM      3  O   UNL     1       2.831   7.604  18.097  0.00  0.00    +0.000 OA
ATOM      4  C   UNL     1       2.063   8.634  18.610  0.00  0.00    +0.000 A 
ATOM      5  C   UNL     1       1.861   9.871  18.033  0.00  0.00    +0.000 A 
ATOM      6  C   UNL     1       1.044  10.788  18.716  0.00  0.00    +0.000 A 
ATOM      7  C   UNL     1       0.452  10.447  19.949  0.00  0.00    +0.000 A 
ATOM      8 BR   UNL     1      -0.641  11.712  20.836  0.00  0.00    +0.000 Br
ATOM      9  C   UNL     1       0.658   9.196  20.527  0.00  0.00    +0.000 A 
ATOM     10  C   UNL     1       1.467   8.320  19.829  0.00  0.00    +0.000 A 
ATOM     11  C   UNL     1       1.869   6.961  20.162  0.00  0.00    +0.000 C 
ATOM     12  O   UNL     1       1.562   6.319  21.142  0.00  0.00    +0.000 OA
ENDROOT
BRANCH   1  18
ATOM     13  C   UNL     1       6.190   5.925  18.949  0.00  0.00    +0.000 C 
ATOM     14  N   UNL     1       5.513   5.134  17.943  0.00  0.00    +0.000 N 
ATOM     15  C   UNL     1       6.037   4.511  16.831  0.00  0.00    +0.000 A 
ATOM     16  C   UNL     1       4.973   3.931  16.188  0.00  0.00    +0.000 A 
ATOM     17  N   UNL     1       3.813   4.155  16.877  0.00  0.00    +0.000 NA
ATOM     18  C   UNL     1       4.135   4.868  17.940  0.00  0.00    +0.000 A 
BRANCH  15  19
ATOM     19  N   UNL     1       7.402   4.464  16.419  0.00  0.00    +0.000 N 
ATOM     20  O   UNL     1       8.252   4.092  17.229  0.00  0.00    +0.000 OA
ATOM     21  O   UNL     1       7.632   4.801  15.249  0.00  0.00    +0.000 OA
ENDBRANCH  15  19
ENDBRANCH   1  18
TORSDOF 2
ENDMDL
MODEL 5
REMARK VINA RESULT:      -6.9      1.087      1.170
REMARK  Name = 
REMARK  3 active torsions:
REMARK  status: ('A' for Active; 'I' for Inactive)
REMARK    1  A    between atoms: C_1  and  N_2
REMARK    2  A    between atoms: C_3  and  N_4
REMARK    3  A    between atoms: C_9  and  C_10
REMARK                            x       y       z     vdW  Elec       q    Type
REMARK                         _______ _______ _______ _____ _____    ______ ____
ROOT
ATOM      1  C   UNL     1       2.647   7.481  18.224  0.00  0.00    +0.000 C 
ATOM      2  C   UNL     1       1.970   8.117  19.193  0.00  0.00    +0.000 C 
ATOM      3  O   UNL     1       1.949   7.871  20.562  0.00  0.00    +0.000 OA
ATOM      4  C   UNL     1       1.093   8.814  21.102  0.00  0.00    +0.000 A 
ATOM      5  C   UNL     1       0.764   8.955  22.435  0.00  0.00    +0.000 A 
ATOM      6  C   UNL     1      -0.131   9.980  22.785  0.00  0.00    +0.000 A 
ATOM      7  C   UNL     1      -0.671  10.834  21.801  0.00  0.00    +0.000 A 
ATOM      8 BR   UNL     1      -1.874  12.200  22.316  0.00  0.00    +0.000 Br
ATOM      9  C   UNL     1      -0.334  10.687  20.457  0.00  0.00    +0.000 A 
ATOM     10  C   UNL     1       0.548   9.670  20.148  0.00  0.00    +0.000 A 
ATOM     11  C   UNL     1       1.085   9.267  18.857  0.00  0.00    +0.000 C 
ATOM     12  O   UNL     1       0.857   9.760  17.775  0.00  0.00    +0.000 OA
ENDROOT
BRANCH   1  18
ATOM     13  C   UNL     1       4.933   6.951  16.432  0.00  0.00    +0.000 C 
ATOM     14  N   UNL     1       4.613   6.145  17.590  0.00  0.00    +0.000 N 
ATOM     15  C   UNL     1       5.266   5.037  18.084  0.00  0.00    +0.000 A 
ATOM     16  C   UNL     1       4.540   4.623  19.171  0.00  0.00    +0.000 A 
ATOM     17  N   UNL     1       3.471   5.452  19.379  0.00  0.00    +0.000 NA
ATOM     18  C   UNL     1       3.518   6.376  18.438  0.00  0.00    +0.000 A 
BRANCH  15  19
ATOM     19  N   UNL     1       6.458   4.432  17.583  0.00  0.00    +0.000 N 
ATOM     20  O   UNL     1       7.467   4.438  18.291  0.00  0.00    +0.000 OA
ATOM     21  O   UNL     1       6.383   3.929  16.454  0.00  0.00    +0.000 OA
ENDBRANCH  15  19
ENDBRANCH   1  18
TORSDOF 2
ENDMDL
MODEL 6
REMARK VINA RESULT:      -6.9      1.780      2.314
REMARK  Name = 
REMARK  3 active torsions:
REMARK  status: ('A' for Active; 'I' for Inactive)
REMARK    1  A    between atoms: C_1  and  N_2
REMARK    2  A    between atoms: C_3  and  N_4
REMARK    3  A    between atoms: C_9  and  C_10
REMARK                            x       y       z     vdW  Elec       q    Type
REMARK                         _______ _______ _______ _____ _____    ______ ____
ROOT
ATOM      1  C   UNL     1       2.131   8.019  18.955  0.00  0.00    +0.000 C 
ATOM      2  C   UNL     1       1.390   8.682  19.857  0.00  0.00    +0.000 C 
ATOM      3  O   UNL     1       1.004   8.296  21.136  0.00  0.00    +0.000 OA
ATOM      4  C   UNL     1       0.254   9.344  21.637  0.00  0.00    +0.000 A 
ATOM      5  C   UNL     1      -0.340   9.407  22.881  0.00  0.00    +0.000 A 
ATOM      6  C   UNL     1      -1.066  10.566  23.203  0.00  0.00    +0.000 A 
ATOM      7  C   UNL     1      -1.180  11.626  22.281  0.00  0.00    +0.000 A 
ATOM      8 BR   UNL     1      -2.170  13.167  22.756  0.00  0.00    +0.000 Br
ATOM      9  C   UNL     1      -0.578  11.557  21.026  0.00  0.00    +0.000 A 
ATOM     10  C   UNL     1       0.128  10.405  20.743  0.00  0.00    +0.000 A 
ATOM     11  C   UNL     1       0.858  10.035  19.538  0.00  0.00    +0.000 C 
ATOM     12  O   UNL     1       0.990  10.687  18.526  0.00  0.00    +0.000 OA
ENDROOT
BRANCH   1  18
ATOM     13  C   UNL     1       4.305   6.988  17.242  0.00  0.00    +0.000 C 
ATOM     14  N   UNL     1       3.734   6.253  18.351  0.00  0.00    +0.000 N 
ATOM     15  C   UNL     1       4.065   5.003  18.825  0.00  0.00    +0.000 A 
ATOM     16  C   UNL     1       3.203   4.752  19.862  0.00  0.00    +0.000 A 
ATOM     17  N   UNL     1       2.364   5.814  20.059  0.00  0.00    +0.000 NA
ATOM     18  C   UNL     1       2.688   6.726  19.160  0.00  0.00    +0.000 A 
BRANCH  15  19
ATOM     19  N   UNL     1       5.095   4.135  18.352  0.00  0.00    +0.000 N 
ATOM     20  O   UNL     1       4.885   3.467  17.338  0.00  0.00    +0.000 OA
ATOM     21  O   UNL     1       6.146   4.126  19.007  0.00  0.00    +0.000 OA
ENDBRANCH  15  19
ENDBRANCH   1  18
TORSDOF 2
ENDMDL
MODEL 7
REMARK VINA RESULT:      -6.9      4.921      7.978
REMARK  Name = 
REMARK  3 active torsions:
REMARK  status: ('A' for Active; 'I' for Inactive)
REMARK    1  A    between atoms: C_1  and  N_2
REMARK    2  A    between atoms: C_3  and  N_4
REMARK    3  A    between atoms: C_9  and  C_10
REMARK                            x       y       z     vdW  Elec       q    Type
REMARK                         _______ _______ _______ _____ _____    ______ ____
ROOT
ATOM      1  C   UNL     1       0.902   9.665  19.890  0.00  0.00    +0.000 C 
ATOM      2  C   UNL     1       1.575   8.539  19.606  0.00  0.00    +0.000 C 
ATOM      3  O   UNL     1       1.799   7.421  20.403  0.00  0.00    +0.000 OA
ATOM      4  C   UNL     1       2.546   6.550  19.629  0.00  0.00    +0.000 A 
ATOM      5  C   UNL     1       3.004   5.304  20.007  0.00  0.00    +0.000 A 
ATOM      6  C   UNL     1       3.752   4.569  19.073  0.00  0.00    +0.000 A 
ATOM      7  C   UNL     1       4.021   5.093  17.792  0.00  0.00    +0.000 A 
ATOM      8 BR   UNL     1       5.035   4.069  16.565  0.00  0.00    +0.000 Br
ATOM      9  C   UNL     1       3.556   6.351  17.415  0.00  0.00    +0.000 A 
ATOM     10  C   UNL     1       2.824   7.046  18.358  0.00  0.00    +0.000 A 
ATOM     11  C   UNL     1       2.211   8.364  18.271  0.00  0.00    +0.000 C 
ATOM     12  O   UNL     1       2.224   9.124  17.328  0.00  0.00    +0.000 OA
ENDROOT
BRANCH   1  18
ATOM     13  C   UNL     1      -0.509  12.213  20.379  0.00  0.00    +0.000 C 
ATOM     14  N   UNL     1      -0.426  11.138  21.346  0.00  0.00    +0.000 N 
ATOM     15  C   UNL     1      -0.960  11.069  22.613  0.00  0.00    +0.000 A 
ATOM     16  C   UNL     1      -0.561   9.860  23.126  0.00  0.00    +0.000 A 
ATOM     17  N   UNL     1       0.184   9.171  22.208  0.00  0.00    +0.000 NA
ATOM     18  C   UNL     1       0.258   9.931  21.131  0.00  0.00    +0.000 A 
BRANCH  15  19
ATOM     19  N   UNL     1      -1.770  12.041  23.274  0.00  0.00    +0.000 N 
ATOM     20  O   UNL     1      -1.255  13.107  23.615  0.00  0.00    +0.000 OA
ATOM     21  O   UNL     1      -2.957  11.734  23.449  0.00  0.00    +0.000 OA
ENDBRANCH  15  19
ENDBRANCH   1  18
TORSDOF 2
ENDMDL
MODEL 8
REMARK VINA RESULT:      -6.9      1.560      2.533
REMARK  Name = 
REMARK  3 active torsions:
REMARK  status: ('A' for Active; 'I' for Inactive)
REMARK    1  A    between atoms: C_1  and  N_2
REMARK    2  A    between atoms: C_3  and  N_4
REMARK    3  A    between atoms: C_9  and  C_10
REMARK                            x       y       z     vdW  Elec       q    Type
REMARK                         _______ _______ _______ _____ _____    ______ ____
ROOT
ATOM      1  C   UNL     1       3.357   4.665  19.029  0.00  0.00    +0.000 C 
ATOM      2  C   UNL     1       2.749   5.806  19.392  0.00  0.00    +0.000 C 
ATOM      3  O   UNL     1       2.742   7.042  18.754  0.00  0.00    +0.000 OA
ATOM      4  C   UNL     1       1.964   7.869  19.544  0.00  0.00    +0.000 A 
ATOM      5  C   UNL     1       1.674   9.197  19.304  0.00  0.00    +0.000 A 
ATOM      6  C   UNL     1       0.862   9.869  20.233  0.00  0.00    +0.000 A 
ATOM      7  C   UNL     1       0.363   9.203  21.371  0.00  0.00    +0.000 A 
ATOM      8 BR   UNL     1      -0.725  10.147  22.598  0.00  0.00    +0.000 Br
ATOM      9  C   UNL     1       0.659   7.862  21.608  0.00  0.00    +0.000 A 
ATOM     10  C   UNL     1       1.460   7.232  20.675  0.00  0.00    +0.000 A 
ATOM     11  C   UNL     1       1.940   5.858  20.640  0.00  0.00    +0.000 C 
ATOM     12  O   UNL     1       1.722   4.979  21.444  0.00  0.00    +0.000 OA
ENDROOT
BRANCH   1  18
ATOM     13  C   UNL     1       6.201   5.457  18.974  0.00  0.00    +0.000 C 
ATOM     14  N   UNL     1       5.506   4.871  17.848  0.00  0.00    +0.000 N 
ATOM     15  C   UNL     1       5.987   4.564  16.595  0.00  0.00    +0.000 A 
ATOM     16  C   UNL     1       4.920   4.068  15.891  0.00  0.00    +0.000 A 
ATOM     17  N   UNL     1       3.799   4.037  16.675  0.00  0.00    +0.000 NA
ATOM     18  C   UNL     1       4.150   4.508  17.857  0.00  0.00    +0.000 A 
BRANCH  15  19
ATOM     19  N   UNL     1       7.321   4.718  16.111  0.00  0.00    +0.000 N 
ATOM     20  O   UNL     1       8.245   4.211  16.749  0.00  0.00    +0.000 OA
ATOM     21  O   UNL     1       7.449   5.357  15.057  0.00  0.00    +0.000 OA
ENDBRANCH  15  19
ENDBRANCH   1  18
TORSDOF 2
ENDMDL
MODEL 9
REMARK VINA RESULT:      -6.8      2.418      2.938
REMARK  Name = 
REMARK  3 active torsions:
REMARK  status: ('A' for Active; 'I' for Inactive)
REMARK    1  A    between atoms: C_1  and  N_2
REMARK    2  A    between atoms: C_3  and  N_4
REMARK    3  A    between atoms: C_9  and  C_10
REMARK                            x       y       z     vdW  Elec       q    Type
REMARK                         _______ _______ _______ _____ _____    ______ ____
ROOT
ATOM      1  C   UNL     1       2.508   6.742  18.752  0.00  0.00    +0.000 C 
ATOM      2  C   UNL     1       1.914   7.816  19.294  0.00  0.00    +0.000 C 
ATOM      3  O   UNL     1       1.348   7.968  20.556  0.00  0.00    +0.000 OA
ATOM      4  C   UNL     1       0.879   9.268  20.605  0.00  0.00    +0.000 A 
ATOM      5  C   UNL     1       0.239   9.869  21.670  0.00  0.00    +0.000 A 
ATOM      6  C   UNL     1      -0.167  11.206  21.522  0.00  0.00    +0.000 A 
ATOM      7  C   UNL     1       0.077  11.905  20.322  0.00  0.00    +0.000 A 
ATOM      8 BR   UNL     1      -0.487  13.704  20.166  0.00  0.00    +0.000 Br
ATOM      9  C   UNL     1       0.724  11.294  19.251  0.00  0.00    +0.000 A 
ATOM     10  C   UNL     1       1.109   9.979  19.430  0.00  0.00    +0.000 A 
ATOM     11  C   UNL     1       1.793   9.078  18.514  0.00  0.00    +0.000 C 
ATOM     12  O   UNL     1       2.168   9.316  17.387  0.00  0.00    +0.000 OA
ENDROOT
BRANCH   1  18
ATOM     13  C   UNL     1       4.087   4.560  17.539  0.00  0.00    +0.000 C 
ATOM     14  N   UNL     1       3.445   4.468  18.833  0.00  0.00    +0.000 N 
ATOM     15  C   UNL     1       3.440   3.420  19.726  0.00  0.00    +0.000 A 
ATOM     16  C   UNL     1       2.657   3.823  20.778  0.00  0.00    +0.000 A 
ATOM     17  N   UNL     1       2.195   5.094  20.574  0.00  0.00    +0.000 NA
ATOM     18  C   UNL     1       2.677   5.492  19.411  0.00  0.00    +0.000 A 
BRANCH  15  19
ATOM     19  N   UNL     1       4.111   2.166  19.604  0.00  0.00    +0.000 N 
ATOM     20  O   UNL     1       3.720   1.367  18.751  0.00  0.00    +0.000 OA
ATOM     21  O   UNL     1       5.061   1.977  20.376  0.00  0.00    +0.000 OA
ENDBRANCH  15  19
ENDBRANCH   1  18
TORSDOF 2
ENDMDL
