MODEL 1
REMARK VINA RESULT:      -8.4      0.000      0.000
REMARK  Name = 
REMARK  4 active torsions:
REMARK  status: ('A' for Active; 'I' for Inactive)
REMARK    1  A    between atoms: C_2  and  C_11
REMARK    2  A    between atoms: N_3  and  C_4
REMARK    3  A    between atoms: C_13  and  C_14
REMARK    4  A    between atoms: C_20  and  C_21
REMARK                            x       y       z     vdW  Elec       q    Type
REMARK                         _______ _______ _______ _____ _____    ______ ____
ROOT
ATOM      1  C   UNL     1       2.416   6.798  19.526  0.00  0.00    +0.000 A 
ATOM      2  C   UNL     1       3.419   6.621  18.596  0.00  0.00    +0.000 A 
ATOM      3  C   UNL     1       3.927   5.279  18.520  0.00  0.00    +0.000 A 
ATOM      4  C   UNL     1       3.281   4.459  19.443  0.00  0.00    +0.000 A 
ATOM      5  S   UNL     1       2.086   5.345  20.337  0.00  0.00    +0.000 S 
ENDROOT
BRANCH   3   6
ATOM      6  C   UNL     1       4.991   4.865  17.596  0.00  0.00    +0.000 A 
ATOM      7  C   UNL     1       6.336   4.962  17.998  0.00  0.00    +0.000 A 
ATOM      8  C   UNL     1       7.373   4.606  17.133  0.00  0.00    +0.000 A 
ATOM      9  C   UNL     1       7.084   4.127  15.859  0.00  0.00    +0.000 A 
ATOM     10  C   UNL     1       5.758   4.039  15.441  0.00  0.00    +0.000 A 
ATOM     11  C   UNL     1       4.722   4.435  16.292  0.00  0.00    +0.000 A 
ENDBRANCH   3   6
BRANCH   1  13
ATOM     12  O   UNL     1       1.576   8.870  18.863  0.00  0.00    +0.000 OA
ATOM     13  C   UNL     1       1.701   8.048  19.770  0.00  0.00    +0.000 C 
ATOM     14  N   UNL     1       1.236   8.248  21.063  0.00  0.00    +0.000 N 
ATOM     15  H   UNL     1       1.527   7.564  21.751  0.00  0.00    +0.000 HD
BRANCH  14  16
ATOM     16  C   UNL     1       0.535   9.381  21.532  0.00  0.00    +0.000 A 
ATOM     17  C   UNL     1       0.643  10.648  20.948  0.00  0.00    +0.000 A 
ATOM     18  C   UNL     1      -0.024  11.750  21.492  0.00  0.00    +0.000 A 
ATOM     19  C   UNL     1      -0.812  11.588  22.624  0.00  0.00    +0.000 A 
ATOM     20 CL   UNL     1      -1.595  12.953  23.321  0.00  0.00    +0.000 Cl
ATOM     21  C   UNL     1      -0.964  10.328  23.196  0.00  0.00    +0.000 A 
ATOM     22  C   UNL     1      -0.302   9.224  22.644  0.00  0.00    +0.000 A 
ENDBRANCH  14  16
ENDBRANCH   1  13
BRANCH   4  23
ATOM     23  C   UNL     1       3.418   3.006  19.787  0.00  0.00    +0.000 C 
ATOM     24  F   UNL     1       2.593   2.576  20.771  0.00  0.00    +0.000 F 
ATOM     25  F   UNL     1       3.168   2.205  18.717  0.00  0.00    +0.000 F 
ATOM     26  F   UNL     1       4.685   2.717  20.196  0.00  0.00    +0.000 F 
ENDBRANCH   4  23
TORSDOF 4
ENDMDL
MODEL 2
REMARK VINA RESULT:      -8.4      0.158      1.572
REMARK  Name = 
REMARK  4 active torsions:
REMARK  status: ('A' for Active; 'I' for Inactive)
REMARK    1  A    between atoms: C_2  and  C_11
REMARK    2  A    between atoms: N_3  and  C_4
REMARK    3  A    between atoms: C_13  and  C_14
REMARK    4  A    between atoms: C_20  and  C_21
REMARK                            x       y       z     vdW  Elec       q    Type
REMARK                         _______ _______ _______ _____ _____    ______ ____
ROOT
ATOM      1  C   UNL     1       2.426   6.728  19.632  0.00  0.00    +0.000 A 
ATOM      2  C   UNL     1       3.439   6.602  18.704  0.00  0.00    +0.000 A 
ATOM      3  C   UNL     1       3.977   5.274  18.590  0.00  0.00    +0.000 A 
ATOM      4  C   UNL     1       3.342   4.412  19.481  0.00  0.00    +0.000 A 
ATOM      5  S   UNL     1       2.122   5.242  20.393  0.00  0.00    +0.000 S 
ENDROOT
BRANCH   3   6
ATOM      6  C   UNL     1       5.057   4.913  17.662  0.00  0.00    +0.000 A 
ATOM      7  C   UNL     1       4.739   4.444  16.375  0.00  0.00    +0.000 A 
ATOM      8  C   UNL     1       5.742   4.063  15.479  0.00  0.00    +0.000 A 
ATOM      9  C   UNL     1       7.079   4.165  15.848  0.00  0.00    +0.000 A 
ATOM     10  C   UNL     1       7.410   4.613  17.125  0.00  0.00    +0.000 A 
ATOM     11  C   UNL     1       6.406   4.954  18.035  0.00  0.00    +0.000 A 
ENDBRANCH   3   6
BRANCH   1  13
ATOM     12  O   UNL     1       1.416   8.730  18.992  0.00  0.00    +0.000 OA
ATOM     13  C   UNL     1       1.683   7.954  19.909  0.00  0.00    +0.000 C 
ATOM     14  N   UNL     1       1.357   8.187  21.238  0.00  0.00    +0.000 N 
ATOM     15  H   UNL     1       1.756   7.547  21.913  0.00  0.00    +0.000 HD
BRANCH  14  16
ATOM     16  C   UNL     1       0.658   9.307  21.742  0.00  0.00    +0.000 A 
ATOM     17  C   UNL     1      -0.248   9.233  22.805  0.00  0.00    +0.000 A 
ATOM     18  C   UNL     1      -0.961  10.360  23.222  0.00  0.00    +0.000 A 
ATOM     19  C   UNL     1      -0.765  11.577  22.580  0.00  0.00    +0.000 A 
ATOM     20 CL   UNL     1      -1.678  12.953  23.062  0.00  0.00    +0.000 Cl
ATOM     21  C   UNL     1       0.162  11.679  21.546  0.00  0.00    +0.000 A 
ATOM     22  C   UNL     1       0.881  10.550  21.136  0.00  0.00    +0.000 A 
ENDBRANCH  14  16
ENDBRANCH   1  13
BRANCH   4  23
ATOM     23  C   UNL     1       3.508   2.952  19.780  0.00  0.00    +0.000 C 
ATOM     24  F   UNL     1       4.773   2.575  20.085  0.00  0.00    +0.000 F 
ATOM     25  F   UNL     1       2.741   2.558  20.833  0.00  0.00    +0.000 F 
ATOM     26  F   UNL     1       3.126   2.188  18.719  0.00  0.00    +0.000 F 
ENDBRANCH   4  23
TORSDOF 4
ENDMDL
MODEL 3
REMARK VINA RESULT:      -8.4      0.191      1.256
REMARK  Name = 
REMARK  4 active torsions:
REMARK  status: ('A' for Active; 'I' for Inactive)
REMARK    1  A    between atoms: C_2  and  C_11
REMARK    2  A    between atoms: N_3  and  C_4
REMARK    3  A    between atoms: C_13  and  C_14
REMARK    4  A    between atoms: C_20  and  C_21
REMARK                            x       y       z     vdW  Elec       q    Type
REMARK                         _______ _______ _______ _____ _____    ______ ____
ROOT
ATOM      1  C   UNL     1       2.442   6.666  19.613  0.00  0.00    +0.000 A 
ATOM      2  C   UNL     1       3.441   6.527  18.672  0.00  0.00    +0.000 A 
ATOM      3  C   UNL     1       3.958   5.192  18.548  0.00  0.00    +0.000 A 
ATOM      4  C   UNL     1       3.323   4.337  19.446  0.00  0.00    +0.000 A 
ATOM      5  S   UNL     1       2.127   5.183  20.377  0.00  0.00    +0.000 S 
ENDROOT
BRANCH   3   6
ATOM      6  C   UNL     1       5.020   4.817  17.605  0.00  0.00    +0.000 A 
ATOM      7  C   UNL     1       6.367   4.929  17.997  0.00  0.00    +0.000 A 
ATOM      8  C   UNL     1       7.402   4.610  17.113  0.00  0.00    +0.000 A 
ATOM      9  C   UNL     1       7.108   4.153  15.833  0.00  0.00    +0.000 A 
ATOM     10  C   UNL     1       5.779   4.052  15.425  0.00  0.00    +0.000 A 
ATOM     11  C   UNL     1       4.746   4.411  16.295  0.00  0.00    +0.000 A 
ENDBRANCH   3   6
BRANCH   1  13
ATOM     12  O   UNL     1       1.496   8.707  19.000  0.00  0.00    +0.000 OA
ATOM     13  C   UNL     1       1.720   7.901  19.903  0.00  0.00    +0.000 C 
ATOM     14  N   UNL     1       1.364   8.109  21.229  0.00  0.00    +0.000 N 
ATOM     15  H   UNL     1       1.730   7.442  21.897  0.00  0.00    +0.000 HD
BRANCH  14  16
ATOM     16  C   UNL     1       0.678   9.232  21.743  0.00  0.00    +0.000 A 
ATOM     17  C   UNL     1      -0.229   9.158  22.806  0.00  0.00    +0.000 A 
ATOM     18  C   UNL     1      -0.929  10.290  23.233  0.00  0.00    +0.000 A 
ATOM     19  C   UNL     1      -0.720  11.509  22.602  0.00  0.00    +0.000 A 
ATOM     20 CL   UNL     1      -1.617  12.891  23.096  0.00  0.00    +0.000 Cl
ATOM     21  C   UNL     1       0.207  11.611  21.568  0.00  0.00    +0.000 A 
ATOM     22  C   UNL     1       0.914  10.477  21.147  0.00  0.00    +0.000 A 
ENDBRANCH  14  16
ENDBRANCH   1  13
BRANCH   4  23
ATOM     23  C   UNL     1       3.473   2.874  19.741  0.00  0.00    +0.000 C 
ATOM     24  F   UNL     1       3.441   2.070  18.652  0.00  0.00    +0.000 F 
ATOM     25  F   UNL     1       4.647   2.600  20.370  0.00  0.00    +0.000 F 
ATOM     26  F   UNL     1       2.483   2.438  20.568  0.00  0.00    +0.000 F 
ENDBRANCH   4  23
TORSDOF 4
ENDMDL
MODEL 4
REMARK VINA RESULT:      -8.4      0.128      1.193
REMARK  Name = 
REMARK  4 active torsions:
REMARK  status: ('A' for Active; 'I' for Inactive)
REMARK    1  A    between atoms: C_2  and  C_11
REMARK    2  A    between atoms: N_3  and  C_4
REMARK    3  A    between atoms: C_13  and  C_14
REMARK    4  A    between atoms: C_20  and  C_21
REMARK                            x       y       z     vdW  Elec       q    Type
REMARK                         _______ _______ _______ _____ _____    ______ ____
ROOT
ATOM      1  C   UNL     1       2.403   6.836  19.555  0.00  0.00    +0.000 A 
ATOM      2  C   UNL     1       3.419   6.674  18.636  0.00  0.00    +0.000 A 
ATOM      3  C   UNL     1       3.953   5.341  18.571  0.00  0.00    +0.000 A 
ATOM      4  C   UNL     1       3.313   4.513  19.490  0.00  0.00    +0.000 A 
ATOM      5  S   UNL     1       2.091   5.379  20.368  0.00  0.00    +0.000 S 
ENDROOT
BRANCH   3   6
ATOM      6  C   UNL     1       5.035   4.944  17.661  0.00  0.00    +0.000 A 
ATOM      7  C   UNL     1       4.720   4.454  16.380  0.00  0.00    +0.000 A 
ATOM      8  C   UNL     1       5.724   4.039  15.502  0.00  0.00    +0.000 A 
ATOM      9  C   UNL     1       7.060   4.126  15.880  0.00  0.00    +0.000 A 
ATOM     10  C   UNL     1       7.387   4.595  17.150  0.00  0.00    +0.000 A 
ATOM     11  C   UNL     1       6.381   4.970  18.044  0.00  0.00    +0.000 A 
ENDBRANCH   3   6
BRANCH   1  13
ATOM     12  O   UNL     1       1.459   8.849  18.853  0.00  0.00    +0.000 OA
ATOM     13  C   UNL     1       1.662   8.073  19.787  0.00  0.00    +0.000 C 
ATOM     14  N   UNL     1       1.266   8.316  21.094  0.00  0.00    +0.000 N 
ATOM     15  H   UNL     1       1.617   7.673  21.793  0.00  0.00    +0.000 HD
BRANCH  14  16
ATOM     16  C   UNL     1       0.555   9.448  21.554  0.00  0.00    +0.000 A 
ATOM     17  C   UNL     1       0.698  10.723  20.998  0.00  0.00    +0.000 A 
ATOM     18  C   UNL     1       0.018  11.821  21.533  0.00  0.00    +0.000 A 
ATOM     19  C   UNL     1      -0.817  11.648  22.629  0.00  0.00    +0.000 A 
ATOM     20 CL   UNL     1      -1.616  13.007  23.318  0.00  0.00    +0.000 Cl
ATOM     21  C   UNL     1      -1.002  10.379  23.173  0.00  0.00    +0.000 A 
ATOM     22  C   UNL     1      -0.327   9.279  22.629  0.00  0.00    +0.000 A 
ENDBRANCH  14  16
ENDBRANCH   1  13
BRANCH   4  23
ATOM     23  C   UNL     1       3.473   3.064  19.842  0.00  0.00    +0.000 C 
ATOM     24  F   UNL     1       2.982   2.199  18.922  0.00  0.00    +0.000 F 
ATOM     25  F   UNL     1       4.779   2.724  20.010  0.00  0.00    +0.000 F 
ATOM     26  F   UNL     1       2.845   2.772  21.015  0.00  0.00    +0.000 F 
ENDBRANCH   4  23
TORSDOF 4
ENDMDL
MODEL 5
REMARK VINA RESULT:      -8.0      1.530      2.131
REMARK  Name = 
REMARK  4 active torsions:
REMARK  status: ('A' for Active; 'I' for Inactive)
REMARK    1  A    between atoms: C_2  and  C_11
REMARK    2  A    between atoms: N_3  and  C_4
REMARK    3  A    between atoms: C_13  and  C_14
REMARK    4  A    between atoms: C_20  and  C_21
REMARK                            x       y       z     vdW  Elec       q    Type
REMARK                         _______ _______ _______ _____ _____    ______ ____
ROOT
ATOM      1  C   UNL     1       2.367   6.541  19.861  0.00  0.00    +0.000 A 
ATOM      2  C   UNL     1       3.378   6.502  18.923  0.00  0.00    +0.000 A 
ATOM      3  C   UNL     1       3.904   5.188  18.672  0.00  0.00    +0.000 A 
ATOM      4  C   UNL     1       3.263   4.244  19.471  0.00  0.00    +0.000 A 
ATOM      5  S   UNL     1       2.050   4.987  20.466  0.00  0.00    +0.000 S 
ENDROOT
BRANCH   3   6
ATOM      6  C   UNL     1       4.980   4.915  17.711  0.00  0.00    +0.000 A 
ATOM      7  C   UNL     1       4.656   4.548  16.392  0.00  0.00    +0.000 A 
ATOM      8  C   UNL     1       5.655   4.252  15.461  0.00  0.00    +0.000 A 
ATOM      9  C   UNL     1       6.995   4.338  15.827  0.00  0.00    +0.000 A 
ATOM     10  C   UNL     1       7.332   4.686  17.133  0.00  0.00    +0.000 A 
ATOM     11  C   UNL     1       6.332   4.941  18.075  0.00  0.00    +0.000 A 
ENDBRANCH   3   6
BRANCH   1  13
ATOM     12  O   UNL     1       1.133   7.800  21.387  0.00  0.00    +0.000 OA
ATOM     13  C   UNL     1       1.634   7.737  20.265  0.00  0.00    +0.000 C 
ATOM     14  N   UNL     1       1.511   8.735  19.307  0.00  0.00    +0.000 N 
ATOM     15  H   UNL     1       1.843   8.504  18.379  0.00  0.00    +0.000 HD
BRANCH  14  16
ATOM     16  C   UNL     1       0.837   9.966  19.466  0.00  0.00    +0.000 A 
ATOM     17  C   UNL     1       1.201  10.924  20.418  0.00  0.00    +0.000 A 
ATOM     18  C   UNL     1       0.459  12.099  20.576  0.00  0.00    +0.000 A 
ATOM     19  C   UNL     1      -0.652  12.326  19.774  0.00  0.00    +0.000 A 
ATOM     20 CL   UNL     1      -1.592  13.748  20.001  0.00  0.00    +0.000 Cl
ATOM     21  C   UNL     1      -1.007  11.402  18.794  0.00  0.00    +0.000 A 
ATOM     22  C   UNL     1      -0.257  10.230  18.632  0.00  0.00    +0.000 A 
ENDBRANCH  14  16
ENDBRANCH   1  13
BRANCH   4  23
ATOM     23  C   UNL     1       3.416   2.760  19.618  0.00  0.00    +0.000 C 
ATOM     24  F   UNL     1       4.615   2.359  20.105  0.00  0.00    +0.000 F 
ATOM     25  F   UNL     1       2.482   2.233  20.455  0.00  0.00    +0.000 F 
ATOM     26  F   UNL     1       3.259   2.130  18.421  0.00  0.00    +0.000 F 
ENDBRANCH   4  23
TORSDOF 4
ENDMDL
MODEL 6
REMARK VINA RESULT:      -8.0      1.577      1.916
REMARK  Name = 
REMARK  4 active torsions:
REMARK  status: ('A' for Active; 'I' for Inactive)
REMARK    1  A    between atoms: C_2  and  C_11
REMARK    2  A    between atoms: N_3  and  C_4
REMARK    3  A    between atoms: C_13  and  C_14
REMARK    4  A    between atoms: C_20  and  C_21
REMARK                            x       y       z     vdW  Elec       q    Type
REMARK                         _______ _______ _______ _____ _____    ______ ____
ROOT
ATOM      1  C   UNL     1       2.310   6.578  19.955  0.00  0.00    +0.000 A 
ATOM      2  C   UNL     1       3.325   6.508  19.024  0.00  0.00    +0.000 A 
ATOM      3  C   UNL     1       3.823   5.180  18.788  0.00  0.00    +0.000 A 
ATOM      4  C   UNL     1       3.156   4.258  19.592  0.00  0.00    +0.000 A 
ATOM      5  S   UNL     1       1.955   5.037  20.573  0.00  0.00    +0.000 S 
ENDROOT
BRANCH   3   6
ATOM      6  C   UNL     1       4.898   4.874  17.835  0.00  0.00    +0.000 A 
ATOM      7  C   UNL     1       6.240   5.009  18.234  0.00  0.00    +0.000 A 
ATOM      8  C   UNL     1       7.285   4.756  17.342  0.00  0.00    +0.000 A 
ATOM      9  C   UNL     1       7.008   4.341  16.044  0.00  0.00    +0.000 A 
ATOM     10  C   UNL     1       5.684   4.216  15.629  0.00  0.00    +0.000 A 
ATOM     11  C   UNL     1       4.638   4.511  16.508  0.00  0.00    +0.000 A 
ENDBRANCH   3   6
BRANCH   1  13
ATOM     12  O   UNL     1       1.144   7.900  21.481  0.00  0.00    +0.000 OA
ATOM     13  C   UNL     1       1.602   7.795  20.343  0.00  0.00    +0.000 C 
ATOM     14  N   UNL     1       1.452   8.759  19.357  0.00  0.00    +0.000 N 
ATOM     15  H   UNL     1       1.747   8.493  18.425  0.00  0.00    +0.000 HD
BRANCH  14  16
ATOM     16  C   UNL     1       0.794  10.001  19.497  0.00  0.00    +0.000 A 
ATOM     17  C   UNL     1       1.236  11.012  20.357  0.00  0.00    +0.000 A 
ATOM     18  C   UNL     1       0.511  12.198  20.506  0.00  0.00    +0.000 A 
ATOM     19  C   UNL     1      -0.663  12.383  19.786  0.00  0.00    +0.000 A 
ATOM     20 CL   UNL     1      -1.581  13.822  20.005  0.00  0.00    +0.000 Cl
ATOM     21  C   UNL     1      -1.099  11.405  18.896  0.00  0.00    +0.000 A 
ATOM     22  C   UNL     1      -0.366  10.222  18.742  0.00  0.00    +0.000 A 
ENDBRANCH  14  16
ENDBRANCH   1  13
BRANCH   4  23
ATOM     23  C   UNL     1       3.276   2.772  19.754  0.00  0.00    +0.000 C 
ATOM     24  F   UNL     1       3.195   2.067  18.600  0.00  0.00    +0.000 F 
ATOM     25  F   UNL     1       4.459   2.417  20.323  0.00  0.00    +0.000 F 
ATOM     26  F   UNL     1       2.297   2.288  20.567  0.00  0.00    +0.000 F 
ENDBRANCH   4  23
TORSDOF 4
ENDMDL
MODEL 7
REMARK VINA RESULT:      -8.0      1.648      2.334
REMARK  Name = 
REMARK  4 active torsions:
REMARK  status: ('A' for Active; 'I' for Inactive)
REMARK    1  A    between atoms: C_2  and  C_11
REMARK    2  A    between atoms: N_3  and  C_4
REMARK    3  A    between atoms: C_13  and  C_14
REMARK    4  A    between atoms: C_20  and  C_21
REMARK                            x       y       z     vdW  Elec       q    Type
REMARK                         _______ _______ _______ _____ _____    ______ ____
ROOT
ATOM      1  C   UNL     1       2.423   6.600  19.729  0.00  0.00    +0.000 A 
ATOM      2  C   UNL     1       3.451   6.523  18.811  0.00  0.00    +0.000 A 
ATOM      3  C   UNL     1       3.909   5.187  18.546  0.00  0.00    +0.000 A 
ATOM      4  C   UNL     1       3.200   4.265  19.314  0.00  0.00    +0.000 A 
ATOM      5  S   UNL     1       2.009   5.056  20.298  0.00  0.00    +0.000 S 
ENDROOT
BRANCH   3   6
ATOM      6  C   UNL     1       4.989   4.872  17.602  0.00  0.00    +0.000 A 
ATOM      7  C   UNL     1       4.670   4.470  16.292  0.00  0.00    +0.000 A 
ATOM      8  C   UNL     1       5.673   4.133  15.378  0.00  0.00    +0.000 A 
ATOM      9  C   UNL     1       7.010   4.215  15.752  0.00  0.00    +0.000 A 
ATOM     10  C   UNL     1       7.342   4.597  17.049  0.00  0.00    +0.000 A 
ATOM     11  C   UNL     1       6.338   4.893  17.976  0.00  0.00    +0.000 A 
ENDBRANCH   3   6
BRANCH   1  13
ATOM     12  O   UNL     1       1.396   7.971  21.311  0.00  0.00    +0.000 OA
ATOM     13  C   UNL     1       1.749   7.829  20.140  0.00  0.00    +0.000 C 
ATOM     14  N   UNL     1       1.504   8.760  19.140  0.00  0.00    +0.000 N 
ATOM     15  H   UNL     1       1.714   8.464  18.195  0.00  0.00    +0.000 HD
BRANCH  14  16
ATOM     16  C   UNL     1       0.856  10.005  19.300  0.00  0.00    +0.000 A 
ATOM     17  C   UNL     1      -0.443  10.137  19.801  0.00  0.00    +0.000 A 
ATOM     18  C   UNL     1      -1.061  11.389  19.878  0.00  0.00    +0.000 A 
ATOM     19  C   UNL     1      -0.376  12.522  19.459  0.00  0.00    +0.000 A 
ATOM     20 CL   UNL     1      -1.152  14.057  19.509  0.00  0.00    +0.000 Cl
ATOM     21  C   UNL     1       0.933  12.416  18.994  0.00  0.00    +0.000 A 
ATOM     22  C   UNL     1       1.552  11.162  18.927  0.00  0.00    +0.000 A 
ENDBRANCH  14  16
ENDBRANCH   1  13
BRANCH   4  23
ATOM     23  C   UNL     1       3.269   2.773  19.435  0.00  0.00    +0.000 C 
ATOM     24  F   UNL     1       3.102   2.100  18.272  0.00  0.00    +0.000 F 
ATOM     25  F   UNL     1       4.464   2.358  19.935  0.00  0.00    +0.000 F 
ATOM     26  F   UNL     1       2.314   2.306  20.287  0.00  0.00    +0.000 F 
ENDBRANCH   4  23
TORSDOF 4
ENDMDL
MODEL 8
REMARK VINA RESULT:      -8.0      1.746      2.174
REMARK  Name = 
REMARK  4 active torsions:
REMARK  status: ('A' for Active; 'I' for Inactive)
REMARK    1  A    between atoms: C_2  and  C_11
REMARK    2  A    between atoms: N_3  and  C_4
REMARK    3  A    between atoms: C_13  and  C_14
REMARK    4  A    between atoms: C_20  and  C_21
REMARK                            x       y       z     vdW  Elec       q    Type
REMARK                         _______ _______ _______ _____ _____    ______ ____
ROOT
ATOM      1  C   UNL     1       2.430   6.635  19.678  0.00  0.00    +0.000 A 
ATOM      2  C   UNL     1       3.451   6.519  18.757  0.00  0.00    +0.000 A 
ATOM      3  C   UNL     1       3.885   5.169  18.520  0.00  0.00    +0.000 A 
ATOM      4  C   UNL     1       3.166   4.278  19.313  0.00  0.00    +0.000 A 
ATOM      5  S   UNL     1       1.994   5.111  20.285  0.00  0.00    +0.000 S 
ENDROOT
BRANCH   3   6
ATOM      6  C   UNL     1       4.954   4.815  17.577  0.00  0.00    +0.000 A 
ATOM      7  C   UNL     1       6.297   4.901  17.986  0.00  0.00    +0.000 A 
ATOM      8  C   UNL     1       7.339   4.600  17.103  0.00  0.00    +0.000 A 
ATOM      9  C   UNL     1       7.054   4.187  15.806  0.00  0.00    +0.000 A 
ATOM     10  C   UNL     1       5.729   4.111  15.382  0.00  0.00    +0.000 A 
ATOM     11  C   UNL     1       4.690   4.453  16.251  0.00  0.00    +0.000 A 
ENDBRANCH   3   6
BRANCH   1  13
ATOM     12  O   UNL     1       1.450   8.066  21.236  0.00  0.00    +0.000 OA
ATOM     13  C   UNL     1       1.779   7.883  20.064  0.00  0.00    +0.000 C 
ATOM     14  N   UNL     1       1.527   8.787  19.041  0.00  0.00    +0.000 N 
ATOM     15  H   UNL     1       1.716   8.460  18.102  0.00  0.00    +0.000 HD
BRANCH  14  16
ATOM     16  C   UNL     1       0.898  10.045  19.175  0.00  0.00    +0.000 A 
ATOM     17  C   UNL     1      -0.434  10.200  19.575  0.00  0.00    +0.000 A 
ATOM     18  C   UNL     1      -1.026  11.465  19.629  0.00  0.00    +0.000 A 
ATOM     19  C   UNL     1      -0.284  12.589  19.288  0.00  0.00    +0.000 A 
ATOM     20 CL   UNL     1      -1.026  14.141  19.309  0.00  0.00    +0.000 Cl
ATOM     21  C   UNL     1       1.055  12.459  18.926  0.00  0.00    +0.000 A 
ATOM     22  C   UNL     1       1.648  11.191  18.882  0.00  0.00    +0.000 A 
ENDBRANCH  14  16
ENDBRANCH   1  13
BRANCH   4  23
ATOM     23  C   UNL     1       3.210   2.788  19.469  0.00  0.00    +0.000 C 
ATOM     24  F   UNL     1       4.369   2.304  19.976  0.00  0.00    +0.000 F 
ATOM     25  F   UNL     1       2.228   2.334  20.294  0.00  0.00    +0.000 F 
ATOM     26  F   UNL     1       3.026   2.164  18.273  0.00  0.00    +0.000 F 
ENDBRANCH   4  23
TORSDOF 4
ENDMDL
MODEL 9
REMARK VINA RESULT:      -7.9      1.826      2.049
REMARK  Name = 
REMARK  4 active torsions:
REMARK  status: ('A' for Active; 'I' for Inactive)
REMARK    1  A    between atoms: C_2  and  C_11
REMARK    2  A    between atoms: N_3  and  C_4
REMARK    3  A    between atoms: C_13  and  C_14
REMARK    4  A    between atoms: C_20  and  C_21
REMARK                            x       y       z     vdW  Elec       q    Type
REMARK                         _______ _______ _______ _____ _____    ______ ____
ROOT
ATOM      1  C   UNL     1       2.522   6.729  19.410  0.00  0.00    +0.000 A 
ATOM      2  C   UNL     1       3.522   6.599  18.468  0.00  0.00    +0.000 A 
ATOM      3  C   UNL     1       3.949   5.245  18.241  0.00  0.00    +0.000 A 
ATOM      4  C   UNL     1       3.245   4.366  19.061  0.00  0.00    +0.000 A 
ATOM      5  S   UNL     1       2.096   5.215  20.047  0.00  0.00    +0.000 S 
ENDROOT
BRANCH   3   6
ATOM      6  C   UNL     1       4.996   4.876  17.279  0.00  0.00    +0.000 A 
ATOM      7  C   UNL     1       6.344   4.899  17.679  0.00  0.00    +0.000 A 
ATOM      8  C   UNL     1       7.367   4.583  16.780  0.00  0.00    +0.000 A 
ATOM      9  C   UNL     1       7.057   4.217  15.474  0.00  0.00    +0.000 A 
ATOM     10  C   UNL     1       5.727   4.204  15.059  0.00  0.00    +0.000 A 
ATOM     11  C   UNL     1       4.708   4.561  15.946  0.00  0.00    +0.000 A 
ENDBRANCH   3   6
BRANCH   1  13
ATOM     12  O   UNL     1       1.592   8.190  20.972  0.00  0.00    +0.000 OA
ATOM     13  C   UNL     1       1.881   7.984  19.793  0.00  0.00    +0.000 C 
ATOM     14  N   UNL     1       1.591   8.866  18.761  0.00  0.00    +0.000 N 
ATOM     15  H   UNL     1       1.747   8.521  17.823  0.00  0.00    +0.000 HD
BRANCH  14  16
ATOM     16  C   UNL     1       0.963  10.126  18.891  0.00  0.00    +0.000 A 
ATOM     17  C   UNL     1       1.633  11.340  18.708  0.00  0.00    +0.000 A 
ATOM     18  C   UNL     1       0.979  12.559  18.912  0.00  0.00    +0.000 A 
ATOM     19  C   UNL     1      -0.356  12.570  19.295  0.00  0.00    +0.000 A 
ATOM     20 CL   UNL     1      -1.147  14.068  19.593  0.00  0.00    +0.000 Cl
ATOM     21  C   UNL     1      -1.050  11.372  19.444  0.00  0.00    +0.000 A 
ATOM     22  C   UNL     1      -0.396  10.152  19.230  0.00  0.00    +0.000 A 
ENDBRANCH  14  16
ENDBRANCH   1  13
BRANCH   4  23
ATOM     23  C   UNL     1       3.291   2.878  19.237  0.00  0.00    +0.000 C 
ATOM     24  F   UNL     1       4.471   2.396  19.693  0.00  0.00    +0.000 F 
ATOM     25  F   UNL     1       2.348   2.441  20.116  0.00  0.00    +0.000 F 
ATOM     26  F   UNL     1       3.045   2.238  18.060  0.00  0.00    +0.000 F 
ENDBRANCH   4  23
TORSDOF 4
ENDMDL
