MODEL 1
REMARK VINA RESULT:      -7.4      0.000      0.000
REMARK  Name = 
REMARK  4 active torsions:
REMARK  status: ('A' for Active; 'I' for Inactive)
REMARK    1  A    between atoms: C_1  and  C_2
REMARK    2  A    between atoms: C_2  and  C_3
REMARK    3  A    between atoms: C_3  and  N_4
REMARK    4  A    between atoms: C_15  and  C_16
REMARK                            x       y       z     vdW  Elec       q    Type
REMARK                         _______ _______ _______ _____ _____    ______ ____
ROOT
ATOM      1  N   UNL     1       2.747   5.309  19.563  0.00  0.00    +0.000 N 
ATOM      2  C   UNL     1       3.234   4.490  18.459  0.00  0.00    +0.000 C 
ATOM      3  C   UNL     1       4.301   5.283  17.706  0.00  0.00    +0.000 C 
ATOM      4  O   UNL     1       3.760   6.485  17.133  0.00  0.00    +0.000 OA
ATOM      5  C   UNL     1       2.989   7.193  18.033  0.00  0.00    +0.000 A 
ATOM      6  C   UNL     1       2.709   8.515  17.682  0.00  0.00    +0.000 A 
ATOM      7  C   UNL     1       1.931   9.302  18.531  0.00  0.00    +0.000 A 
ATOM      8  N   UNL     1       1.662  10.626  18.171  0.00  0.00    +0.000 N 
ATOM      9  C   UNL     1       0.909  11.476  18.928  0.00  0.00    +0.000 A 
ATOM     10  O   UNL     1       0.698  12.636  18.605  0.00  0.00    +0.000 OA
ATOM     11  C   UNL     1       0.335  10.918  20.168  0.00  0.00    +0.000 A 
ATOM     12  C   UNL     1       0.549   9.651  20.575  0.00  0.00    +0.000 A 
ATOM     13  C   UNL     1       1.420   8.792  19.738  0.00  0.00    +0.000 A 
ATOM     14  C   UNL     1       1.755   7.475  20.072  0.00  0.00    +0.000 A 
ATOM     15  C   UNL     1       2.504   6.639  19.235  0.00  0.00    +0.000 A 
ATOM     16  H   UNL     1       2.038  11.013  17.314  0.00  0.00    +0.000 HD
ENDROOT
BRANCH  12  17
ATOM     17  C   UNL     1      -0.139   9.189  21.827  0.00  0.00    +0.000 C 
ATOM     18  F   UNL     1      -0.885   8.062  21.728  0.00  0.00    +0.000 F 
ATOM     19  F   UNL     1       0.759   8.957  22.820  0.00  0.00    +0.000 F 
ATOM     20  F   UNL     1      -0.986  10.147  22.296  0.00  0.00    +0.000 F 
ENDBRANCH  12  17
BRANCH   1  21
ATOM     21  C   UNL     1       2.512   4.717  20.876  0.00  0.00    +0.000 C 
BRANCH  21  23
ATOM     22  C   UNL     1       1.606   2.528  21.710  0.00  0.00    +0.000 C 
ATOM     23  C   UNL     1       1.310   3.773  20.881  0.00  0.00    +0.000 C 
ENDBRANCH  21  23
ENDBRANCH   1  21
TORSDOF 3
ENDMDL
MODEL 2
REMARK VINA RESULT:      -7.3      2.469      5.736
REMARK  Name = 
REMARK  4 active torsions:
REMARK  status: ('A' for Active; 'I' for Inactive)
REMARK    1  A    between atoms: C_1  and  C_2
REMARK    2  A    between atoms: C_2  and  C_3
REMARK    3  A    between atoms: C_3  and  N_4
REMARK    4  A    between atoms: C_15  and  C_16
REMARK                            x       y       z     vdW  Elec       q    Type
REMARK                         _______ _______ _______ _____ _____    ______ ____
ROOT
ATOM      1  N   UNL     1       0.833   9.077  20.491  0.00  0.00    +0.000 N 
ATOM      2  C   UNL     1       1.054  10.492  20.218  0.00  0.00    +0.000 C 
ATOM      3  C   UNL     1       1.053  10.696  18.704  0.00  0.00    +0.000 C 
ATOM      4  O   UNL     1       2.122   9.972  18.073  0.00  0.00    +0.000 OA
ATOM      5  C   UNL     1       2.204   8.668  18.516  0.00  0.00    +0.000 A 
ATOM      6  C   UNL     1       2.974   7.809  17.730  0.00  0.00    +0.000 A 
ATOM      7  C   UNL     1       3.117   6.473  18.109  0.00  0.00    +0.000 A 
ATOM      8  N   UNL     1       3.886   5.621  17.310  0.00  0.00    +0.000 N 
ATOM      9  C   UNL     1       4.092   4.303  17.594  0.00  0.00    +0.000 A 
ATOM     10  O   UNL     1       4.753   3.568  16.875  0.00  0.00    +0.000 OA
ATOM     11  C   UNL     1       3.483   3.796  18.840  0.00  0.00    +0.000 A 
ATOM     12  C   UNL     1       2.734   4.561  19.658  0.00  0.00    +0.000 A 
ATOM     13  C   UNL     1       2.501   5.972  19.269  0.00  0.00    +0.000 A 
ATOM     14  C   UNL     1       1.707   6.855  20.009  0.00  0.00    +0.000 A 
ATOM     15  C   UNL     1       1.563   8.210  19.685  0.00  0.00    +0.000 A 
ATOM     16  H   UNL     1       4.321   5.963  16.462  0.00  0.00    +0.000 HD
ENDROOT
BRANCH  12  17
ATOM     17  C   UNL     1       2.218   3.939  20.925  0.00  0.00    +0.000 C 
ATOM     18  F   UNL     1       2.526   4.576  22.081  0.00  0.00    +0.000 F 
ATOM     19  F   UNL     1       0.864   3.839  20.902  0.00  0.00    +0.000 F 
ATOM     20  F   UNL     1       2.693   2.670  21.070  0.00  0.00    +0.000 F 
ENDBRANCH  12  17
BRANCH   1  21
ATOM     21  C   UNL     1      -0.065   8.662  21.564  0.00  0.00    +0.000 C 
BRANCH  21  23
ATOM     22  C   UNL     1      -0.963  10.366  23.176  0.00  0.00    +0.000 C 
ATOM     23  C   UNL     1       0.193   9.423  22.865  0.00  0.00    +0.000 C 
ENDBRANCH  21  23
ENDBRANCH   1  21
TORSDOF 3
ENDMDL
MODEL 3
REMARK VINA RESULT:      -7.3      0.666      1.044
REMARK  Name = 
REMARK  4 active torsions:
REMARK  status: ('A' for Active; 'I' for Inactive)
REMARK    1  A    between atoms: C_1  and  C_2
REMARK    2  A    between atoms: C_2  and  C_3
REMARK    3  A    between atoms: C_3  and  N_4
REMARK    4  A    between atoms: C_15  and  C_16
REMARK                            x       y       z     vdW  Elec       q    Type
REMARK                         _______ _______ _______ _____ _____    ______ ____
ROOT
ATOM      1  N   UNL     1       2.593   5.841  19.540  0.00  0.00    +0.000 N 
ATOM      2  C   UNL     1       3.035   5.121  18.351  0.00  0.00    +0.000 C 
ATOM      3  C   UNL     1       3.993   6.022  17.573  0.00  0.00    +0.000 C 
ATOM      4  O   UNL     1       3.343   7.221  17.123  0.00  0.00    +0.000 OA
ATOM      5  C   UNL     1       2.609   7.826  18.124  0.00  0.00    +0.000 A 
ATOM      6  C   UNL     1       2.229   9.147  17.882  0.00  0.00    +0.000 A 
ATOM      7  C   UNL     1       1.479   9.833  18.838  0.00  0.00    +0.000 A 
ATOM      8  N   UNL     1       1.110  11.158  18.587  0.00  0.00    +0.000 N 
ATOM      9  C   UNL     1       0.374  11.913  19.453  0.00  0.00    +0.000 A 
ATOM     10  O   UNL     1       0.075  13.076  19.225  0.00  0.00    +0.000 OA
ATOM     11  C   UNL     1      -0.067  11.247  20.695  0.00  0.00    +0.000 A 
ATOM     12  C   UNL     1       0.248   9.973  21.000  0.00  0.00    +0.000 A 
ATOM     13  C   UNL     1       1.095   9.220  20.044  0.00  0.00    +0.000 A 
ATOM     14  C   UNL     1       1.527   7.908  20.265  0.00  0.00    +0.000 A 
ATOM     15  C   UNL     1       2.252   7.171  19.320  0.00  0.00    +0.000 A 
ATOM     16  H   UNL     1       1.395  11.619  17.731  0.00  0.00    +0.000 HD
ENDROOT
BRANCH  12  17
ATOM     17  C   UNL     1      -0.312   9.395  22.268  0.00  0.00    +0.000 C 
ATOM     18  F   UNL     1       0.580   9.110  23.249  0.00  0.00    +0.000 F 
ATOM     19  F   UNL     1      -1.224  10.233  22.824  0.00  0.00    +0.000 F 
ATOM     20  F   UNL     1      -0.967   8.227  22.021  0.00  0.00    +0.000 F 
ENDBRANCH  12  17
BRANCH   1  21
ATOM     21  C   UNL     1       2.497   5.156  20.826  0.00  0.00    +0.000 C 
BRANCH  21  23
ATOM     22  C   UNL     1       1.895   2.849  21.615  0.00  0.00    +0.000 C 
ATOM     23  C   UNL     1       1.426   4.065  20.825  0.00  0.00    +0.000 C 
ENDBRANCH  21  23
ENDBRANCH   1  21
TORSDOF 3
ENDMDL
MODEL 4
REMARK VINA RESULT:      -7.0      4.155      6.205
REMARK  Name = 
REMARK  4 active torsions:
REMARK  status: ('A' for Active; 'I' for Inactive)
REMARK    1  A    between atoms: C_1  and  C_2
REMARK    2  A    between atoms: C_2  and  C_3
REMARK    3  A    between atoms: C_3  and  N_4
REMARK    4  A    between atoms: C_15  and  C_16
REMARK                            x       y       z     vdW  Elec       q    Type
REMARK                         _______ _______ _______ _____ _____    ______ ____
ROOT
ATOM      1  N   UNL     1       6.359   5.940  16.679  0.00  0.00    +0.000 N 
ATOM      2  C   UNL     1       7.482   5.317  15.987  0.00  0.00    +0.000 C 
ATOM      3  C   UNL     1       6.930   4.478  14.836  0.00  0.00    +0.000 C 
ATOM      4  O   UNL     1       6.087   3.417  15.313  0.00  0.00    +0.000 OA
ATOM      5  C   UNL     1       5.170   3.856  16.246  0.00  0.00    +0.000 A 
ATOM      6  C   UNL     1       4.108   2.988  16.507  0.00  0.00    +0.000 A 
ATOM      7  C   UNL     1       3.138   3.350  17.442  0.00  0.00    +0.000 A 
ATOM      8  N   UNL     1       2.076   2.474  17.690  0.00  0.00    +0.000 N 
ATOM      9  C   UNL     1       1.081   2.731  18.588  0.00  0.00    +0.000 A 
ATOM     10  O   UNL     1       0.151   1.961  18.780  0.00  0.00    +0.000 OA
ATOM     11  C   UNL     1       1.186   3.995  19.342  0.00  0.00    +0.000 A 
ATOM     12  C   UNL     1       2.183   4.883  19.158  0.00  0.00    +0.000 A 
ATOM     13  C   UNL     1       3.206   4.574  18.130  0.00  0.00    +0.000 A 
ATOM     14  C   UNL     1       4.265   5.432  17.814  0.00  0.00    +0.000 A 
ATOM     15  C   UNL     1       5.278   5.096  16.907  0.00  0.00    +0.000 A 
ATOM     16  H   UNL     1       2.004   1.597  17.189  0.00  0.00    +0.000 HD
ENDROOT
BRANCH  12  17
ATOM     17  C   UNL     1       2.206   6.106  20.030  0.00  0.00    +0.000 C 
ATOM     18  F   UNL     1       2.158   7.303  19.396  0.00  0.00    +0.000 F 
ATOM     19  F   UNL     1       1.164   6.102  20.902  0.00  0.00    +0.000 F 
ATOM     20  F   UNL     1       3.337   6.139  20.787  0.00  0.00    +0.000 F 
ENDBRANCH  12  17
BRANCH   1  21
ATOM     21  C   UNL     1       6.437   7.332  17.111  0.00  0.00    +0.000 C 
BRANCH  21  23
ATOM     22  C   UNL     1       8.007   9.173  17.784  0.00  0.00    +0.000 C 
ATOM     23  C   UNL     1       7.781   7.666  17.758  0.00  0.00    +0.000 C 
ENDBRANCH  21  23
ENDBRANCH   1  21
TORSDOF 3
ENDMDL
MODEL 5
REMARK VINA RESULT:      -6.8      6.702      8.425
REMARK  Name = 
REMARK  4 active torsions:
REMARK  status: ('A' for Active; 'I' for Inactive)
REMARK    1  A    between atoms: C_1  and  C_2
REMARK    2  A    between atoms: C_2  and  C_3
REMARK    3  A    between atoms: C_3  and  N_4
REMARK    4  A    between atoms: C_15  and  C_16
REMARK                            x       y       z     vdW  Elec       q    Type
REMARK                         _______ _______ _______ _____ _____    ______ ____
ROOT
ATOM      1  N   UNL     1       4.020   3.282  17.673  0.00  0.00    +0.000 N 
ATOM      2  C   UNL     1       4.361   3.158  19.085  0.00  0.00    +0.000 C 
ATOM      3  C   UNL     1       4.990   4.473  19.543  0.00  0.00    +0.000 C 
ATOM      4  O   UNL     1       6.211   4.749  18.836  0.00  0.00    +0.000 OA
ATOM      5  C   UNL     1       6.078   4.575  17.474  0.00  0.00    +0.000 A 
ATOM      6  C   UNL     1       7.087   5.136  16.690  0.00  0.00    +0.000 A 
ATOM      7  C   UNL     1       7.035   5.002  15.302  0.00  0.00    +0.000 A 
ATOM      8  N   UNL     1       8.049   5.574  14.528  0.00  0.00    +0.000 N 
ATOM      9  C   UNL     1       8.093   5.495  13.166  0.00  0.00    +0.000 A 
ATOM     10  O   UNL     1       8.979   6.016  12.503  0.00  0.00    +0.000 OA
ATOM     11  C   UNL     1       7.014   4.726  12.516  0.00  0.00    +0.000 A 
ATOM     12  C   UNL     1       6.008   4.146  13.200  0.00  0.00    +0.000 A 
ATOM     13  C   UNL     1       5.984   4.311  14.673  0.00  0.00    +0.000 A 
ATOM     14  C   UNL     1       4.972   3.796  15.491  0.00  0.00    +0.000 A 
ATOM     15  C   UNL     1       5.002   3.878  16.888  0.00  0.00    +0.000 A 
ATOM     16  H   UNL     1       8.803   6.090  14.965  0.00  0.00    +0.000 HD
ENDROOT
BRANCH  12  17
ATOM     17  C   UNL     1       5.003   3.343  12.425  0.00  0.00    +0.000 C 
ATOM     18  F   UNL     1       3.826   3.083  13.046  0.00  0.00    +0.000 F 
ATOM     19  F   UNL     1       4.681   3.960  11.258  0.00  0.00    +0.000 F 
ATOM     20  F   UNL     1       5.512   2.126  12.085  0.00  0.00    +0.000 F 
ENDBRANCH  12  17
BRANCH   1  21
ATOM     21  C   UNL     1       2.750   2.764  17.171  0.00  0.00    +0.000 C 
BRANCH  21  23
ATOM     22  C   UNL     1       0.832   2.372  18.743  0.00  0.00    +0.000 C 
ATOM     23  C   UNL     1       1.547   3.396  17.870  0.00  0.00    +0.000 C 
ENDBRANCH  21  23
ENDBRANCH   1  21
TORSDOF 3
ENDMDL
MODEL 6
REMARK VINA RESULT:      -6.7      0.480      1.010
REMARK  Name = 
REMARK  4 active torsions:
REMARK  status: ('A' for Active; 'I' for Inactive)
REMARK    1  A    between atoms: C_1  and  C_2
REMARK    2  A    between atoms: C_2  and  C_3
REMARK    3  A    between atoms: C_3  and  N_4
REMARK    4  A    between atoms: C_15  and  C_16
REMARK                            x       y       z     vdW  Elec       q    Type
REMARK                         _______ _______ _______ _____ _____    ______ ____
ROOT
ATOM      1  N   UNL     1       2.884   4.976  19.674  0.00  0.00    +0.000 N 
ATOM      2  C   UNL     1       3.384   4.109  18.614  0.00  0.00    +0.000 C 
ATOM      3  C   UNL     1       4.468   4.864  17.847  0.00  0.00    +0.000 C 
ATOM      4  O   UNL     1       3.944   6.043  17.215  0.00  0.00    +0.000 OA
ATOM      5  C   UNL     1       3.162   6.792  18.071  0.00  0.00    +0.000 A 
ATOM      6  C   UNL     1       2.896   8.099  17.659  0.00  0.00    +0.000 A 
ATOM      7  C   UNL     1       2.108   8.926  18.462  0.00  0.00    +0.000 A 
ATOM      8  N   UNL     1       1.853  10.235  18.041  0.00  0.00    +0.000 N 
ATOM      9  C   UNL     1       1.092  11.119  18.749  0.00  0.00    +0.000 A 
ATOM     10  O   UNL     1       0.894  12.266  18.374  0.00  0.00    +0.000 OA
ATOM     11  C   UNL     1       0.495  10.617  20.002  0.00  0.00    +0.000 A 
ATOM     12  C   UNL     1       0.695   9.368  20.465  0.00  0.00    +0.000 A 
ATOM     13  C   UNL     1       1.575   8.469  19.680  0.00  0.00    +0.000 A 
ATOM     14  C   UNL     1       1.896   7.166  20.075  0.00  0.00    +0.000 A 
ATOM     15  C   UNL     1       2.654   6.292  19.286  0.00  0.00    +0.000 A 
ATOM     16  H   UNL     1       2.246  10.583  17.175  0.00  0.00    +0.000 HD
ENDROOT
BRANCH  12  17
ATOM     17  C   UNL     1      -0.017   8.963  21.724  0.00  0.00    +0.000 C 
ATOM     18  F   UNL     1       0.765   8.646  22.786  0.00  0.00    +0.000 F 
ATOM     19  F   UNL     1      -0.849   9.948  22.152  0.00  0.00    +0.000 F 
ATOM     20  F   UNL     1      -0.799   7.869  21.508  0.00  0.00    +0.000 F 
ENDBRANCH  12  17
BRANCH   1  21
ATOM     21  C   UNL     1       2.624   4.441  21.007  0.00  0.00    +0.000 C 
BRANCH  21  23
ATOM     22  C   UNL     1       0.799   3.357  19.665  0.00  0.00    +0.000 C 
ATOM     23  C   UNL     1       1.326   3.636  21.067  0.00  0.00    +0.000 C 
ENDBRANCH  21  23
ENDBRANCH   1  21
TORSDOF 3
ENDMDL
MODEL 7
REMARK VINA RESULT:      -6.6      2.793      5.980
REMARK  Name = 
REMARK  4 active torsions:
REMARK  status: ('A' for Active; 'I' for Inactive)
REMARK    1  A    between atoms: C_1  and  C_2
REMARK    2  A    between atoms: C_2  and  C_3
REMARK    3  A    between atoms: C_3  and  N_4
REMARK    4  A    between atoms: C_15  and  C_16
REMARK                            x       y       z     vdW  Elec       q    Type
REMARK                         _______ _______ _______ _____ _____    ______ ____
ROOT
ATOM      1  N   UNL     1       1.432   8.320  20.256  0.00  0.00    +0.000 N 
ATOM      2  C   UNL     1       1.799   9.618  19.702  0.00  0.00    +0.000 C 
ATOM      3  C   UNL     1       1.644   9.554  18.184  0.00  0.00    +0.000 C 
ATOM      4  O   UNL     1       2.529   8.582  17.603  0.00  0.00    +0.000 OA
ATOM      5  C   UNL     1       2.495   7.376  18.275  0.00  0.00    +0.000 A 
ATOM      6  C   UNL     1       3.049   6.290  17.596  0.00  0.00    +0.000 A 
ATOM      7  C   UNL     1       3.063   5.034  18.205  0.00  0.00    +0.000 A 
ATOM      8  N   UNL     1       3.616   3.952  17.512  0.00  0.00    +0.000 N 
ATOM      9  C   UNL     1       3.683   2.687  18.020  0.00  0.00    +0.000 A 
ATOM     10  O   UNL     1       4.155   1.749  17.393  0.00  0.00    +0.000 OA
ATOM     11  C   UNL     1       3.166   2.500  19.390  0.00  0.00    +0.000 A 
ATOM     12  C   UNL     1       2.624   3.497  20.116  0.00  0.00    +0.000 A 
ATOM     13  C   UNL     1       2.530   4.838  19.491  0.00  0.00    +0.000 A 
ATOM     14  C   UNL     1       1.950   5.944  20.122  0.00  0.00    +0.000 A 
ATOM     15  C   UNL     1       1.944   7.228  19.563  0.00  0.00    +0.000 A 
ATOM     16  H   UNL     1       3.988   4.074  16.578  0.00  0.00    +0.000 HD
ENDROOT
BRANCH  12  17
ATOM     17  C   UNL     1       2.187   3.188  21.519  0.00  0.00    +0.000 C 
ATOM     18  F   UNL     1       0.873   2.904  21.695  0.00  0.00    +0.000 F 
ATOM     19  F   UNL     1       2.870   2.125  22.019  0.00  0.00    +0.000 F 
ATOM     20  F   UNL     1       2.449   4.234  22.350  0.00  0.00    +0.000 F 
ENDBRANCH  12  17
BRANCH   1  21
ATOM     21  C   UNL     1       0.622   8.236  21.468  0.00  0.00    +0.000 C 
BRANCH  21  23
ATOM     22  C   UNL     1      -0.377   9.782  23.175  0.00  0.00    +0.000 C 
ATOM     23  C   UNL     1      -0.228   9.486  21.688  0.00  0.00    +0.000 C 
ENDBRANCH  21  23
ENDBRANCH   1  21
TORSDOF 3
ENDMDL
MODEL 8
REMARK VINA RESULT:      -6.5      0.824      1.087
REMARK  Name = 
REMARK  4 active torsions:
REMARK  status: ('A' for Active; 'I' for Inactive)
REMARK    1  A    between atoms: C_1  and  C_2
REMARK    2  A    between atoms: C_2  and  C_3
REMARK    3  A    between atoms: C_3  and  N_4
REMARK    4  A    between atoms: C_15  and  C_16
REMARK                            x       y       z     vdW  Elec       q    Type
REMARK                         _______ _______ _______ _____ _____    ______ ____
ROOT
ATOM      1  N   UNL     1       3.395   4.854  19.119  0.00  0.00    +0.000 N 
ATOM      2  C   UNL     1       3.936   4.096  17.997  0.00  0.00    +0.000 C 
ATOM      3  C   UNL     1       4.977   4.961  17.289  0.00  0.00    +0.000 C 
ATOM      4  O   UNL     1       4.390   6.155  16.747  0.00  0.00    +0.000 OA
ATOM      5  C   UNL     1       3.574   6.797  17.656  0.00  0.00    +0.000 A 
ATOM      6  C   UNL     1       3.239   8.116  17.343  0.00  0.00    +0.000 A 
ATOM      7  C   UNL     1       2.412   8.838  18.205  0.00  0.00    +0.000 A 
ATOM      8  N   UNL     1       2.089  10.160  17.883  0.00  0.00    +0.000 N 
ATOM      9  C   UNL     1       1.285  10.948  18.655  0.00  0.00    +0.000 A 
ATOM     10  O   UNL     1       1.026  12.109  18.367  0.00  0.00    +0.000 OA
ATOM     11  C   UNL     1       0.719  10.324  19.867  0.00  0.00    +0.000 A 
ATOM     12  C   UNL     1       0.985   9.055  20.235  0.00  0.00    +0.000 A 
ATOM     13  C   UNL     1       1.907   8.265  19.385  0.00  0.00    +0.000 A 
ATOM     14  C   UNL     1       2.296   6.954  19.682  0.00  0.00    +0.000 A 
ATOM     15  C   UNL     1       3.096   6.182  18.830  0.00  0.00    +0.000 A 
ATOM     16  H   UNL     1       2.459  10.592  17.046  0.00  0.00    +0.000 HD
ENDROOT
BRANCH  12  17
ATOM     17  C   UNL     1       0.299   8.521  21.460  0.00  0.00    +0.000 C 
ATOM     18  F   UNL     1      -0.879   9.102  21.796  0.00  0.00    +0.000 F 
ATOM     19  F   UNL     1       0.039   7.194  21.333  0.00  0.00    +0.000 F 
ATOM     20  F   UNL     1       1.096   8.651  22.557  0.00  0.00    +0.000 F 
ENDBRANCH  12  17
BRANCH   1  21
ATOM     21  C   UNL     1       3.167   4.208  20.408  0.00  0.00    +0.000 C 
BRANCH  21  23
ATOM     22  C   UNL     1       1.615   2.775  21.765  0.00  0.00    +0.000 C 
ATOM     23  C   UNL     1       2.018   3.202  20.359  0.00  0.00    +0.000 C 
ENDBRANCH  21  23
ENDBRANCH   1  21
TORSDOF 3
ENDMDL
MODEL 9
REMARK VINA RESULT:      -6.4      3.612      6.929
REMARK  Name = 
REMARK  4 active torsions:
REMARK  status: ('A' for Active; 'I' for Inactive)
REMARK    1  A    between atoms: C_1  and  C_2
REMARK    2  A    between atoms: C_2  and  C_3
REMARK    3  A    between atoms: C_3  and  N_4
REMARK    4  A    between atoms: C_15  and  C_16
REMARK                            x       y       z     vdW  Elec       q    Type
REMARK                         _______ _______ _______ _____ _____    ______ ____
ROOT
ATOM      1  N   UNL     1       1.368   9.474  19.064  0.00  0.00    +0.000 N 
ATOM      2  C   UNL     1       0.127   9.758  19.775  0.00  0.00    +0.000 C 
ATOM      3  C   UNL     1       0.282   9.283  21.219  0.00  0.00    +0.000 C 
ATOM      4  O   UNL     1       0.493   7.863  21.289  0.00  0.00    +0.000 OA
ATOM      5  C   UNL     1       1.452   7.432  20.395  0.00  0.00    +0.000 A 
ATOM      6  C   UNL     1       1.959   6.152  20.622  0.00  0.00    +0.000 A 
ATOM      7  C   UNL     1       2.929   5.634  19.762  0.00  0.00    +0.000 A 
ATOM      8  N   UNL     1       3.433   4.352  20.004  0.00  0.00    +0.000 N 
ATOM      9  C   UNL     1       4.377   3.753  19.221  0.00  0.00    +0.000 A 
ATOM     10  O   UNL     1       4.819   2.638  19.457  0.00  0.00    +0.000 OA
ATOM     11  C   UNL     1       4.839   4.518  18.046  0.00  0.00    +0.000 A 
ATOM     12  C   UNL     1       4.394   5.756  17.751  0.00  0.00    +0.000 A 
ATOM     13  C   UNL     1       3.408   6.376  18.668  0.00  0.00    +0.000 A 
ATOM     14  C   UNL     1       2.903   7.669  18.497  0.00  0.00    +0.000 A 
ATOM     15  C   UNL     1       1.906   8.216  19.315  0.00  0.00    +0.000 A 
ATOM     16  H   UNL     1       3.111   3.813  20.798  0.00  0.00    +0.000 HD
ENDROOT
BRANCH  12  17
ATOM     17  C   UNL     1       4.901   6.404  16.494  0.00  0.00    +0.000 C 
ATOM     18  F   UNL     1       4.099   7.340  15.930  0.00  0.00    +0.000 F 
ATOM     19  F   UNL     1       6.095   7.015  16.709  0.00  0.00    +0.000 F 
ATOM     20  F   UNL     1       5.117   5.474  15.523  0.00  0.00    +0.000 F 
ENDBRANCH  12  17
BRANCH   1  21
ATOM     21  C   UNL     1       1.934  10.455  18.142  0.00  0.00    +0.000 C 
BRANCH  21  23
ATOM     22  C   UNL     1       2.715  12.841  18.113  0.00  0.00    +0.000 C 
ATOM     23  C   UNL     1       1.606  11.891  18.549  0.00  0.00    +0.000 C 
ENDBRANCH  21  23
ENDBRANCH   1  21
TORSDOF 3
ENDMDL
