MODEL 1
REMARK VINA RESULT:      -6.3      0.000      0.000
REMARK  Name = 
REMARK  11 active torsions:
REMARK  status: ('A' for Active; 'I' for Inactive)
REMARK    1  A    between atoms: C_1  and  C_2
REMARK    2  A    between atoms: C_3  and  C_4
REMARK    3  A    between atoms: C_4  and  C_5
REMARK    4  A    between atoms: C_5  and  C_6
REMARK    5  A    between atoms: C_6  and  C_7
REMARK    6  A    between atoms: C_7  and  O_8
REMARK    7  A    between atoms: C_7  and  C_9
REMARK    8  A    between atoms: C_9  and  O_10
REMARK    9  A    between atoms: C_12  and  O_13
REMARK   10  A    between atoms: C_14  and  C_15
REMARK   11  A    between atoms: C_17  and  O_18
REMARK                            x       y       z     vdW  Elec       q    Type
REMARK                         _______ _______ _______ _____ _____    ______ ____
ROOT
ATOM      1  C   UNL     1       4.713   3.095  19.857  0.00  0.00    +0.000 C 
ATOM      2  C   UNL     1       4.877   4.002  18.662  0.00  0.00    +0.000 A 
ATOM      3  C   UNL     1       4.029   3.962  17.537  0.00  0.00    +0.000 A 
ATOM      4  C   UNL     1       4.245   4.867  16.477  0.00  0.00    +0.000 A 
ATOM      5  C   UNL     1       5.267   5.816  16.538  0.00  0.00    +0.000 A 
ATOM      6  C   UNL     1       6.119   5.855  17.642  0.00  0.00    +0.000 A 
ATOM      7  C   UNL     1       5.938   4.935  18.683  0.00  0.00    +0.000 A 
ENDROOT
BRANCH   5   8
ATOM      8  O   UNL     1       5.430   6.701  15.509  0.00  0.00    +0.000 OA
ATOM      9  H   UNL     1       4.566   6.877  15.100  0.00  0.00    +0.000 HD
ENDBRANCH   5   8
BRANCH   6  10
ATOM     10  C   UNL     1       7.188   6.872  17.701  0.00  0.00    +0.000 C 
ATOM     11  O   UNL     1       7.837   7.161  16.699  0.00  0.00    +0.000 OA
ENDBRANCH   6  10
BRANCH   7  12
ATOM     12  O   UNL     1       6.789   4.892  19.763  0.00  0.00    +0.000 OA
ATOM     13  H   UNL     1       7.433   5.631  19.678  0.00  0.00    +0.000 HD
ENDBRANCH   7  12
BRANCH   3  14
ATOM     14  C   UNL     1       2.868   2.993  17.412  0.00  0.00    +0.000 C 
BRANCH  14  15
ATOM     15  C   UNL     1       1.551   3.519  17.995  0.00  0.00    +0.000 C 
BRANCH  15  16
ATOM     16  C   UNL     1       1.007   2.655  19.142  0.00  0.00    +0.000 C 
BRANCH  16  17
ATOM     17  C   UNL     1       0.882   3.443  20.449  0.00  0.00    +0.000 C 
BRANCH  17  18
ATOM     18  O   UNL     1       1.545   2.738  21.500  0.00  0.00    +0.000 OA
ATOM     19  H   UNL     1       0.914   2.102  21.883  0.00  0.00    +0.000 HD
ENDBRANCH  17  18
BRANCH  17  20
ATOM     20  C   UNL     1       1.477   4.853  20.303  0.00  0.00    +0.000 C 
BRANCH  20  21
ATOM     21  O   UNL     1       2.398   5.150  21.347  0.00  0.00    +0.000 OA
ATOM     22  H   UNL     1       1.887   5.313  22.160  0.00  0.00    +0.000 HD
ENDBRANCH  20  21
ENDBRANCH  17  20
ENDBRANCH  16  17
ENDBRANCH  15  16
ENDBRANCH  14  15
ENDBRANCH   3  14
TORSDOF 10
ENDMDL
MODEL 2
REMARK VINA RESULT:      -6.2      1.888      2.578
REMARK  Name = 
REMARK  11 active torsions:
REMARK  status: ('A' for Active; 'I' for Inactive)
REMARK    1  A    between atoms: C_1  and  C_2
REMARK    2  A    between atoms: C_3  and  C_4
REMARK    3  A    between atoms: C_4  and  C_5
REMARK    4  A    between atoms: C_5  and  C_6
REMARK    5  A    between atoms: C_6  and  C_7
REMARK    6  A    between atoms: C_7  and  O_8
REMARK    7  A    between atoms: C_7  and  C_9
REMARK    8  A    between atoms: C_9  and  O_10
REMARK    9  A    between atoms: C_12  and  O_13
REMARK   10  A    between atoms: C_14  and  C_15
REMARK   11  A    between atoms: C_17  and  O_18
REMARK                            x       y       z     vdW  Elec       q    Type
REMARK                         _______ _______ _______ _____ _____    ______ ____
ROOT
ATOM      1  C   UNL     1       2.851   7.055  18.216  0.00  0.00    +0.000 C 
ATOM      2  C   UNL     1       3.633   5.919  17.605  0.00  0.00    +0.000 A 
ATOM      3  C   UNL     1       3.089   4.639  17.375  0.00  0.00    +0.000 A 
ATOM      4  C   UNL     1       3.890   3.646  16.776  0.00  0.00    +0.000 A 
ATOM      5  C   UNL     1       5.203   3.919  16.382  0.00  0.00    +0.000 A 
ATOM      6  C   UNL     1       5.753   5.179  16.617  0.00  0.00    +0.000 A 
ATOM      7  C   UNL     1       4.979   6.162  17.248  0.00  0.00    +0.000 A 
ENDROOT
BRANCH   5   8
ATOM      8  O   UNL     1       5.942   2.945  15.774  0.00  0.00    +0.000 OA
ATOM      9  H   UNL     1       5.524   2.081  15.931  0.00  0.00    +0.000 HD
ENDBRANCH   5   8
BRANCH   6  10
ATOM     10  C   UNL     1       7.137   5.460  16.186  0.00  0.00    +0.000 C 
ATOM     11  O   UNL     1       7.454   5.389  15.001  0.00  0.00    +0.000 OA
ENDBRANCH   6  10
BRANCH   7  12
ATOM     12  O   UNL     1       5.496   7.398  17.557  0.00  0.00    +0.000 OA
ATOM     13  H   UNL     1       6.345   7.508  17.072  0.00  0.00    +0.000 HD
ENDBRANCH   7  12
BRANCH   3  14
ATOM     14  C   UNL     1       1.660   4.274  17.730  0.00  0.00    +0.000 C 
BRANCH  14  15
ATOM     15  C   UNL     1       1.541   3.270  18.883  0.00  0.00    +0.000 C 
BRANCH  15  16
ATOM     16  C   UNL     1       1.791   3.896  20.262  0.00  0.00    +0.000 C 
BRANCH  16  17
ATOM     17  C   UNL     1       2.976   3.250  20.983  0.00  0.00    +0.000 C 
BRANCH  17  18
ATOM     18  O   UNL     1       2.518   2.584  22.162  0.00  0.00    +0.000 OA
ATOM     19  H   UNL     1       3.198   2.685  22.851  0.00  0.00    +0.000 HD
ENDBRANCH  17  18
BRANCH  17  20
ATOM     20  C   UNL     1       3.705   2.255  20.065  0.00  0.00    +0.000 C 
BRANCH  20  21
ATOM     21  O   UNL     1       5.044   2.661  19.803  0.00  0.00    +0.000 OA
ATOM     22  H   UNL     1       5.519   2.699  20.652  0.00  0.00    +0.000 HD
ENDBRANCH  20  21
ENDBRANCH  17  20
ENDBRANCH  16  17
ENDBRANCH  15  16
ENDBRANCH  14  15
ENDBRANCH   3  14
TORSDOF 10
ENDMDL
MODEL 3
REMARK VINA RESULT:      -6.1      1.878      5.591
REMARK  Name = 
REMARK  11 active torsions:
REMARK  status: ('A' for Active; 'I' for Inactive)
REMARK    1  A    between atoms: C_1  and  C_2
REMARK    2  A    between atoms: C_3  and  C_4
REMARK    3  A    between atoms: C_4  and  C_5
REMARK    4  A    between atoms: C_5  and  C_6
REMARK    5  A    between atoms: C_6  and  C_7
REMARK    6  A    between atoms: C_7  and  O_8
REMARK    7  A    between atoms: C_7  and  C_9
REMARK    8  A    between atoms: C_9  and  O_10
REMARK    9  A    between atoms: C_12  and  O_13
REMARK   10  A    between atoms: C_14  and  C_15
REMARK   11  A    between atoms: C_17  and  O_18
REMARK                            x       y       z     vdW  Elec       q    Type
REMARK                         _______ _______ _______ _____ _____    ______ ____
ROOT
ATOM      1  C   UNL     1       4.272   3.348  16.850  0.00  0.00    +0.000 C 
ATOM      2  C   UNL     1       3.740   4.255  17.931  0.00  0.00    +0.000 A 
ATOM      3  C   UNL     1       3.877   5.658  17.903  0.00  0.00    +0.000 A 
ATOM      4  C   UNL     1       3.324   6.427  18.947  0.00  0.00    +0.000 A 
ATOM      5  C   UNL     1       2.621   5.823  19.992  0.00  0.00    +0.000 A 
ATOM      6  C   UNL     1       2.491   4.435  20.035  0.00  0.00    +0.000 A 
ATOM      7  C   UNL     1       3.070   3.658  19.023  0.00  0.00    +0.000 A 
ENDROOT
BRANCH   5   8
ATOM      8  O   UNL     1       2.069   6.599  20.972  0.00  0.00    +0.000 OA
ATOM      9  H   UNL     1       1.661   7.383  20.566  0.00  0.00    +0.000 HD
ENDBRANCH   5   8
BRANCH   6  10
ATOM     10  C   UNL     1       1.735   3.809  21.138  0.00  0.00    +0.000 C 
ATOM     11  O   UNL     1       2.264   2.979  21.872  0.00  0.00    +0.000 OA
ENDBRANCH   6  10
BRANCH   7  12
ATOM     12  O   UNL     1       3.023   2.284  19.054  0.00  0.00    +0.000 OA
ATOM     13  H   UNL     1       2.696   2.006  19.939  0.00  0.00    +0.000 HD
ENDBRANCH   7  12
BRANCH   3  14
ATOM     14  C   UNL     1       4.585   6.395  16.782  0.00  0.00    +0.000 C 
BRANCH  14  15
ATOM     15  C   UNL     1       5.912   7.041  17.201  0.00  0.00    +0.000 C 
BRANCH  15  16
ATOM     16  C   UNL     1       7.131   6.141  16.952  0.00  0.00    +0.000 C 
BRANCH  16  17
ATOM     17  C   UNL     1       7.315   5.100  18.059  0.00  0.00    +0.000 C 
BRANCH  17  18
ATOM     18  O   UNL     1       8.221   4.086  17.620  0.00  0.00    +0.000 OA
ATOM     19  H   UNL     1       8.350   4.190  16.660  0.00  0.00    +0.000 HD
ENDBRANCH  17  18
BRANCH  17  20
ATOM     20  C   UNL     1       7.837   5.752  19.349  0.00  0.00    +0.000 C 
BRANCH  20  21
ATOM     21  O   UNL     1       8.482   6.995  19.090  0.00  0.00    +0.000 OA
ATOM     22  H   UNL     1       7.924   7.704  19.454  0.00  0.00    +0.000 HD
ENDBRANCH  20  21
ENDBRANCH  17  20
ENDBRANCH  16  17
ENDBRANCH  15  16
ENDBRANCH  14  15
ENDBRANCH   3  14
TORSDOF 10
ENDMDL
MODEL 4
REMARK VINA RESULT:      -6.1      1.752      2.521
REMARK  Name = 
REMARK  11 active torsions:
REMARK  status: ('A' for Active; 'I' for Inactive)
REMARK    1  A    between atoms: C_1  and  C_2
REMARK    2  A    between atoms: C_3  and  C_4
REMARK    3  A    between atoms: C_4  and  C_5
REMARK    4  A    between atoms: C_5  and  C_6
REMARK    5  A    between atoms: C_6  and  C_7
REMARK    6  A    between atoms: C_7  and  O_8
REMARK    7  A    between atoms: C_7  and  C_9
REMARK    8  A    between atoms: C_9  and  O_10
REMARK    9  A    between atoms: C_12  and  O_13
REMARK   10  A    between atoms: C_14  and  C_15
REMARK   11  A    between atoms: C_17  and  O_18
REMARK                            x       y       z     vdW  Elec       q    Type
REMARK                         _______ _______ _______ _____ _____    ______ ____
ROOT
ATOM      1  C   UNL     1       3.107   3.018  17.304  0.00  0.00    +0.000 C 
ATOM      2  C   UNL     1       3.984   4.237  17.155  0.00  0.00    +0.000 A 
ATOM      3  C   UNL     1       3.624   5.513  17.633  0.00  0.00    +0.000 A 
ATOM      4  C   UNL     1       4.520   6.589  17.471  0.00  0.00    +0.000 A 
ATOM      5  C   UNL     1       5.766   6.404  16.869  0.00  0.00    +0.000 A 
ATOM      6  C   UNL     1       6.126   5.148  16.382  0.00  0.00    +0.000 A 
ATOM      7  C   UNL     1       5.227   4.079  16.503  0.00  0.00    +0.000 A 
ENDROOT
BRANCH   5   8
ATOM      8  O   UNL     1       6.626   7.460  16.755  0.00  0.00    +0.000 OA
ATOM      9  H   UNL     1       7.055   7.431  15.883  0.00  0.00    +0.000 HD
ENDBRANCH   5   8
BRANCH   6  10
ATOM     10  C   UNL     1       7.451   4.961  15.758  0.00  0.00    +0.000 C 
ATOM     11  O   UNL     1       7.724   5.499  14.688  0.00  0.00    +0.000 OA
ENDBRANCH   6  10
BRANCH   7  12
ATOM     12  O   UNL     1       5.509   2.838  15.983  0.00  0.00    +0.000 OA
ATOM     13  H   UNL     1       4.733   2.539  15.458  0.00  0.00    +0.000 HD
ENDBRANCH   7  12
BRANCH   3  14
ATOM     14  C   UNL     1       2.310   5.790  18.340  0.00  0.00    +0.000 C 
BRANCH  14  15
ATOM     15  C   UNL     1       2.416   5.809  19.869  0.00  0.00    +0.000 C 
BRANCH  15  16
ATOM     16  C   UNL     1       1.449   4.835  20.558  0.00  0.00    +0.000 C 
BRANCH  16  17
ATOM     17  C   UNL     1       2.112   3.491  20.872  0.00  0.00    +0.000 C 
BRANCH  17  18
ATOM     18  O   UNL     1       2.213   3.325  22.288  0.00  0.00    +0.000 OA
ATOM     19  H   UNL     1       3.145   3.146  22.507  0.00  0.00    +0.000 HD
ENDBRANCH  17  18
BRANCH  17  20
ATOM     20  C   UNL     1       1.318   2.326  20.259  0.00  0.00    +0.000 C 
BRANCH  20  21
ATOM     21  O   UNL     1       0.154   2.781  19.578  0.00  0.00    +0.000 OA
ATOM     22  H   UNL     1      -0.611   2.291  19.930  0.00  0.00    +0.000 HD
ENDBRANCH  20  21
ENDBRANCH  17  20
ENDBRANCH  16  17
ENDBRANCH  15  16
ENDBRANCH  14  15
ENDBRANCH   3  14
TORSDOF 10
ENDMDL
MODEL 5
REMARK VINA RESULT:      -6.1      1.737      5.721
REMARK  Name = 
REMARK  11 active torsions:
REMARK  status: ('A' for Active; 'I' for Inactive)
REMARK    1  A    between atoms: C_1  and  C_2
REMARK    2  A    between atoms: C_3  and  C_4
REMARK    3  A    between atoms: C_4  and  C_5
REMARK    4  A    between atoms: C_5  and  C_6
REMARK    5  A    between atoms: C_6  and  C_7
REMARK    6  A    between atoms: C_7  and  O_8
REMARK    7  A    between atoms: C_7  and  C_9
REMARK    8  A    between atoms: C_9  and  O_10
REMARK    9  A    between atoms: C_12  and  O_13
REMARK   10  A    between atoms: C_14  and  C_15
REMARK   11  A    between atoms: C_17  and  O_18
REMARK                            x       y       z     vdW  Elec       q    Type
REMARK                         _______ _______ _______ _____ _____    ______ ____
ROOT
ATOM      1  C   UNL     1       2.872   6.934  18.900  0.00  0.00    +0.000 C 
ATOM      2  C   UNL     1       2.854   5.430  18.784  0.00  0.00    +0.000 A 
ATOM      3  C   UNL     1       3.527   4.723  17.768  0.00  0.00    +0.000 A 
ATOM      4  C   UNL     1       3.474   3.315  17.755  0.00  0.00    +0.000 A 
ATOM      5  C   UNL     1       2.788   2.610  18.747  0.00  0.00    +0.000 A 
ATOM      6  C   UNL     1       2.109   3.302  19.750  0.00  0.00    +0.000 A 
ATOM      7  C   UNL     1       2.122   4.703  19.750  0.00  0.00    +0.000 A 
ENDROOT
BRANCH   5   8
ATOM      8  O   UNL     1       2.783   1.244  18.725  0.00  0.00    +0.000 OA
ATOM      9  H   UNL     1       1.874   0.926  18.861  0.00  0.00    +0.000 HD
ENDBRANCH   5   8
BRANCH   6  10
ATOM     10  C   UNL     1       1.397   2.547  20.800  0.00  0.00    +0.000 C 
ATOM     11  O   UNL     1       1.700   2.678  21.984  0.00  0.00    +0.000 OA
ENDBRANCH   6  10
BRANCH   7  12
ATOM     12  O   UNL     1       1.417   5.430  20.680  0.00  0.00    +0.000 OA
ATOM     13  H   UNL     1       0.915   6.132  20.208  0.00  0.00    +0.000 HD
ENDBRANCH   7  12
BRANCH   3  14
ATOM     14  C   UNL     1       4.332   5.409  16.680  0.00  0.00    +0.000 C 
BRANCH  14  15
ATOM     15  C   UNL     1       5.328   4.487  15.965  0.00  0.00    +0.000 C 
BRANCH  15  16
ATOM     16  C   UNL     1       6.794   4.879  16.198  0.00  0.00    +0.000 C 
BRANCH  16  17
ATOM     17  C   UNL     1       7.086   5.172  17.672  0.00  0.00    +0.000 C 
BRANCH  17  18
ATOM     18  O   UNL     1       8.046   4.236  18.167  0.00  0.00    +0.000 OA
ATOM     19  H   UNL     1       8.132   3.517  17.515  0.00  0.00    +0.000 HD
ENDBRANCH  17  18
BRANCH  17  20
ATOM     20  C   UNL     1       7.605   6.607  17.858  0.00  0.00    +0.000 C 
BRANCH  20  21
ATOM     21  O   UNL     1       8.354   6.747  19.061  0.00  0.00    +0.000 OA
ATOM     22  H   UNL     1       8.839   5.916  19.210  0.00  0.00    +0.000 HD
ENDBRANCH  20  21
ENDBRANCH  17  20
ENDBRANCH  16  17
ENDBRANCH  15  16
ENDBRANCH  14  15
ENDBRANCH   3  14
TORSDOF 10
ENDMDL
MODEL 6
REMARK VINA RESULT:      -6.1      1.803      5.663
REMARK  Name = 
REMARK  11 active torsions:
REMARK  status: ('A' for Active; 'I' for Inactive)
REMARK    1  A    between atoms: C_1  and  C_2
REMARK    2  A    between atoms: C_3  and  C_4
REMARK    3  A    between atoms: C_4  and  C_5
REMARK    4  A    between atoms: C_5  and  C_6
REMARK    5  A    between atoms: C_6  and  C_7
REMARK    6  A    between atoms: C_7  and  O_8
REMARK    7  A    between atoms: C_7  and  C_9
REMARK    8  A    between atoms: C_9  and  O_10
REMARK    9  A    between atoms: C_12  and  O_13
REMARK   10  A    between atoms: C_14  and  C_15
REMARK   11  A    between atoms: C_17  and  O_18
REMARK                            x       y       z     vdW  Elec       q    Type
REMARK                         _______ _______ _______ _____ _____    ______ ____
ROOT
ATOM      1  C   UNL     1       4.677   3.596  16.760  0.00  0.00    +0.000 C 
ATOM      2  C   UNL     1       3.975   4.302  17.894  0.00  0.00    +0.000 A 
ATOM      3  C   UNL     1       3.915   5.706  18.013  0.00  0.00    +0.000 A 
ATOM      4  C   UNL     1       3.215   6.277  19.095  0.00  0.00    +0.000 A 
ATOM      5  C   UNL     1       2.559   5.476  20.033  0.00  0.00    +0.000 A 
ATOM      6  C   UNL     1       2.623   4.087  19.929  0.00  0.00    +0.000 A 
ATOM      7  C   UNL     1       3.349   3.507  18.880  0.00  0.00    +0.000 A 
ENDROOT
BRANCH   5   8
ATOM      8  O   UNL     1       1.861   6.061  21.051  0.00  0.00    +0.000 OA
ATOM      9  H   UNL     1       1.240   5.414  21.425  0.00  0.00    +0.000 HD
ENDBRANCH   5   8
BRANCH   6  10
ATOM     10  C   UNL     1       1.916   3.250  20.919  0.00  0.00    +0.000 C 
ATOM     11  O   UNL     1       2.140   3.371  22.121  0.00  0.00    +0.000 OA
ENDBRANCH   6  10
BRANCH   7  12
ATOM     12  O   UNL     1       3.495   2.144  18.772  0.00  0.00    +0.000 OA
ATOM     13  H   UNL     1       2.601   1.744  18.684  0.00  0.00    +0.000 HD
ENDBRANCH   7  12
BRANCH   3  14
ATOM     14  C   UNL     1       4.561   6.647  17.014  0.00  0.00    +0.000 C 
BRANCH  14  15
ATOM     15  C   UNL     1       5.846   7.311  17.523  0.00  0.00    +0.000 C 
BRANCH  15  16
ATOM     16  C   UNL     1       7.117   6.531  17.159  0.00  0.00    +0.000 C 
BRANCH  16  17
ATOM     17  C   UNL     1       8.004   6.273  18.380  0.00  0.00    +0.000 C 
BRANCH  17  18
ATOM     18  O   UNL     1       8.528   7.512  18.864  0.00  0.00    +0.000 OA
ATOM     19  H   UNL     1       8.483   8.163  18.140  0.00  0.00    +0.000 HD
ENDBRANCH  17  18
BRANCH  17  20
ATOM     20  C   UNL     1       7.219   5.562  19.494  0.00  0.00    +0.000 C 
BRANCH  20  21
ATOM     21  O   UNL     1       7.975   5.465  20.696  0.00  0.00    +0.000 OA
ATOM     22  H   UNL     1       8.860   5.131  20.467  0.00  0.00    +0.000 HD
ENDBRANCH  20  21
ENDBRANCH  17  20
ENDBRANCH  16  17
ENDBRANCH  15  16
ENDBRANCH  14  15
ENDBRANCH   3  14
TORSDOF 10
ENDMDL
MODEL 7
REMARK VINA RESULT:      -6.0      2.023      3.289
REMARK  Name = 
REMARK  11 active torsions:
REMARK  status: ('A' for Active; 'I' for Inactive)
REMARK    1  A    between atoms: C_1  and  C_2
REMARK    2  A    between atoms: C_3  and  C_4
REMARK    3  A    between atoms: C_4  and  C_5
REMARK    4  A    between atoms: C_5  and  C_6
REMARK    5  A    between atoms: C_6  and  C_7
REMARK    6  A    between atoms: C_7  and  O_8
REMARK    7  A    between atoms: C_7  and  C_9
REMARK    8  A    between atoms: C_9  and  O_10
REMARK    9  A    between atoms: C_12  and  O_13
REMARK   10  A    between atoms: C_14  and  C_15
REMARK   11  A    between atoms: C_17  and  O_18
REMARK                            x       y       z     vdW  Elec       q    Type
REMARK                         _______ _______ _______ _____ _____    ______ ____
ROOT
ATOM      1  C   UNL     1       2.330   7.629  17.823  0.00  0.00    +0.000 C 
ATOM      2  C   UNL     1       3.430   6.632  18.093  0.00  0.00    +0.000 A 
ATOM      3  C   UNL     1       3.444   5.777  19.214  0.00  0.00    +0.000 A 
ATOM      4  C   UNL     1       4.503   4.859  19.369  0.00  0.00    +0.000 A 
ATOM      5  C   UNL     1       5.520   4.765  18.417  0.00  0.00    +0.000 A 
ATOM      6  C   UNL     1       5.521   5.615  17.311  0.00  0.00    +0.000 A 
ATOM      7  C   UNL     1       4.495   6.558  17.167  0.00  0.00    +0.000 A 
ENDROOT
BRANCH   5   8
ATOM      8  O   UNL     1       6.515   3.842  18.580  0.00  0.00    +0.000 OA
ATOM      9  H   UNL     1       6.235   2.999  18.184  0.00  0.00    +0.000 HD
ENDBRANCH   5   8
BRANCH   6  10
ATOM     10  C   UNL     1       6.595   5.498  16.305  0.00  0.00    +0.000 C 
ATOM     11  O   UNL     1       7.446   6.376  16.188  0.00  0.00    +0.000 OA
ENDBRANCH   6  10
BRANCH   7  12
ATOM     12  O   UNL     1       4.485   7.459  16.128  0.00  0.00    +0.000 OA
ATOM     13  H   UNL     1       4.198   8.332  16.478  0.00  0.00    +0.000 HD
ENDBRANCH   7  12
BRANCH   3  14
ATOM     14  C   UNL     1       2.355   5.783  20.270  0.00  0.00    +0.000 C 
BRANCH  14  15
ATOM     15  C   UNL     1       1.575   4.466  20.369  0.00  0.00    +0.000 C 
BRANCH  15  16
ATOM     16  C   UNL     1       1.104   3.936  19.007  0.00  0.00    +0.000 C 
BRANCH  16  17
ATOM     17  C   UNL     1       1.456   2.459  18.810  0.00  0.00    +0.000 C 
BRANCH  17  18
ATOM     18  O   UNL     1       0.283   1.731  18.441  0.00  0.00    +0.000 OA
ATOM     19  H   UNL     1      -0.495   2.254  18.707  0.00  0.00    +0.000 HD
ENDBRANCH  17  18
BRANCH  17  20
ATOM     20  C   UNL     1       2.543   2.288  17.737  0.00  0.00    +0.000 C 
BRANCH  20  21
ATOM     21  O   UNL     1       2.516   3.345  16.784  0.00  0.00    +0.000 OA
ATOM     22  H   UNL     1       1.907   3.090  16.068  0.00  0.00    +0.000 HD
ENDBRANCH  20  21
ENDBRANCH  17  20
ENDBRANCH  16  17
ENDBRANCH  15  16
ENDBRANCH  14  15
ENDBRANCH   3  14
TORSDOF 10
ENDMDL
MODEL 8
REMARK VINA RESULT:      -6.0      1.843      5.593
REMARK  Name = 
REMARK  11 active torsions:
REMARK  status: ('A' for Active; 'I' for Inactive)
REMARK    1  A    between atoms: C_1  and  C_2
REMARK    2  A    between atoms: C_3  and  C_4
REMARK    3  A    between atoms: C_4  and  C_5
REMARK    4  A    between atoms: C_5  and  C_6
REMARK    5  A    between atoms: C_6  and  C_7
REMARK    6  A    between atoms: C_7  and  O_8
REMARK    7  A    between atoms: C_7  and  C_9
REMARK    8  A    between atoms: C_9  and  O_10
REMARK    9  A    between atoms: C_12  and  O_13
REMARK   10  A    between atoms: C_14  and  C_15
REMARK   11  A    between atoms: C_17  and  O_18
REMARK                            x       y       z     vdW  Elec       q    Type
REMARK                         _______ _______ _______ _____ _____    ______ ____
ROOT
ATOM      1  C   UNL     1       4.303   6.764  17.062  0.00  0.00    +0.000 C 
ATOM      2  C   UNL     1       3.856   5.371  17.429  0.00  0.00    +0.000 A 
ATOM      3  C   UNL     1       4.478   4.204  16.941  0.00  0.00    +0.000 A 
ATOM      4  C   UNL     1       4.006   2.943  17.359  0.00  0.00    +0.000 A 
ATOM      5  C   UNL     1       2.951   2.835  18.269  0.00  0.00    +0.000 A 
ATOM      6  C   UNL     1       2.322   3.984  18.748  0.00  0.00    +0.000 A 
ATOM      7  C   UNL     1       2.758   5.241  18.308  0.00  0.00    +0.000 A 
ENDROOT
BRANCH   5   8
ATOM      8  O   UNL     1       2.538   1.599  18.680  0.00  0.00    +0.000 OA
ATOM      9  H   UNL     1       2.132   1.675  19.560  0.00  0.00    +0.000 HD
ENDBRANCH   5   8
BRANCH   6  10
ATOM     10  C   UNL     1       1.216   3.857  19.718  0.00  0.00    +0.000 C 
ATOM     11  O   UNL     1       1.233   4.482  20.775  0.00  0.00    +0.000 OA
ENDBRANCH   6  10
BRANCH   7  12
ATOM     12  O   UNL     1       2.129   6.399  18.702  0.00  0.00    +0.000 OA
ATOM     13  H   UNL     1       1.540   6.188  19.461  0.00  0.00    +0.000 HD
ENDBRANCH   7  12
BRANCH   3  14
ATOM     14  C   UNL     1       5.657   4.234  15.987  0.00  0.00    +0.000 C 
BRANCH  14  15
ATOM     15  C   UNL     1       6.847   5.060  16.492  0.00  0.00    +0.000 C 
BRANCH  15  16
ATOM     16  C   UNL     1       7.396   4.572  17.840  0.00  0.00    +0.000 C 
BRANCH  16  17
ATOM     17  C   UNL     1       7.464   5.697  18.876  0.00  0.00    +0.000 C 
BRANCH  17  18
ATOM     18  O   UNL     1       8.416   5.361  19.888  0.00  0.00    +0.000 OA
ATOM     19  H   UNL     1       7.992   5.485  20.756  0.00  0.00    +0.000 HD
ENDBRANCH  17  18
BRANCH  17  20
ATOM     20  C   UNL     1       7.844   7.032  18.217  0.00  0.00    +0.000 C 
BRANCH  20  21
ATOM     21  O   UNL     1       8.708   7.804  19.046  0.00  0.00    +0.000 OA
ATOM     22  H   UNL     1       8.158   8.423  19.558  0.00  0.00    +0.000 HD
ENDBRANCH  20  21
ENDBRANCH  17  20
ENDBRANCH  16  17
ENDBRANCH  15  16
ENDBRANCH  14  15
ENDBRANCH   3  14
TORSDOF 10
ENDMDL
MODEL 9
REMARK VINA RESULT:      -6.0      2.105      6.394
REMARK  Name = 
REMARK  11 active torsions:
REMARK  status: ('A' for Active; 'I' for Inactive)
REMARK    1  A    between atoms: C_1  and  C_2
REMARK    2  A    between atoms: C_3  and  C_4
REMARK    3  A    between atoms: C_4  and  C_5
REMARK    4  A    between atoms: C_5  and  C_6
REMARK    5  A    between atoms: C_6  and  C_7
REMARK    6  A    between atoms: C_7  and  O_8
REMARK    7  A    between atoms: C_7  and  C_9
REMARK    8  A    between atoms: C_9  and  O_10
REMARK    9  A    between atoms: C_12  and  O_13
REMARK   10  A    between atoms: C_14  and  C_15
REMARK   11  A    between atoms: C_17  and  O_18
REMARK                            x       y       z     vdW  Elec       q    Type
REMARK                         _______ _______ _______ _____ _____    ______ ____
ROOT
ATOM      1  C   UNL     1       3.817   6.561  18.887  0.00  0.00    +0.000 C 
ATOM      2  C   UNL     1       3.279   5.153  18.822  0.00  0.00    +0.000 A 
ATOM      3  C   UNL     1       3.498   4.289  17.730  0.00  0.00    +0.000 A 
ATOM      4  C   UNL     1       2.976   2.980  17.769  0.00  0.00    +0.000 A 
ATOM      5  C   UNL     1       2.269   2.520  18.883  0.00  0.00    +0.000 A 
ATOM      6  C   UNL     1       2.036   3.372  19.962  0.00  0.00    +0.000 A 
ATOM      7  C   UNL     1       2.517   4.687  19.917  0.00  0.00    +0.000 A 
ENDROOT
BRANCH   5   8
ATOM      8  O   UNL     1       1.803   1.235  18.904  0.00  0.00    +0.000 OA
ATOM      9  H   UNL     1       0.944   1.215  19.358  0.00  0.00    +0.000 HD
ENDBRANCH   5   8
BRANCH   6  10
ATOM     10  C   UNL     1       1.298   2.870  21.139  0.00  0.00    +0.000 C 
ATOM     11  O   UNL     1       1.838   2.806  22.240  0.00  0.00    +0.000 OA
ENDBRANCH   6  10
BRANCH   7  12
ATOM     12  O   UNL     1       2.259   5.583  20.928  0.00  0.00    +0.000 OA
ATOM     13  H   UNL     1       2.665   6.446  20.687  0.00  0.00    +0.000 HD
ENDBRANCH   7  12
BRANCH   3  14
ATOM     14  C   UNL     1       4.294   4.694  16.503  0.00  0.00    +0.000 C 
BRANCH  14  15
ATOM     15  C   UNL     1       5.533   3.827  16.249  0.00  0.00    +0.000 C 
BRANCH  15  16
ATOM     16  C   UNL     1       6.022   3.880  14.795  0.00  0.00    +0.000 C 
BRANCH  16  17
ATOM     17  C   UNL     1       6.796   5.166  14.493  0.00  0.00    +0.000 C 
BRANCH  17  18
ATOM     18  O   UNL     1       7.660   5.476  15.589  0.00  0.00    +0.000 OA
ATOM     19  H   UNL     1       8.341   6.095  15.272  0.00  0.00    +0.000 HD
ENDBRANCH  17  18
BRANCH  17  20
ATOM     20  C   UNL     1       7.615   5.028  13.199  0.00  0.00    +0.000 C 
BRANCH  20  21
ATOM     21  O   UNL     1       8.718   5.928  13.172  0.00  0.00    +0.000 OA
ATOM     22  H   UNL     1       8.370   6.823  13.014  0.00  0.00    +0.000 HD
ENDBRANCH  20  21
ENDBRANCH  17  20
ENDBRANCH  16  17
ENDBRANCH  15  16
ENDBRANCH  14  15
ENDBRANCH   3  14
TORSDOF 10
ENDMDL
