MODEL 1
REMARK VINA RESULT:      -8.7      0.000      0.000
REMARK  Name = 
REMARK  6 active torsions:
REMARK  status: ('A' for Active; 'I' for Inactive)
REMARK    1  A    between atoms: C_3  and  C_4
REMARK    2  A    between atoms: C_4  and  O_5
REMARK    3  A    between atoms: C_4  and  C_6
REMARK    4  A    between atoms: N_18  and  C_19
REMARK    5  A    between atoms: C_19  and  C_20
REMARK    6  A    between atoms: C_21  and  C_22
REMARK                            x       y       z     vdW  Elec       q    Type
REMARK                         _______ _______ _______ _____ _____    ______ ____
ROOT
ATOM      1  O   UNL     1       7.923   4.712  16.526  0.00  0.00    +0.000 OA
ATOM      2  C   UNL     1       6.973   5.465  16.664  0.00  0.00    +0.000 C 
ATOM      3  C   UNL     1       5.689   5.416  15.854  0.00  0.00    +0.000 C 
ATOM      4  C   UNL     1       4.851   6.566  16.427  0.00  0.00    +0.000 C 
ATOM      5  C   UNL     1       5.859   7.464  17.114  0.00  0.00    +0.000 C 
ATOM      6  N   UNL     1       6.908   6.567  17.511  0.00  0.00    +0.000 N 
ENDROOT
BRANCH   3   7
ATOM      7  C   UNL     1       5.038   4.021  15.931  0.00  0.00    +0.000 C 
BRANCH   7   8
ATOM      8  C   UNL     1       4.431   3.728  17.300  0.00  0.00    +0.000 A 
ATOM      9  C   UNL     1       5.218   3.543  18.451  0.00  0.00    +0.000 A 
ATOM     10  C   UNL     1       4.631   3.323  19.703  0.00  0.00    +0.000 A 
ATOM     11  C   UNL     1       3.248   3.279  19.824  0.00  0.00    +0.000 A 
ATOM     12  C   UNL     1       2.449   3.447  18.691  0.00  0.00    +0.000 A 
ATOM     13  C   UNL     1       3.034   3.635  17.436  0.00  0.00    +0.000 A 
ATOM     14  O   UNL     1       1.078   3.456  18.740  0.00  0.00    +0.000 OA
ATOM     15  C   UNL     1       0.620   3.704  20.075  0.00  0.00    +0.000 C 
ATOM     16  C   UNL     1       1.341   2.797  21.058  0.00  0.00    +0.000 C 
ATOM     17  O   UNL     1       2.743   3.085  21.084  0.00  0.00    +0.000 OA
ENDBRANCH   7   8
BRANCH   7  18
ATOM     18  O   UNL     1       5.971   3.000  15.562  0.00  0.00    +0.000 OA
ATOM     19  H   UNL     1       6.169   3.076  14.613  0.00  0.00    +0.000 HD
ENDBRANCH   7  18
ENDBRANCH   3   7
BRANCH   6  20
ATOM     20  C   UNL     1       8.024   7.017  18.321  0.00  0.00    +0.000 C 
BRANCH  20  21
ATOM     21  C   UNL     1       8.167   8.508  18.230  0.00  0.00    +0.000 C 
ATOM     22  C   UNL     1       9.131   9.226  18.838  0.00  0.00    +0.000 C 
BRANCH  22  23
ATOM     23  C   UNL     1       9.090  10.691  18.889  0.00  0.00    +0.000 A 
ATOM     24  C   UNL     1       9.408  11.342  20.090  0.00  0.00    +0.000 A 
ATOM     25  C   UNL     1       9.357  12.735  20.179  0.00  0.00    +0.000 A 
ATOM     26  C   UNL     1       8.992  13.491  19.068  0.00  0.00    +0.000 A 
ATOM     27  C   UNL     1       8.680  12.852  17.866  0.00  0.00    +0.000 A 
ATOM     28  C   UNL     1       8.728  11.457  17.777  0.00  0.00    +0.000 A 
ENDBRANCH  22  23
ENDBRANCH  20  21
ENDBRANCH   6  20
TORSDOF 6
ENDMDL
MODEL 2
REMARK VINA RESULT:      -8.5      0.681      1.696
REMARK  Name = 
REMARK  6 active torsions:
REMARK  status: ('A' for Active; 'I' for Inactive)
REMARK    1  A    between atoms: C_3  and  C_4
REMARK    2  A    between atoms: C_4  and  O_5
REMARK    3  A    between atoms: C_4  and  C_6
REMARK    4  A    between atoms: N_18  and  C_19
REMARK    5  A    between atoms: C_19  and  C_20
REMARK    6  A    between atoms: C_21  and  C_22
REMARK                            x       y       z     vdW  Elec       q    Type
REMARK                         _______ _______ _______ _____ _____    ______ ____
ROOT
ATOM      1  O   UNL     1       7.864   4.486  16.683  0.00  0.00    +0.000 OA
ATOM      2  C   UNL     1       6.950   5.295  16.706  0.00  0.00    +0.000 C 
ATOM      3  C   UNL     1       5.744   5.281  15.783  0.00  0.00    +0.000 C 
ATOM      4  C   UNL     1       4.925   6.498  16.236  0.00  0.00    +0.000 C 
ATOM      5  C   UNL     1       5.918   7.367  16.980  0.00  0.00    +0.000 C 
ATOM      6  N   UNL     1       6.873   6.432  17.504  0.00  0.00    +0.000 N 
ENDROOT
BRANCH   3   7
ATOM      7  C   UNL     1       5.009   3.929  15.850  0.00  0.00    +0.000 C 
BRANCH   7   8
ATOM      8  C   UNL     1       4.010   3.856  17.001  0.00  0.00    +0.000 A 
ATOM      9  C   UNL     1       2.646   4.161  16.839  0.00  0.00    +0.000 A 
ATOM     10  C   UNL     1       1.744   4.037  17.902  0.00  0.00    +0.000 A 
ATOM     11  C   UNL     1       2.191   3.612  19.146  0.00  0.00    +0.000 A 
ATOM     12  C   UNL     1       3.542   3.316  19.332  0.00  0.00    +0.000 A 
ATOM     13  C   UNL     1       4.449   3.470  18.280  0.00  0.00    +0.000 A 
ATOM     14  O   UNL     1       4.049   2.854  20.521  0.00  0.00    +0.000 OA
ATOM     15  C   UNL     1       3.003   2.325  21.345  0.00  0.00    +0.000 C 
ATOM     16  C   UNL     1       1.844   3.304  21.422  0.00  0.00    +0.000 C 
ATOM     17  O   UNL     1       1.247   3.491  20.134  0.00  0.00    +0.000 OA
ENDBRANCH   7   8
BRANCH   7  18
ATOM     18  O   UNL     1       5.940   2.844  15.919  0.00  0.00    +0.000 OA
ATOM     19  H   UNL     1       6.313   2.686  15.035  0.00  0.00    +0.000 HD
ENDBRANCH   7  18
ENDBRANCH   3   7
BRANCH   6  20
ATOM     20  C   UNL     1       7.936   6.853  18.397  0.00  0.00    +0.000 C 
BRANCH  20  21
ATOM     21  C   UNL     1       8.123   8.340  18.319  0.00  0.00    +0.000 C 
ATOM     22  C   UNL     1       9.115   9.022  18.925  0.00  0.00    +0.000 C 
BRANCH  22  23
ATOM     23  C   UNL     1       9.118  10.487  18.991  0.00  0.00    +0.000 A 
ATOM     24  C   UNL     1       8.822  11.224  17.836  0.00  0.00    +0.000 A 
ATOM     25  C   UNL     1       8.838  12.622  17.860  0.00  0.00    +0.000 A 
ATOM     26  C   UNL     1       9.146  13.294  19.039  0.00  0.00    +0.000 A 
ATOM     27  C   UNL     1       9.435  12.568  20.197  0.00  0.00    +0.000 A 
ATOM     28  C   UNL     1       9.422  11.170  20.173  0.00  0.00    +0.000 A 
ENDBRANCH  22  23
ENDBRANCH  20  21
ENDBRANCH   6  20
TORSDOF 6
ENDMDL
MODEL 3
REMARK VINA RESULT:      -8.3      0.702      1.454
REMARK  Name = 
REMARK  6 active torsions:
REMARK  status: ('A' for Active; 'I' for Inactive)
REMARK    1  A    between atoms: C_3  and  C_4
REMARK    2  A    between atoms: C_4  and  O_5
REMARK    3  A    between atoms: C_4  and  C_6
REMARK    4  A    between atoms: N_18  and  C_19
REMARK    5  A    between atoms: C_19  and  C_20
REMARK    6  A    between atoms: C_21  and  C_22
REMARK                            x       y       z     vdW  Elec       q    Type
REMARK                         _______ _______ _______ _____ _____    ______ ____
ROOT
ATOM      1  O   UNL     1       7.711   5.005  16.195  0.00  0.00    +0.000 OA
ATOM      2  C   UNL     1       6.778   5.669  16.619  0.00  0.00    +0.000 C 
ATOM      3  C   UNL     1       5.352   5.609  16.100  0.00  0.00    +0.000 C 
ATOM      4  C   UNL     1       4.605   6.630  16.969  0.00  0.00    +0.000 C 
ATOM      5  C   UNL     1       5.694   7.523  17.525  0.00  0.00    +0.000 C 
ATOM      6  N   UNL     1       6.847   6.669  17.584  0.00  0.00    +0.000 N 
ENDROOT
BRANCH   3   7
ATOM      7  C   UNL     1       4.802   4.171  16.151  0.00  0.00    +0.000 C 
BRANCH   7   8
ATOM      8  C   UNL     1       3.759   3.975  17.247  0.00  0.00    +0.000 A 
ATOM      9  C   UNL     1       2.379   4.125  17.014  0.00  0.00    +0.000 A 
ATOM     10  C   UNL     1       1.443   3.892  18.028  0.00  0.00    +0.000 A 
ATOM     11  C   UNL     1       1.870   3.510  19.293  0.00  0.00    +0.000 A 
ATOM     12  C   UNL     1       3.234   3.368  19.549  0.00  0.00    +0.000 A 
ATOM     13  C   UNL     1       4.172   3.632  18.548  0.00  0.00    +0.000 A 
ATOM     14  O   UNL     1       3.728   2.956  20.762  0.00  0.00    +0.000 OA
ATOM     15  C   UNL     1       2.707   2.305  21.529  0.00  0.00    +0.000 C 
ATOM     16  C   UNL     1       1.441   3.147  21.547  0.00  0.00    +0.000 C 
ATOM     17  O   UNL     1       0.895   3.275  20.229  0.00  0.00    +0.000 OA
ENDBRANCH   7   8
BRANCH   7  18
ATOM     18  O   UNL     1       5.865   3.222  16.289  0.00  0.00    +0.000 OA
ATOM     19  H   UNL     1       5.523   2.421  16.720  0.00  0.00    +0.000 HD
ENDBRANCH   7  18
ENDBRANCH   3   7
BRANCH   6  20
ATOM     20  C   UNL     1       8.090   7.113  18.185  0.00  0.00    +0.000 C 
BRANCH  20  21
ATOM     21  C   UNL     1       8.148   8.612  18.215  0.00  0.00    +0.000 C 
ATOM     22  C   UNL     1       9.179   9.332  18.700  0.00  0.00    +0.000 C 
BRANCH  22  23
ATOM     23  C   UNL     1       9.085  10.781  18.902  0.00  0.00    +0.000 A 
ATOM     24  C   UNL     1       9.240  11.303  20.194  0.00  0.00    +0.000 A 
ATOM     25  C   UNL     1       9.135  12.677  20.425  0.00  0.00    +0.000 A 
ATOM     26  C   UNL     1       8.877  13.543  19.366  0.00  0.00    +0.000 A 
ATOM     27  C   UNL     1       8.728  13.033  18.073  0.00  0.00    +0.000 A 
ATOM     28  C   UNL     1       8.831  11.658  17.843  0.00  0.00    +0.000 A 
ENDBRANCH  22  23
ENDBRANCH  20  21
ENDBRANCH   6  20
TORSDOF 6
ENDMDL
MODEL 4
REMARK VINA RESULT:      -8.0      0.871      1.280
REMARK  Name = 
REMARK  6 active torsions:
REMARK  status: ('A' for Active; 'I' for Inactive)
REMARK    1  A    between atoms: C_3  and  C_4
REMARK    2  A    between atoms: C_4  and  O_5
REMARK    3  A    between atoms: C_4  and  C_6
REMARK    4  A    between atoms: N_18  and  C_19
REMARK    5  A    between atoms: C_19  and  C_20
REMARK    6  A    between atoms: C_21  and  C_22
REMARK                            x       y       z     vdW  Elec       q    Type
REMARK                         _______ _______ _______ _____ _____    ______ ____
ROOT
ATOM      1  O   UNL     1       7.923   4.545  16.684  0.00  0.00    +0.000 OA
ATOM      2  C   UNL     1       7.024   5.371  16.657  0.00  0.00    +0.000 C 
ATOM      3  C   UNL     1       5.878   5.388  15.660  0.00  0.00    +0.000 C 
ATOM      4  C   UNL     1       5.055   6.616  16.070  0.00  0.00    +0.000 C 
ATOM      5  C   UNL     1       6.015   7.461  16.882  0.00  0.00    +0.000 C 
ATOM      6  N   UNL     1       6.918   6.505  17.458  0.00  0.00    +0.000 N 
ENDROOT
BRANCH   3   7
ATOM      7  C   UNL     1       5.115   4.049  15.670  0.00  0.00    +0.000 C 
BRANCH   7   8
ATOM      8  C   UNL     1       4.380   3.798  16.983  0.00  0.00    +0.000 A 
ATOM      9  C   UNL     1       4.566   2.627  17.742  0.00  0.00    +0.000 A 
ATOM     10  C   UNL     1       3.914   2.446  18.967  0.00  0.00    +0.000 A 
ATOM     11  C   UNL     1       3.061   3.430  19.453  0.00  0.00    +0.000 A 
ATOM     12  C   UNL     1       2.853   4.593  18.710  0.00  0.00    +0.000 A 
ATOM     13  C   UNL     1       3.478   4.761  17.471  0.00  0.00    +0.000 A 
ATOM     14  O   UNL     1       2.057   5.623  19.144  0.00  0.00    +0.000 OA
ATOM     15  C   UNL     1       1.849   5.541  20.559  0.00  0.00    +0.000 C 
ATOM     16  C   UNL     1       1.432   4.133  20.951  0.00  0.00    +0.000 C 
ATOM     17  O   UNL     1       2.477   3.195  20.671  0.00  0.00    +0.000 OA
ENDBRANCH   7   8
BRANCH   7  18
ATOM     18  O   UNL     1       5.991   2.959  15.365  0.00  0.00    +0.000 OA
ATOM     19  H   UNL     1       5.675   2.510  14.563  0.00  0.00    +0.000 HD
ENDBRANCH   7  18
ENDBRANCH   3   7
BRANCH   6  20
ATOM     20  C   UNL     1       7.931   6.900  18.418  0.00  0.00    +0.000 C 
BRANCH  20  21
ATOM     21  C   UNL     1       8.213   8.369  18.303  0.00  0.00    +0.000 C 
ATOM     22  C   UNL     1       9.073   9.050  19.087  0.00  0.00    +0.000 C 
BRANCH  22  23
ATOM     23  C   UNL     1       9.142  10.514  19.071  0.00  0.00    +0.000 A 
ATOM     24  C   UNL     1       8.873  11.198  17.877  0.00  0.00    +0.000 A 
ATOM     25  C   UNL     1       8.950  12.592  17.822  0.00  0.00    +0.000 A 
ATOM     26  C   UNL     1       9.293  13.316  18.961  0.00  0.00    +0.000 A 
ATOM     27  C   UNL     1       9.556  12.643  20.157  0.00  0.00    +0.000 A 
ATOM     28  C   UNL     1       9.481  11.248  20.212  0.00  0.00    +0.000 A 
ENDBRANCH  22  23
ENDBRANCH  20  21
ENDBRANCH   6  20
TORSDOF 6
ENDMDL
MODEL 5
REMARK VINA RESULT:      -7.9      2.787      3.422
REMARK  Name = 
REMARK  6 active torsions:
REMARK  status: ('A' for Active; 'I' for Inactive)
REMARK    1  A    between atoms: C_3  and  C_4
REMARK    2  A    between atoms: C_4  and  O_5
REMARK    3  A    between atoms: C_4  and  C_6
REMARK    4  A    between atoms: N_18  and  C_19
REMARK    5  A    between atoms: C_19  and  C_20
REMARK    6  A    between atoms: C_21  and  C_22
REMARK                            x       y       z     vdW  Elec       q    Type
REMARK                         _______ _______ _______ _____ _____    ______ ____
ROOT
ATOM      1  O   UNL     1       6.331   4.383  19.191  0.00  0.00    +0.000 OA
ATOM      2  C   UNL     1       6.124   5.061  18.197  0.00  0.00    +0.000 C 
ATOM      3  C   UNL     1       5.212   4.673  17.046  0.00  0.00    +0.000 C 
ATOM      4  C   UNL     1       5.317   5.862  16.081  0.00  0.00    +0.000 C 
ATOM      5  C   UNL     1       6.605   6.556  16.474  0.00  0.00    +0.000 C 
ATOM      6  N   UNL     1       6.744   6.264  17.873  0.00  0.00    +0.000 N 
ENDROOT
BRANCH   3   7
ATOM      7  C   UNL     1       3.791   4.353  17.548  0.00  0.00    +0.000 C 
BRANCH   7   8
ATOM      8  C   UNL     1       3.128   5.540  18.241  0.00  0.00    +0.000 A 
ATOM      9  C   UNL     1       2.797   5.528  19.609  0.00  0.00    +0.000 A 
ATOM     10  C   UNL     1       2.234   6.650  20.228  0.00  0.00    +0.000 A 
ATOM     11  C   UNL     1       1.987   7.800  19.490  0.00  0.00    +0.000 A 
ATOM     12  C   UNL     1       2.296   7.829  18.129  0.00  0.00    +0.000 A 
ATOM     13  C   UNL     1       2.828   6.699  17.503  0.00  0.00    +0.000 A 
ATOM     14  O   UNL     1       2.116   8.941  17.346  0.00  0.00    +0.000 OA
ATOM     15  C   UNL     1       2.004  10.118  18.156  0.00  0.00    +0.000 C 
ATOM     16  C   UNL     1       1.004   9.894  19.278  0.00  0.00    +0.000 C 
ATOM     17  O   UNL     1       1.457   8.868  20.169  0.00  0.00    +0.000 OA
ENDBRANCH   7   8
BRANCH   7  18
ATOM     18  O   UNL     1       3.797   3.206  18.404  0.00  0.00    +0.000 OA
ATOM     19  H   UNL     1       3.635   2.409  17.872  0.00  0.00    +0.000 HD
ENDBRANCH   7  18
ENDBRANCH   3   7
BRANCH   6  20
ATOM     20  C   UNL     1       7.801   6.856  18.670  0.00  0.00    +0.000 C 
BRANCH  20  21
ATOM     21  C   UNL     1       8.094   8.248  18.194  0.00  0.00    +0.000 C 
ATOM     22  C   UNL     1       9.009   9.072  18.744  0.00  0.00    +0.000 C 
BRANCH  22  23
ATOM     23  C   UNL     1       9.096  10.488  18.376  0.00  0.00    +0.000 A 
ATOM     24  C   UNL     1       8.017  11.090  17.713  0.00  0.00    +0.000 A 
ATOM     25  C   UNL     1       8.077  12.432  17.329  0.00  0.00    +0.000 A 
ATOM     26  C   UNL     1       9.213  13.186  17.608  0.00  0.00    +0.000 A 
ATOM     27  C   UNL     1      10.291  12.597  18.274  0.00  0.00    +0.000 A 
ATOM     28  C   UNL     1      10.233  11.254  18.656  0.00  0.00    +0.000 A 
ENDBRANCH  22  23
ENDBRANCH  20  21
ENDBRANCH   6  20
TORSDOF 6
ENDMDL
MODEL 6
REMARK VINA RESULT:      -7.7      3.234      3.923
REMARK  Name = 
REMARK  6 active torsions:
REMARK  status: ('A' for Active; 'I' for Inactive)
REMARK    1  A    between atoms: C_3  and  C_4
REMARK    2  A    between atoms: C_4  and  O_5
REMARK    3  A    between atoms: C_4  and  C_6
REMARK    4  A    between atoms: N_18  and  C_19
REMARK    5  A    between atoms: C_19  and  C_20
REMARK    6  A    between atoms: C_21  and  C_22
REMARK                            x       y       z     vdW  Elec       q    Type
REMARK                         _______ _______ _______ _____ _____    ______ ____
ROOT
ATOM      1  O   UNL     1       5.999   4.699  19.223  0.00  0.00    +0.000 OA
ATOM      2  C   UNL     1       5.752   5.485  18.322  0.00  0.00    +0.000 C 
ATOM      3  C   UNL     1       4.599   5.362  17.342  0.00  0.00    +0.000 C 
ATOM      4  C   UNL     1       4.754   6.593  16.439  0.00  0.00    +0.000 C 
ATOM      5  C   UNL     1       6.196   7.017  16.622  0.00  0.00    +0.000 C 
ATOM      6  N   UNL     1       6.519   6.586  17.953  0.00  0.00    +0.000 N 
ENDROOT
BRANCH   3   7
ATOM      7  C   UNL     1       3.251   5.251  18.081  0.00  0.00    +0.000 C 
BRANCH   7   8
ATOM      8  C   UNL     1       2.672   6.611  18.462  0.00  0.00    +0.000 A 
ATOM      9  C   UNL     1       2.467   7.635  17.519  0.00  0.00    +0.000 A 
ATOM     10  C   UNL     1       1.889   8.855  17.889  0.00  0.00    +0.000 A 
ATOM     11  C   UNL     1       1.511   9.073  19.208  0.00  0.00    +0.000 A 
ATOM     12  C   UNL     1       1.718   8.075  20.161  0.00  0.00    +0.000 A 
ATOM     13  C   UNL     1       2.324   6.869  19.800  0.00  0.00    +0.000 A 
ATOM     14  O   UNL     1       1.334   8.204  21.473  0.00  0.00    +0.000 OA
ATOM     15  C   UNL     1       0.358   9.244  21.615  0.00  0.00    +0.000 C 
ATOM     16  C   UNL     1       0.821  10.504  20.902  0.00  0.00    +0.000 C 
ATOM     17  O   UNL     1       0.929  10.282  19.492  0.00  0.00    +0.000 OA
ENDBRANCH   7   8
BRANCH   7  18
ATOM     18  O   UNL     1       3.368   4.411  19.234  0.00  0.00    +0.000 OA
ATOM     19  H   UNL     1       2.846   3.603  19.096  0.00  0.00    +0.000 HD
ENDBRANCH   7  18
ENDBRANCH   3   7
BRANCH   6  20
ATOM     20  C   UNL     1       7.789   6.916  18.570  0.00  0.00    +0.000 C 
BRANCH  20  21
ATOM     21  C   UNL     1       8.264   8.259  18.100  0.00  0.00    +0.000 C 
ATOM     22  C   UNL     1       8.897   9.164  18.873  0.00  0.00    +0.000 C 
BRANCH  22  23
ATOM     23  C   UNL     1       9.139  10.537  18.418  0.00  0.00    +0.000 A 
ATOM     24  C   UNL     1       8.096  11.249  17.810  0.00  0.00    +0.000 A 
ATOM     25  C   UNL     1       8.300  12.551  17.345  0.00  0.00    +0.000 A 
ATOM     26  C   UNL     1       9.546  13.155  17.488  0.00  0.00    +0.000 A 
ATOM     27  C   UNL     1      10.590  12.455  18.098  0.00  0.00    +0.000 A 
ATOM     28  C   UNL     1      10.387  11.151  18.561  0.00  0.00    +0.000 A 
ENDBRANCH  22  23
ENDBRANCH  20  21
ENDBRANCH   6  20
TORSDOF 6
ENDMDL
MODEL 7
REMARK VINA RESULT:      -7.7      4.377      7.152
REMARK  Name = 
REMARK  6 active torsions:
REMARK  status: ('A' for Active; 'I' for Inactive)
REMARK    1  A    between atoms: C_3  and  C_4
REMARK    2  A    between atoms: C_4  and  O_5
REMARK    3  A    between atoms: C_4  and  C_6
REMARK    4  A    between atoms: N_18  and  C_19
REMARK    5  A    between atoms: C_19  and  C_20
REMARK    6  A    between atoms: C_21  and  C_22
REMARK                            x       y       z     vdW  Elec       q    Type
REMARK                         _______ _______ _______ _____ _____    ______ ____
ROOT
ATOM      1  O   UNL     1       4.193   5.817  19.475  0.00  0.00    +0.000 OA
ATOM      2  C   UNL     1       3.329   5.008  19.176  0.00  0.00    +0.000 C 
ATOM      3  C   UNL     1       3.289   4.204  17.888  0.00  0.00    +0.000 C 
ATOM      4  C   UNL     1       2.014   3.360  18.024  0.00  0.00    +0.000 C 
ATOM      5  C   UNL     1       1.191   4.084  19.070  0.00  0.00    +0.000 C 
ATOM      6  N   UNL     1       2.171   4.731  19.896  0.00  0.00    +0.000 N 
ENDROOT
BRANCH   3   7
ATOM      7  C   UNL     1       4.591   3.405  17.692  0.00  0.00    +0.000 C 
BRANCH   7   8
ATOM      8  C   UNL     1       5.488   3.994  16.607  0.00  0.00    +0.000 A 
ATOM      9  C   UNL     1       6.549   4.871  16.897  0.00  0.00    +0.000 A 
ATOM     10  C   UNL     1       7.385   5.357  15.885  0.00  0.00    +0.000 A 
ATOM     11  C   UNL     1       7.171   4.979  14.565  0.00  0.00    +0.000 A 
ATOM     12  C   UNL     1       6.116   4.120  14.254  0.00  0.00    +0.000 A 
ATOM     13  C   UNL     1       5.261   3.660  15.259  0.00  0.00    +0.000 A 
ATOM     14  O   UNL     1       5.867   3.673  12.981  0.00  0.00    +0.000 OA
ATOM     15  C   UNL     1       7.026   3.835  12.152  0.00  0.00    +0.000 C 
ATOM     16  C   UNL     1       7.585   5.241  12.295  0.00  0.00    +0.000 C 
ATOM     17  O   UNL     1       8.044   5.475  13.631  0.00  0.00    +0.000 OA
ENDBRANCH   7   8
BRANCH   7  18
ATOM     18  O   UNL     1       4.310   2.027  17.422  0.00  0.00    +0.000 OA
ATOM     19  H   UNL     1       4.852   1.470  18.006  0.00  0.00    +0.000 HD
ENDBRANCH   7  18
ENDBRANCH   3   7
BRANCH   6  20
ATOM     20  C   UNL     1       1.795   5.439  21.106  0.00  0.00    +0.000 C 
BRANCH  20  21
ATOM     21  C   UNL     1       1.129   6.738  20.763  0.00  0.00    +0.000 C 
ATOM     22  C   UNL     1       1.530   7.947  21.203  0.00  0.00    +0.000 C 
BRANCH  22  23
ATOM     23  C   UNL     1       0.714   9.151  21.013  0.00  0.00    +0.000 A 
ATOM     24  C   UNL     1       0.560   9.675  19.722  0.00  0.00    +0.000 A 
ATOM     25  C   UNL     1      -0.194  10.832  19.509  0.00  0.00    +0.000 A 
ATOM     26  C   UNL     1      -0.803  11.474  20.583  0.00  0.00    +0.000 A 
ATOM     27  C   UNL     1      -0.660  10.955  21.873  0.00  0.00    +0.000 A 
ATOM     28  C   UNL     1       0.095   9.798  22.087  0.00  0.00    +0.000 A 
ENDBRANCH  22  23
ENDBRANCH  20  21
ENDBRANCH   6  20
TORSDOF 6
ENDMDL
MODEL 8
REMARK VINA RESULT:      -7.6      4.764      7.347
REMARK  Name = 
REMARK  6 active torsions:
REMARK  status: ('A' for Active; 'I' for Inactive)
REMARK    1  A    between atoms: C_3  and  C_4
REMARK    2  A    between atoms: C_4  and  O_5
REMARK    3  A    between atoms: C_4  and  C_6
REMARK    4  A    between atoms: N_18  and  C_19
REMARK    5  A    between atoms: C_19  and  C_20
REMARK    6  A    between atoms: C_21  and  C_22
REMARK                            x       y       z     vdW  Elec       q    Type
REMARK                         _______ _______ _______ _____ _____    ______ ____
ROOT
ATOM      1  O   UNL     1       4.723   5.688  19.493  0.00  0.00    +0.000 OA
ATOM      2  C   UNL     1       3.738   5.433  18.819  0.00  0.00    +0.000 C 
ATOM      3  C   UNL     1       2.446   6.232  18.817  0.00  0.00    +0.000 C 
ATOM      4  C   UNL     1       1.559   5.489  17.809  0.00  0.00    +0.000 C 
ATOM      5  C   UNL     1       2.173   4.107  17.711  0.00  0.00    +0.000 C 
ATOM      6  N   UNL     1       3.563   4.324  17.996  0.00  0.00    +0.000 N 
ENDROOT
BRANCH   3   7
ATOM      7  C   UNL     1       2.711   7.715  18.496  0.00  0.00    +0.000 C 
BRANCH   7   8
ATOM      8  C   UNL     1       1.750   8.656  19.218  0.00  0.00    +0.000 A 
ATOM      9  C   UNL     1       0.961   9.600  18.536  0.00  0.00    +0.000 A 
ATOM     10  C   UNL     1       0.053  10.416  19.221  0.00  0.00    +0.000 A 
ATOM     11  C   UNL     1      -0.077  10.306  20.600  0.00  0.00    +0.000 A 
ATOM     12  C   UNL     1       0.705   9.385  21.297  0.00  0.00    +0.000 A 
ATOM     13  C   UNL     1       1.635   8.592  20.619  0.00  0.00    +0.000 A 
ATOM     14  O   UNL     1       0.603   9.192  22.652  0.00  0.00    +0.000 OA
ATOM     15  C   UNL     1      -0.642   9.705  23.144  0.00  0.00    +0.000 C 
ATOM     16  C   UNL     1      -0.874  11.115  22.626  0.00  0.00    +0.000 C 
ATOM     17  O   UNL     1      -1.004  11.120  21.200  0.00  0.00    +0.000 OA
ENDBRANCH   7   8
BRANCH   7  18
ATOM     18  O   UNL     1       2.678   7.947  17.084  0.00  0.00    +0.000 OA
ATOM     19  H   UNL     1       2.401   7.132  16.633  0.00  0.00    +0.000 HD
ENDBRANCH   7  18
ENDBRANCH   3   7
BRANCH   6  20
ATOM     20  C   UNL     1       4.537   3.255  17.882  0.00  0.00    +0.000 C 
BRANCH  20  21
ATOM     21  C   UNL     1       5.393   3.457  16.667  0.00  0.00    +0.000 C 
ATOM     22  C   UNL     1       5.103   4.300  15.655  0.00  0.00    +0.000 C 
BRANCH  22  23
ATOM     23  C   UNL     1       5.862   4.293  14.400  0.00  0.00    +0.000 A 
ATOM     24  C   UNL     1       7.019   5.078  14.297  0.00  0.00    +0.000 A 
ATOM     25  C   UNL     1       7.753   5.110  13.108  0.00  0.00    +0.000 A 
ATOM     26  C   UNL     1       7.340   4.355  12.014  0.00  0.00    +0.000 A 
ATOM     27  C   UNL     1       6.192   3.565  12.110  0.00  0.00    +0.000 A 
ATOM     28  C   UNL     1       5.456   3.534  13.298  0.00  0.00    +0.000 A 
ENDBRANCH  22  23
ENDBRANCH  20  21
ENDBRANCH   6  20
TORSDOF 6
ENDMDL
MODEL 9
REMARK VINA RESULT:      -7.6      4.195      6.968
REMARK  Name = 
REMARK  6 active torsions:
REMARK  status: ('A' for Active; 'I' for Inactive)
REMARK    1  A    between atoms: C_3  and  C_4
REMARK    2  A    between atoms: C_4  and  O_5
REMARK    3  A    between atoms: C_4  and  C_6
REMARK    4  A    between atoms: N_18  and  C_19
REMARK    5  A    between atoms: C_19  and  C_20
REMARK    6  A    between atoms: C_21  and  C_22
REMARK                            x       y       z     vdW  Elec       q    Type
REMARK                         _______ _______ _______ _____ _____    ______ ____
ROOT
ATOM      1  O   UNL     1       5.758   7.086  17.664  0.00  0.00    +0.000 OA
ATOM      2  C   UNL     1       5.325   6.072  18.189  0.00  0.00    +0.000 C 
ATOM      3  C   UNL     1       4.020   5.973  18.960  0.00  0.00    +0.000 C 
ATOM      4  C   UNL     1       3.965   4.503  19.395  0.00  0.00    +0.000 C 
ATOM      5  C   UNL     1       5.400   4.026  19.304  0.00  0.00    +0.000 C 
ATOM      6  N   UNL     1       5.971   4.843  18.270  0.00  0.00    +0.000 N 
ENDROOT
BRANCH   3   7
ATOM      7  C   UNL     1       2.832   6.454  18.105  0.00  0.00    +0.000 C 
BRANCH   7   8
ATOM      8  C   UNL     1       2.148   7.688  18.685  0.00  0.00    +0.000 A 
ATOM      9  C   UNL     1       1.787   8.795  17.894  0.00  0.00    +0.000 A 
ATOM     10  C   UNL     1       1.117   9.892  18.446  0.00  0.00    +0.000 A 
ATOM     11  C   UNL     1       0.800   9.905  19.798  0.00  0.00    +0.000 A 
ATOM     12  C   UNL     1       1.160   8.823  20.603  0.00  0.00    +0.000 A 
ATOM     13  C   UNL     1       1.858   7.741  20.061  0.00  0.00    +0.000 A 
ATOM     14  O   UNL     1       0.846   8.748  21.937  0.00  0.00    +0.000 OA
ATOM     15  C   UNL     1      -0.216   9.655  22.259  0.00  0.00    +0.000 C 
ATOM     16  C   UNL     1       0.078  11.035  21.694  0.00  0.00    +0.000 C 
ATOM     17  O   UNL     1       0.121  11.003  20.264  0.00  0.00    +0.000 OA
ENDBRANCH   7   8
BRANCH   7  18
ATOM     18  O   UNL     1       1.886   5.398  17.906  0.00  0.00    +0.000 OA
ATOM     19  H   UNL     1       2.264   4.565  18.232  0.00  0.00    +0.000 HD
ENDBRANCH   7  18
ENDBRANCH   3   7
BRANCH   6  20
ATOM     20  C   UNL     1       7.318   4.616  17.782  0.00  0.00    +0.000 C 
BRANCH  20  21
ATOM     21  C   UNL     1       7.344   4.664  16.283  0.00  0.00    +0.000 C 
ATOM     22  C   UNL     1       6.326   4.286  15.484  0.00  0.00    +0.000 C 
BRANCH  22  23
ATOM     23  C   UNL     1       6.489   4.150  14.033  0.00  0.00    +0.000 A 
ATOM     24  C   UNL     1       7.449   4.933  13.377  0.00  0.00    +0.000 A 
ATOM     25  C   UNL     1       7.615   4.844  11.993  0.00  0.00    +0.000 A 
ATOM     26  C   UNL     1       6.826   3.968  11.252  0.00  0.00    +0.000 A 
ATOM     27  C   UNL     1       5.871   3.179  11.898  0.00  0.00    +0.000 A 
ATOM     28  C   UNL     1       5.703   3.269  13.283  0.00  0.00    +0.000 A 
ENDBRANCH  22  23
ENDBRANCH  20  21
ENDBRANCH   6  20
TORSDOF 6
ENDMDL
