MODEL 1
REMARK VINA RESULT:      -8.4      0.000      0.000
REMARK  Name = 
REMARK  7 active torsions:
REMARK  status: ('A' for Active; 'I' for Inactive)
REMARK    1  A    between atoms: C_1  and  O_2
REMARK    2  A    between atoms: O_2  and  C_3
REMARK    3  A    between atoms: C_3  and  C_4
REMARK    4  A    between atoms: C_4  and  C_5
REMARK    5  A    between atoms: C_4  and  N_6
REMARK    6  A    between atoms: C_7  and  C_9
REMARK    7  A    between atoms: C_12  and  N_13
REMARK                            x       y       z     vdW  Elec       q    Type
REMARK                         _______ _______ _______ _____ _____    ______ ____
ROOT
ATOM      1  C   UNL     1       5.402   5.208  15.930  0.00  0.00    +0.000 A 
ATOM      2  C   UNL     1       4.439   4.501  16.649  0.00  0.00    +0.000 A 
ATOM      3  C   UNL     1       3.592   5.160  17.545  0.00  0.00    +0.000 A 
ATOM      4  C   UNL     1       3.680   6.537  17.761  0.00  0.00    +0.000 A 
ATOM      5  C   UNL     1       4.638   7.253  17.030  0.00  0.00    +0.000 A 
ATOM      6  C   UNL     1       5.509   6.589  16.132  0.00  0.00    +0.000 A 
ENDROOT
BRANCH   4   7
ATOM      7  N   UNL     1       2.794   7.192  18.668  0.00  0.00    +0.000 N 
ATOM      8  C   UNL     1       2.144   8.410  18.445  0.00  0.00    +0.000 C 
ATOM      9  O   UNL     1       2.222   9.090  17.437  0.00  0.00    +0.000 OA
ATOM     10  N   UNL     1       1.319   8.800  19.491  0.00  0.00    +0.000 N 
ATOM     11  C   UNL     1       0.492  10.014  19.366  0.00  0.00    +0.000 C 
ATOM     12  C   UNL     1      -0.025  10.230  20.757  0.00  0.00    +0.000 A 
ATOM     13  C   UNL     1      -0.944  11.144  21.240  0.00  0.00    +0.000 A 
ATOM     14  C   UNL     1      -1.202  11.103  22.605  0.00  0.00    +0.000 A 
ATOM     15  N   UNL     1      -0.605  10.244  23.474  0.00  0.00    +0.000 NA
ATOM     16  C   UNL     1       0.289   9.370  22.966  0.00  0.00    +0.000 A 
ATOM     17  C   UNL     1       0.590   9.329  21.626  0.00  0.00    +0.000 A 
ATOM     18  C   UNL     1       1.539   8.452  20.891  0.00  0.00    +0.000 C 
ATOM     19  H   UNL     1       2.425   6.638  19.417  0.00  0.00    +0.000 HD
ENDBRANCH   4   7
BRANCH   1  21
ATOM     20  N   UNL     1       5.644   4.053  13.777  0.00  0.00    +0.000 N 
ATOM     21  C   UNL     1       6.276   4.504  14.933  0.00  0.00    +0.000 C 
ATOM     22  O   UNL     1       7.472   4.388  15.147  0.00  0.00    +0.000 OA
ATOM     23  H   UNL     1       4.653   4.206  13.667  0.00  0.00    +0.000 HD
BRANCH  20  24
ATOM     24  C   UNL     1       6.364   3.365  12.693  0.00  0.00    +0.000 C 
ATOM     25  C   UNL     1       7.308   4.323  11.948  0.00  0.00    +0.000 C 
BRANCH  24  26
ATOM     26  C   UNL     1       5.400   2.699  11.683  0.00  0.00    +0.000 C 
BRANCH  26  28
ATOM     27  C   UNL     1       3.503   3.299  10.389  0.00  0.00    +0.000 C 
ATOM     28  O   UNL     1       4.147   3.395  11.654  0.00  0.00    +0.000 OA
ENDBRANCH  26  28
ENDBRANCH  24  26
ENDBRANCH  20  24
ENDBRANCH   1  21
TORSDOF 5
ENDMDL
MODEL 2
REMARK VINA RESULT:      -8.2      0.635      1.135
REMARK  Name = 
REMARK  7 active torsions:
REMARK  status: ('A' for Active; 'I' for Inactive)
REMARK    1  A    between atoms: C_1  and  O_2
REMARK    2  A    between atoms: O_2  and  C_3
REMARK    3  A    between atoms: C_3  and  C_4
REMARK    4  A    between atoms: C_4  and  C_5
REMARK    5  A    between atoms: C_4  and  N_6
REMARK    6  A    between atoms: C_7  and  C_9
REMARK    7  A    between atoms: C_12  and  N_13
REMARK                            x       y       z     vdW  Elec       q    Type
REMARK                         _______ _______ _______ _____ _____    ______ ____
ROOT
ATOM      1  C   UNL     1       4.987   5.189  16.326  0.00  0.00    +0.000 A 
ATOM      2  C   UNL     1       5.123   6.568  16.478  0.00  0.00    +0.000 A 
ATOM      3  C   UNL     1       4.251   7.283  17.305  0.00  0.00    +0.000 A 
ATOM      4  C   UNL     1       3.214   6.655  17.997  0.00  0.00    +0.000 A 
ATOM      5  C   UNL     1       3.083   5.266  17.857  0.00  0.00    +0.000 A 
ATOM      6  C   UNL     1       3.953   4.538  17.010  0.00  0.00    +0.000 A 
ENDROOT
BRANCH   4   7
ATOM      7  N   UNL     1       2.346   7.402  18.849  0.00  0.00    +0.000 N 
ATOM      8  C   UNL     1       1.796   8.655  18.563  0.00  0.00    +0.000 C 
ATOM      9  O   UNL     1       1.959   9.293  17.538  0.00  0.00    +0.000 OA
ATOM     10  N   UNL     1       0.965   9.139  19.565  0.00  0.00    +0.000 N 
ATOM     11  C   UNL     1       0.234  10.405  19.370  0.00  0.00    +0.000 C 
ATOM     12  C   UNL     1      -0.315  10.705  20.733  0.00  0.00    +0.000 A 
ATOM     13  C   UNL     1      -1.181  11.698  21.152  0.00  0.00    +0.000 A 
ATOM     14  C   UNL     1      -1.490  11.723  22.507  0.00  0.00    +0.000 A 
ATOM     15  N   UNL     1      -0.989  10.853  23.425  0.00  0.00    +0.000 NA
ATOM     16  C   UNL     1      -0.143   9.899  22.978  0.00  0.00    +0.000 A 
ATOM     17  C   UNL     1       0.202   9.792  21.652  0.00  0.00    +0.000 A 
ATOM     18  C   UNL     1       1.109   8.824  20.982  0.00  0.00    +0.000 C 
ATOM     19  H   UNL     1       1.911   6.902  19.600  0.00  0.00    +0.000 HD
ENDBRANCH   4   7
BRANCH   1  21
ATOM     20  N   UNL     1       5.785   4.531  14.099  0.00  0.00    +0.000 N 
ATOM     21  C   UNL     1       5.956   4.418  15.477  0.00  0.00    +0.000 C 
ATOM     22  O   UNL     1       6.846   3.771  16.003  0.00  0.00    +0.000 OA
ATOM     23  H   UNL     1       5.034   5.102  13.742  0.00  0.00    +0.000 HD
BRANCH  20  24
ATOM     24  C   UNL     1       6.664   3.856  13.130  0.00  0.00    +0.000 C 
ATOM     25  C   UNL     1       7.643   4.844  12.476  0.00  0.00    +0.000 C 
BRANCH  24  26
ATOM     26  C   UNL     1       5.864   3.118  12.032  0.00  0.00    +0.000 C 
BRANCH  26  28
ATOM     27  C   UNL     1       3.750   2.975  10.963  0.00  0.00    +0.000 C 
ATOM     28  O   UNL     1       4.510   3.587  11.998  0.00  0.00    +0.000 OA
ENDBRANCH  26  28
ENDBRANCH  24  26
ENDBRANCH  20  24
ENDBRANCH   1  21
TORSDOF 5
ENDMDL
MODEL 3
REMARK VINA RESULT:      -7.7      1.106      1.767
REMARK  Name = 
REMARK  7 active torsions:
REMARK  status: ('A' for Active; 'I' for Inactive)
REMARK    1  A    between atoms: C_1  and  O_2
REMARK    2  A    between atoms: O_2  and  C_3
REMARK    3  A    between atoms: C_3  and  C_4
REMARK    4  A    between atoms: C_4  and  C_5
REMARK    5  A    between atoms: C_4  and  N_6
REMARK    6  A    between atoms: C_7  and  C_9
REMARK    7  A    between atoms: C_12  and  N_13
REMARK                            x       y       z     vdW  Elec       q    Type
REMARK                         _______ _______ _______ _____ _____    ______ ____
ROOT
ATOM      1  C   UNL     1       5.092   5.183  15.985  0.00  0.00    +0.000 A 
ATOM      2  C   UNL     1       5.228   6.571  15.964  0.00  0.00    +0.000 A 
ATOM      3  C   UNL     1       4.475   7.373  16.826  0.00  0.00    +0.000 A 
ATOM      4  C   UNL     1       3.559   6.826  17.728  0.00  0.00    +0.000 A 
ATOM      5  C   UNL     1       3.430   5.431  17.761  0.00  0.00    +0.000 A 
ATOM      6  C   UNL     1       4.179   4.613  16.880  0.00  0.00    +0.000 A 
ENDROOT
BRANCH   4   7
ATOM      7  N   UNL     1       2.814   7.664  18.610  0.00  0.00    +0.000 N 
ATOM      8  C   UNL     1       2.158   7.252  19.774  0.00  0.00    +0.000 C 
ATOM      9  O   UNL     1       2.136   6.119  20.222  0.00  0.00    +0.000 OA
ATOM     10  N   UNL     1       1.529   8.286  20.454  0.00  0.00    +0.000 N 
ATOM     11  C   UNL     1       0.876   8.027  21.751  0.00  0.00    +0.000 C 
ATOM     12  C   UNL     1       0.111   9.290  22.014  0.00  0.00    +0.000 A 
ATOM     13  C   UNL     1      -0.604   9.689  23.129  0.00  0.00    +0.000 A 
ATOM     14  C   UNL     1      -1.228  10.929  23.057  0.00  0.00    +0.000 A 
ATOM     15  N   UNL     1      -1.187  11.747  21.971  0.00  0.00    +0.000 NA
ATOM     16  C   UNL     1      -0.482  11.322  20.900  0.00  0.00    +0.000 A 
ATOM     17  C   UNL     1       0.179  10.117  20.894  0.00  0.00    +0.000 A 
ATOM     18  C   UNL     1       0.991   9.485  19.820  0.00  0.00    +0.000 C 
ATOM     19  H   UNL     1       2.960   8.652  18.525  0.00  0.00    +0.000 HD
ENDBRANCH   4   7
BRANCH   1  21
ATOM     20  N   UNL     1       5.499   4.189  13.778  0.00  0.00    +0.000 N 
ATOM     21  C   UNL     1       5.938   4.322  15.093  0.00  0.00    +0.000 C 
ATOM     22  O   UNL     1       6.961   3.817  15.526  0.00  0.00    +0.000 OA
ATOM     23  H   UNL     1       4.652   4.655  13.493  0.00  0.00    +0.000 HD
BRANCH  20  24
ATOM     24  C   UNL     1       6.228   3.397  12.773  0.00  0.00    +0.000 C 
ATOM     25  C   UNL     1       7.243   4.260  12.006  0.00  0.00    +0.000 C 
BRANCH  24  26
ATOM     26  C   UNL     1       5.274   2.707  11.770  0.00  0.00    +0.000 C 
BRANCH  26  28
ATOM     27  C   UNL     1       3.509   3.459  10.373  0.00  0.00    +0.000 C 
ATOM     28  O   UNL     1       4.029   3.414  11.696  0.00  0.00    +0.000 OA
ENDBRANCH  26  28
ENDBRANCH  24  26
ENDBRANCH  20  24
ENDBRANCH   1  21
TORSDOF 5
ENDMDL
MODEL 4
REMARK VINA RESULT:      -7.5      3.271      5.195
REMARK  Name = 
REMARK  7 active torsions:
REMARK  status: ('A' for Active; 'I' for Inactive)
REMARK    1  A    between atoms: C_1  and  O_2
REMARK    2  A    between atoms: O_2  and  C_3
REMARK    3  A    between atoms: C_3  and  C_4
REMARK    4  A    between atoms: C_4  and  C_5
REMARK    5  A    between atoms: C_4  and  N_6
REMARK    6  A    between atoms: C_7  and  C_9
REMARK    7  A    between atoms: C_12  and  N_13
REMARK                            x       y       z     vdW  Elec       q    Type
REMARK                         _______ _______ _______ _____ _____    ______ ____
ROOT
ATOM      1  C   UNL     1       2.503   7.607  18.560  0.00  0.00    +0.000 A 
ATOM      2  C   UNL     1       2.184   7.397  19.901  0.00  0.00    +0.000 A 
ATOM      3  C   UNL     1       1.369   8.300  20.589  0.00  0.00    +0.000 A 
ATOM      4  C   UNL     1       0.855   9.443  19.973  0.00  0.00    +0.000 A 
ATOM      5  C   UNL     1       1.163   9.651  18.622  0.00  0.00    +0.000 A 
ATOM      6  C   UNL     1       2.000   8.748  17.922  0.00  0.00    +0.000 A 
ENDROOT
BRANCH   4   7
ATOM      7  N   UNL     1       0.011  10.343  20.691  0.00  0.00    +0.000 N 
ATOM      8  C   UNL     1       0.401  11.566  21.247  0.00  0.00    +0.000 C 
ATOM      9  O   UNL     1       1.514  12.057  21.190  0.00  0.00    +0.000 OA
ATOM     10  N   UNL     1      -0.636  12.248  21.870  0.00  0.00    +0.000 N 
ATOM     11  C   UNL     1      -0.405  13.596  22.422  0.00  0.00    +0.000 C 
ATOM     12  C   UNL     1      -1.646  13.865  23.219  0.00  0.00    +0.000 A 
ATOM     13  C   UNL     1      -2.063  15.011  23.872  0.00  0.00    +0.000 A 
ATOM     14  C   UNL     1      -3.273  14.935  24.550  0.00  0.00    +0.000 A 
ATOM     15  N   UNL     1      -4.047  13.819  24.619  0.00  0.00    +0.000 NA
ATOM     16  C   UNL     1      -3.605  12.718  23.973  0.00  0.00    +0.000 A 
ATOM     17  C   UNL     1      -2.428  12.711  23.262  0.00  0.00    +0.000 A 
ATOM     18  C   UNL     1      -1.785  11.608  22.501  0.00  0.00    +0.000 C 
ATOM     19  H   UNL     1      -0.977  10.210  20.593  0.00  0.00    +0.000 HD
ENDBRANCH   4   7
BRANCH   1  21
ATOM     20  N   UNL     1       3.038   5.269  18.039  0.00  0.00    +0.000 N 
ATOM     21  C   UNL     1       3.337   6.609  17.811  0.00  0.00    +0.000 C 
ATOM     22  O   UNL     1       4.193   6.994  17.031  0.00  0.00    +0.000 OA
ATOM     23  H   UNL     1       2.302   5.033  18.686  0.00  0.00    +0.000 HD
BRANCH  20  24
ATOM     24  C   UNL     1       3.748   4.169  17.366  0.00  0.00    +0.000 C 
ATOM     25  C   UNL     1       2.938   2.863  17.413  0.00  0.00    +0.000 C 
BRANCH  24  26
ATOM     26  C   UNL     1       5.153   3.927  17.966  0.00  0.00    +0.000 C 
BRANCH  26  28
ATOM     27  C   UNL     1       7.346   4.749  17.585  0.00  0.00    +0.000 C 
ATOM     28  O   UNL     1       6.168   4.213  16.995  0.00  0.00    +0.000 OA
ENDBRANCH  26  28
ENDBRANCH  24  26
ENDBRANCH  20  24
ENDBRANCH   1  21
TORSDOF 5
ENDMDL
MODEL 5
REMARK VINA RESULT:      -7.4      3.386      5.639
REMARK  Name = 
REMARK  7 active torsions:
REMARK  status: ('A' for Active; 'I' for Inactive)
REMARK    1  A    between atoms: C_1  and  O_2
REMARK    2  A    between atoms: O_2  and  C_3
REMARK    3  A    between atoms: C_3  and  C_4
REMARK    4  A    between atoms: C_4  and  C_5
REMARK    5  A    between atoms: C_4  and  N_6
REMARK    6  A    between atoms: C_7  and  C_9
REMARK    7  A    between atoms: C_12  and  N_13
REMARK                            x       y       z     vdW  Elec       q    Type
REMARK                         _______ _______ _______ _____ _____    ______ ____
ROOT
ATOM      1  C   UNL     1       2.283   7.768  18.801  0.00  0.00    +0.000 A 
ATOM      2  C   UNL     1       1.773   8.865  18.108  0.00  0.00    +0.000 A 
ATOM      3  C   UNL     1       0.961   9.801  18.754  0.00  0.00    +0.000 A 
ATOM      4  C   UNL     1       0.622   9.674  20.103  0.00  0.00    +0.000 A 
ATOM      5  C   UNL     1       1.143   8.580  20.806  0.00  0.00    +0.000 A 
ATOM      6  C   UNL     1       1.954   7.619  20.154  0.00  0.00    +0.000 A 
ENDROOT
BRANCH   4   7
ATOM      7  N   UNL     1      -0.195  10.652  20.746  0.00  0.00    +0.000 N 
ATOM      8  C   UNL     1       0.251  11.850  21.312  0.00  0.00    +0.000 C 
ATOM      9  O   UNL     1       1.401  12.250  21.330  0.00  0.00    +0.000 OA
ATOM     10  N   UNL     1      -0.769  12.624  21.850  0.00  0.00    +0.000 N 
ATOM     11  C   UNL     1      -0.470  13.960  22.399  0.00  0.00    +0.000 C 
ATOM     12  C   UNL     1      -1.739  14.341  23.101  0.00  0.00    +0.000 A 
ATOM     13  C   UNL     1      -2.107  15.528  23.707  0.00  0.00    +0.000 A 
ATOM     14  C   UNL     1      -3.364  15.562  24.297  0.00  0.00    +0.000 A 
ATOM     15  N   UNL     1      -4.228  14.512  24.324  0.00  0.00    +0.000 NA
ATOM     16  C   UNL     1      -3.832  13.367  23.726  0.00  0.00    +0.000 A 
ATOM     17  C   UNL     1      -2.612  13.253  23.103  0.00  0.00    +0.000 A 
ATOM     18  C   UNL     1      -2.008  12.089  22.404  0.00  0.00    +0.000 C 
ATOM     19  H   UNL     1      -1.181  10.596  20.578  0.00  0.00    +0.000 HD
ENDBRANCH   4   7
BRANCH   1  21
ATOM     20  N   UNL     1       3.046   5.457  18.484  0.00  0.00    +0.000 N 
ATOM     21  C   UNL     1       3.195   6.791  18.117  0.00  0.00    +0.000 C 
ATOM     22  O   UNL     1       3.980   7.183  17.270  0.00  0.00    +0.000 OA
ATOM     23  H   UNL     1       2.359   5.212  19.180  0.00  0.00    +0.000 HD
BRANCH  20  24
ATOM     24  C   UNL     1       3.848   4.374  17.890  0.00  0.00    +0.000 C 
ATOM     25  C   UNL     1       2.958   3.332  17.193  0.00  0.00    +0.000 C 
BRANCH  24  26
ATOM     26  C   UNL     1       4.745   3.671  18.935  0.00  0.00    +0.000 C 
BRANCH  26  28
ATOM     27  C   UNL     1       6.453   4.634  17.598  0.00  0.00    +0.000 C 
ATOM     28  O   UNL     1       6.071   4.215  18.903  0.00  0.00    +0.000 OA
ENDBRANCH  26  28
ENDBRANCH  24  26
ENDBRANCH  20  24
ENDBRANCH   1  21
TORSDOF 5
ENDMDL
MODEL 6
REMARK VINA RESULT:      -7.3      3.567      5.591
REMARK  Name = 
REMARK  7 active torsions:
REMARK  status: ('A' for Active; 'I' for Inactive)
REMARK    1  A    between atoms: C_1  and  O_2
REMARK    2  A    between atoms: O_2  and  C_3
REMARK    3  A    between atoms: C_3  and  C_4
REMARK    4  A    between atoms: C_4  and  C_5
REMARK    5  A    between atoms: C_4  and  N_6
REMARK    6  A    between atoms: C_7  and  C_9
REMARK    7  A    between atoms: C_12  and  N_13
REMARK                            x       y       z     vdW  Elec       q    Type
REMARK                         _______ _______ _______ _____ _____    ______ ____
ROOT
ATOM      1  C   UNL     1       2.382   7.775  18.629  0.00  0.00    +0.000 A 
ATOM      2  C   UNL     1       2.045   7.582  19.968  0.00  0.00    +0.000 A 
ATOM      3  C   UNL     1       1.255   8.516  20.646  0.00  0.00    +0.000 A 
ATOM      4  C   UNL     1       0.784   9.672  20.020  0.00  0.00    +0.000 A 
ATOM      5  C   UNL     1       1.110   9.863  18.670  0.00  0.00    +0.000 A 
ATOM      6  C   UNL     1       1.921   8.928  17.982  0.00  0.00    +0.000 A 
ENDROOT
BRANCH   4   7
ATOM      7  N   UNL     1      -0.035  10.603  20.727  0.00  0.00    +0.000 N 
ATOM      8  C   UNL     1       0.387  11.821  21.267  0.00  0.00    +0.000 C 
ATOM      9  O   UNL     1       1.513  12.283  21.204  0.00  0.00    +0.000 OA
ATOM     10  N   UNL     1      -0.630  12.539  21.882  0.00  0.00    +0.000 N 
ATOM     11  C   UNL     1      -0.363  13.887  22.417  0.00  0.00    +0.000 C 
ATOM     12  C   UNL     1      -1.597  14.198  23.211  0.00  0.00    +0.000 A 
ATOM     13  C   UNL     1      -1.982  15.363  23.850  0.00  0.00    +0.000 A 
ATOM     14  C   UNL     1      -3.194  15.328  24.530  0.00  0.00    +0.000 A 
ATOM     15  N   UNL     1      -3.996  14.233  24.612  0.00  0.00    +0.000 NA
ATOM     16  C   UNL     1      -3.585  13.113  23.980  0.00  0.00    +0.000 A 
ATOM     17  C   UNL     1      -2.409  13.066  23.270  0.00  0.00    +0.000 A 
ATOM     18  C   UNL     1      -1.796  11.937  22.522  0.00  0.00    +0.000 C 
ATOM     19  H   UNL     1      -1.026  10.495  20.631  0.00  0.00    +0.000 HD
ENDBRANCH   4   7
BRANCH   1  21
ATOM     20  N   UNL     1       2.845   5.417  18.126  0.00  0.00    +0.000 N 
ATOM     21  C   UNL     1       3.188   6.746  17.891  0.00  0.00    +0.000 C 
ATOM     22  O   UNL     1       4.061   7.099  17.115  0.00  0.00    +0.000 OA
ATOM     23  H   UNL     1       2.098   5.209  18.770  0.00  0.00    +0.000 HD
BRANCH  20  24
ATOM     24  C   UNL     1       3.524   4.291  17.464  0.00  0.00    +0.000 C 
ATOM     25  C   UNL     1       2.535   3.170  17.107  0.00  0.00    +0.000 C 
BRANCH  24  26
ATOM     26  C   UNL     1       4.672   3.714  18.326  0.00  0.00    +0.000 C 
BRANCH  26  28
ATOM     27  C   UNL     1       4.474   2.187  20.132  0.00  0.00    +0.000 C 
ATOM     28  O   UNL     1       4.232   3.512  19.675  0.00  0.00    +0.000 OA
ENDBRANCH  26  28
ENDBRANCH  24  26
ENDBRANCH  20  24
ENDBRANCH   1  21
TORSDOF 5
ENDMDL
MODEL 7
REMARK VINA RESULT:      -7.3      2.595      4.805
REMARK  Name = 
REMARK  7 active torsions:
REMARK  status: ('A' for Active; 'I' for Inactive)
REMARK    1  A    between atoms: C_1  and  O_2
REMARK    2  A    between atoms: O_2  and  C_3
REMARK    3  A    between atoms: C_3  and  C_4
REMARK    4  A    between atoms: C_4  and  C_5
REMARK    5  A    between atoms: C_4  and  N_6
REMARK    6  A    between atoms: C_7  and  C_9
REMARK    7  A    between atoms: C_12  and  N_13
REMARK                            x       y       z     vdW  Elec       q    Type
REMARK                         _______ _______ _______ _____ _____    ______ ____
ROOT
ATOM      1  C   UNL     1       2.592   7.323  18.712  0.00  0.00    +0.000 A 
ATOM      2  C   UNL     1       2.119   8.467  18.071  0.00  0.00    +0.000 A 
ATOM      3  C   UNL     1       1.294   9.372  18.746  0.00  0.00    +0.000 A 
ATOM      4  C   UNL     1       0.906   9.166  20.072  0.00  0.00    +0.000 A 
ATOM      5  C   UNL     1       1.391   8.023  20.723  0.00  0.00    +0.000 A 
ATOM      6  C   UNL     1       2.214   7.095  20.041  0.00  0.00    +0.000 A 
ENDROOT
BRANCH   4   7
ATOM      7  N   UNL     1       0.078  10.111  20.746  0.00  0.00    +0.000 N 
ATOM      8  C   UNL     1       0.475  11.372  21.202  0.00  0.00    +0.000 C 
ATOM      9  O   UNL     1       1.584  11.862  21.080  0.00  0.00    +0.000 OA
ATOM     10  N   UNL     1      -0.548  12.093  21.803  0.00  0.00    +0.000 N 
ATOM     11  C   UNL     1      -0.310  13.479  22.250  0.00  0.00    +0.000 C 
ATOM     12  C   UNL     1      -1.531  13.799  23.060  0.00  0.00    +0.000 A 
ATOM     13  C   UNL     1      -1.936  14.987  23.640  0.00  0.00    +0.000 A 
ATOM     14  C   UNL     1      -3.127  14.956  24.355  0.00  0.00    +0.000 A 
ATOM     15  N   UNL     1      -3.892  13.844  24.524  0.00  0.00    +0.000 NA
ATOM     16  C   UNL     1      -3.462  12.702  23.947  0.00  0.00    +0.000 A 
ATOM     17  C   UNL     1      -2.305  12.648  23.207  0.00  0.00    +0.000 A 
ATOM     18  C   UNL     1      -1.677  11.496  22.509  0.00  0.00    +0.000 C 
ATOM     19  H   UNL     1      -0.912   9.968  20.684  0.00  0.00    +0.000 HD
ENDBRANCH   4   7
BRANCH   1  21
ATOM     20  N   UNL     1       4.724   6.920  17.564  0.00  0.00    +0.000 N 
ATOM     21  C   UNL     1       3.517   6.379  17.999  0.00  0.00    +0.000 C 
ATOM     22  O   UNL     1       3.205   5.208  17.863  0.00  0.00    +0.000 OA
ATOM     23  H   UNL     1       4.916   7.895  17.733  0.00  0.00    +0.000 HD
BRANCH  20  24
ATOM     24  C   UNL     1       5.749   6.122  16.870  0.00  0.00    +0.000 C 
ATOM     25  C   UNL     1       7.164   6.647  17.162  0.00  0.00    +0.000 C 
BRANCH  24  26
ATOM     26  C   UNL     1       5.518   6.079  15.341  0.00  0.00    +0.000 C 
BRANCH  26  28
ATOM     27  C   UNL     1       5.802   3.739  15.620  0.00  0.00    +0.000 C 
ATOM     28  O   UNL     1       6.049   4.867  14.789  0.00  0.00    +0.000 OA
ENDBRANCH  26  28
ENDBRANCH  24  26
ENDBRANCH  20  24
ENDBRANCH   1  21
TORSDOF 5
ENDMDL
MODEL 8
REMARK VINA RESULT:      -7.3      1.035      1.106
REMARK  Name = 
REMARK  7 active torsions:
REMARK  status: ('A' for Active; 'I' for Inactive)
REMARK    1  A    between atoms: C_1  and  O_2
REMARK    2  A    between atoms: O_2  and  C_3
REMARK    3  A    between atoms: C_3  and  C_4
REMARK    4  A    between atoms: C_4  and  C_5
REMARK    5  A    between atoms: C_4  and  N_6
REMARK    6  A    between atoms: C_7  and  C_9
REMARK    7  A    between atoms: C_12  and  N_13
REMARK                            x       y       z     vdW  Elec       q    Type
REMARK                         _______ _______ _______ _____ _____    ______ ____
ROOT
ATOM      1  C   UNL     1       5.403   5.487  16.343  0.00  0.00    +0.000 A 
ATOM      2  C   UNL     1       5.033   4.957  17.579  0.00  0.00    +0.000 A 
ATOM      3  C   UNL     1       4.124   5.630  18.399  0.00  0.00    +0.000 A 
ATOM      4  C   UNL     1       3.561   6.853  18.025  0.00  0.00    +0.000 A 
ATOM      5  C   UNL     1       3.920   7.382  16.778  0.00  0.00    +0.000 A 
ATOM      6  C   UNL     1       4.852   6.713  15.948  0.00  0.00    +0.000 A 
ENDROOT
BRANCH   4   7
ATOM      7  N   UNL     1       2.621   7.514  18.872  0.00  0.00    +0.000 N 
ATOM      8  C   UNL     1       2.015   8.748  18.618  0.00  0.00    +0.000 C 
ATOM      9  O   UNL     1       2.182   9.440  17.629  0.00  0.00    +0.000 OA
ATOM     10  N   UNL     1       1.121   9.141  19.605  0.00  0.00    +0.000 N 
ATOM     11  C   UNL     1       0.330  10.374  19.435  0.00  0.00    +0.000 C 
ATOM     12  C   UNL     1      -0.287  10.583  20.786  0.00  0.00    +0.000 A 
ATOM     13  C   UNL     1      -1.222  11.509  21.212  0.00  0.00    +0.000 A 
ATOM     14  C   UNL     1      -1.583  11.456  22.553  0.00  0.00    +0.000 A 
ATOM     15  N   UNL     1      -1.071  10.573  23.452  0.00  0.00    +0.000 NA
ATOM     16  C   UNL     1      -0.158   9.687  23.000  0.00  0.00    +0.000 A 
ATOM     17  C   UNL     1       0.243   9.658  21.685  0.00  0.00    +0.000 A 
ATOM     18  C   UNL     1       1.227   8.770  21.012  0.00  0.00    +0.000 C 
ATOM     19  H   UNL     1       2.185   6.958  19.582  0.00  0.00    +0.000 HD
ENDBRANCH   4   7
BRANCH   1  21
ATOM     20  N   UNL     1       5.961   4.643  14.107  0.00  0.00    +0.000 N 
ATOM     21  C   UNL     1       6.341   4.738  15.443  0.00  0.00    +0.000 C 
ATOM     22  O   UNL     1       7.382   4.284  15.891  0.00  0.00    +0.000 OA
ATOM     23  H   UNL     1       5.093   5.062  13.812  0.00  0.00    +0.000 HD
BRANCH  20  24
ATOM     24  C   UNL     1       6.782   3.961  13.092  0.00  0.00    +0.000 C 
ATOM     25  C   UNL     1       7.536   4.968  12.209  0.00  0.00    +0.000 C 
BRANCH  24  26
ATOM     26  C   UNL     1       5.942   3.017  12.200  0.00  0.00    +0.000 C 
BRANCH  26  28
ATOM     27  C   UNL     1       6.166   0.938  11.078  0.00  0.00    +0.000 C 
ATOM     28  O   UNL     1       6.798   2.163  11.430  0.00  0.00    +0.000 OA
ENDBRANCH  26  28
ENDBRANCH  24  26
ENDBRANCH  20  24
ENDBRANCH   1  21
TORSDOF 5
ENDMDL
MODEL 9
REMARK VINA RESULT:      -7.3      3.535     11.146
REMARK  Name = 
REMARK  7 active torsions:
REMARK  status: ('A' for Active; 'I' for Inactive)
REMARK    1  A    between atoms: C_1  and  O_2
REMARK    2  A    between atoms: O_2  and  C_3
REMARK    3  A    between atoms: C_3  and  C_4
REMARK    4  A    between atoms: C_4  and  C_5
REMARK    5  A    between atoms: C_4  and  N_6
REMARK    6  A    between atoms: C_7  and  C_9
REMARK    7  A    between atoms: C_12  and  N_13
REMARK                            x       y       z     vdW  Elec       q    Type
REMARK                         _______ _______ _______ _____ _____    ______ ____
ROOT
ATOM      1  C   UNL     1      -1.050  11.291  22.432  0.00  0.00    +0.000 A 
ATOM      2  C   UNL     1      -0.492  11.494  21.170  0.00  0.00    +0.000 A 
ATOM      3  C   UNL     1       0.303  10.509  20.577  0.00  0.00    +0.000 A 
ATOM      4  C   UNL     1       0.576   9.299  21.218  0.00  0.00    +0.000 A 
ATOM      5  C   UNL     1       0.005   9.086  22.481  0.00  0.00    +0.000 A 
ATOM      6  C   UNL     1      -0.788  10.086  23.094  0.00  0.00    +0.000 A 
ENDROOT
BRANCH   4   7
ATOM      7  N   UNL     1       1.376   8.301  20.586  0.00  0.00    +0.000 N 
ATOM      8  C   UNL     1       1.904   8.370  19.293  0.00  0.00    +0.000 C 
ATOM      9  O   UNL     1       1.776   9.299  18.515  0.00  0.00    +0.000 OA
ATOM     10  N   UNL     1       2.667   7.264  18.944  0.00  0.00    +0.000 N 
ATOM     11  C   UNL     1       3.371   7.232  17.648  0.00  0.00    +0.000 C 
ATOM     12  C   UNL     1       3.839   5.812  17.540  0.00  0.00    +0.000 A 
ATOM     13  C   UNL     1       4.653   5.205  16.600  0.00  0.00    +0.000 A 
ATOM     14  C   UNL     1       4.889   3.846  16.768  0.00  0.00    +0.000 A 
ATOM     15  N   UNL     1       4.366   3.093  17.773  0.00  0.00    +0.000 NA
ATOM     16  C   UNL     1       3.573   3.720  18.668  0.00  0.00    +0.000 A 
ATOM     17  C   UNL     1       3.301   5.065  18.588  0.00  0.00    +0.000 A 
ATOM     18  C   UNL     1       2.458   5.918  19.466  0.00  0.00    +0.000 C 
ATOM     19  H   UNL     1       1.786   7.607  21.181  0.00  0.00    +0.000 HD
ENDBRANCH   4   7
BRANCH   1  21
ATOM     20  N   UNL     1      -3.301  12.026  23.079  0.00  0.00    +0.000 N 
ATOM     21  C   UNL     1      -1.943  12.331  23.045  0.00  0.00    +0.000 C 
ATOM     22  O   UNL     1      -1.460  13.353  23.505  0.00  0.00    +0.000 OA
ATOM     23  H   UNL     1      -3.618  11.150  22.694  0.00  0.00    +0.000 HD
BRANCH  20  24
ATOM     24  C   UNL     1      -4.305  12.929  23.667  0.00  0.00    +0.000 C 
ATOM     25  C   UNL     1      -4.523  12.632  25.159  0.00  0.00    +0.000 C 
BRANCH  24  26
ATOM     26  C   UNL     1      -5.658  12.861  22.922  0.00  0.00    +0.000 C 
BRANCH  26  28
ATOM     27  C   UNL     1      -6.269  12.921  20.630  0.00  0.00    +0.000 C 
ATOM     28  O   UNL     1      -5.487  12.273  21.626  0.00  0.00    +0.000 OA
ENDBRANCH  26  28
ENDBRANCH  24  26
ENDBRANCH  20  24
ENDBRANCH   1  21
TORSDOF 5
ENDMDL
