MODEL 1
REMARK VINA RESULT:      -8.5      0.000      0.000
REMARK  Name = 
REMARK  8 active torsions:
REMARK  status: ('A' for Active; 'I' for Inactive)
REMARK    1  A    between atoms: C_4  and  C_5
REMARK    2  A    between atoms: C_5  and  N_6
REMARK    3  A    between atoms: N_6  and  C_7
REMARK    4  A    between atoms: N_10  and  C_11
REMARK    5  A    between atoms: C_11  and  C_12
REMARK    6  A    between atoms: C_12  and  C_13
REMARK    7  A    between atoms: C_13  and  C_14
REMARK    8  A    between atoms: C_20  and  N_21
REMARK                            x       y       z     vdW  Elec       q    Type
REMARK                         _______ _______ _______ _____ _____    ______ ____
ROOT
ATOM      1  C   UNL     1       7.945   9.174  17.927  0.00  0.00    +0.000 C 
ENDROOT
BRANCH   1   2
ATOM      2  C   UNL     1       7.988   7.779  17.295  0.00  0.00    +0.000 C 
BRANCH   2   6
ATOM      3  C   UNL     1       4.820   4.842  18.067  0.00  0.00    +0.000 C 
ATOM      4  C   UNL     1       4.773   5.743  16.808  0.00  0.00    +0.000 C 
ATOM      5  C   UNL     1       6.072   6.478  16.428  0.00  0.00    +0.000 C 
ATOM      6  N   UNL     1       6.784   6.997  17.606  0.00  0.00    +0.000 NA
ATOM      7  C   UNL     1       7.110   5.866  18.477  0.00  0.00    +0.000 C 
ATOM      8  C   UNL     1       5.803   5.419  19.102  0.00  0.00    +0.000 C 
BRANCH   3   9
ATOM      9  N   UNL     1       5.051   3.387  17.790  0.00  0.00    +0.000 NA
ATOM     10  H   UNL     1       5.310   3.287  16.813  0.00  0.00    +0.000 HD
BRANCH   9  11
ATOM     11  C   UNL     1       3.751   2.680  17.970  0.00  0.00    +0.000 C 
BRANCH  11  15
ATOM     12  C   UNL     1       1.339   3.053  21.434  0.00  0.00    +0.000 A 
ATOM     13  C   UNL     1       0.833   3.515  20.224  0.00  0.00    +0.000 A 
ATOM     14  C   UNL     1       1.635   3.478  19.087  0.00  0.00    +0.000 A 
ATOM     15  C   UNL     1       2.934   2.989  19.202  0.00  0.00    +0.000 A 
ATOM     16  N   UNL     1       3.442   2.542  20.380  0.00  0.00    +0.000 NA
ATOM     17  C   UNL     1       2.637   2.576  21.461  0.00  0.00    +0.000 A 
ENDBRANCH  11  15
ENDBRANCH   9  11
ENDBRANCH   3   9
ENDBRANCH   2   6
ENDBRANCH   1   2
BRANCH   1  18
ATOM     18  C   UNL     1       9.004   9.348  19.019  0.00  0.00    +0.000 C 
BRANCH  18  19
ATOM     19  C   UNL     1       9.560  10.740  19.008  0.00  0.00    +0.000 A 
ATOM     20  C   UNL     1      10.154  11.364  17.927  0.00  0.00    +0.000 A 
ATOM     21  N   UNL     1      10.462  12.648  18.286  0.00  0.00    +0.000 N 
ATOM     22  C   UNL     1      10.074  12.886  19.583  0.00  0.00    +0.000 A 
ATOM     23  C   UNL     1      10.155  14.053  20.348  0.00  0.00    +0.000 A 
ATOM     24  C   UNL     1       9.658  14.017  21.658  0.00  0.00    +0.000 A 
ATOM     25  C   UNL     1       9.108  12.845  22.196  0.00  0.00    +0.000 A 
ATOM     26  C   UNL     1       9.053  11.679  21.406  0.00  0.00    +0.000 A 
ATOM     27  C   UNL     1       9.527  11.701  20.073  0.00  0.00    +0.000 A 
ATOM     28  H   UNL     1      10.889  13.334  17.679  0.00  0.00    +0.000 HD
BRANCH  25  29
ATOM     29  N   UNL     1       8.595  12.832  23.525  0.00  0.00    +0.000 N 
ATOM     30  C   UNL     1       8.499  13.878  24.410  0.00  0.00    +0.000 A 
ATOM     31  N   UNL     1       7.972  13.479  25.546  0.00  0.00    +0.000 NA
ATOM     32  N   UNL     1       7.705  12.141  25.428  0.00  0.00    +0.000 NA
ATOM     33  C   UNL     1       8.083  11.767  24.226  0.00  0.00    +0.000 A 
ENDBRANCH  25  29
ENDBRANCH  18  19
ENDBRANCH   1  18
TORSDOF 8
ENDMDL
MODEL 2
REMARK VINA RESULT:      -8.3      3.107      3.641
REMARK  Name = 
REMARK  8 active torsions:
REMARK  status: ('A' for Active; 'I' for Inactive)
REMARK    1  A    between atoms: C_4  and  C_5
REMARK    2  A    between atoms: C_5  and  N_6
REMARK    3  A    between atoms: N_6  and  C_7
REMARK    4  A    between atoms: N_10  and  C_11
REMARK    5  A    between atoms: C_11  and  C_12
REMARK    6  A    between atoms: C_12  and  C_13
REMARK    7  A    between atoms: C_13  and  C_14
REMARK    8  A    between atoms: C_20  and  N_21
REMARK                            x       y       z     vdW  Elec       q    Type
REMARK                         _______ _______ _______ _____ _____    ______ ____
ROOT
ATOM      1  C   UNL     1       8.664   9.311  18.107  0.00  0.00    +0.000 C 
ENDROOT
BRANCH   1   2
ATOM      2  C   UNL     1       7.310   8.855  17.555  0.00  0.00    +0.000 C 
BRANCH   2   6
ATOM      3  C   UNL     1       6.571   4.530  17.623  0.00  0.00    +0.000 C 
ATOM      4  C   UNL     1       7.876   5.118  18.214  0.00  0.00    +0.000 C 
ATOM      5  C   UNL     1       7.901   6.637  18.473  0.00  0.00    +0.000 C 
ATOM      6  N   UNL     1       7.242   7.396  17.400  0.00  0.00    +0.000 NA
ATOM      7  C   UNL     1       5.851   6.947  17.312  0.00  0.00    +0.000 C 
ATOM      8  C   UNL     1       5.888   5.560  16.704  0.00  0.00    +0.000 C 
BRANCH   3   9
ATOM      9  N   UNL     1       5.636   3.936  18.632  0.00  0.00    +0.000 NA
ATOM     10  H   UNL     1       6.046   3.073  18.976  0.00  0.00    +0.000 HD
BRANCH   9  11
ATOM     11  C   UNL     1       4.377   3.569  17.923  0.00  0.00    +0.000 C 
BRANCH  11  15
ATOM     12  C   UNL     1       0.672   3.161  19.939  0.00  0.00    +0.000 A 
ATOM     13  C   UNL     1       1.676   3.907  20.547  0.00  0.00    +0.000 A 
ATOM     14  C   UNL     1       2.928   3.989  19.944  0.00  0.00    +0.000 A 
ATOM     15  C   UNL     1       3.141   3.306  18.750  0.00  0.00    +0.000 A 
ATOM     16  N   UNL     1       2.171   2.567  18.151  0.00  0.00    +0.000 NA
ATOM     17  C   UNL     1       0.964   2.518  18.749  0.00  0.00    +0.000 A 
ENDBRANCH  11  15
ENDBRANCH   9  11
ENDBRANCH   3   9
ENDBRANCH   2   6
ENDBRANCH   1   2
BRANCH   1  18
ATOM     18  C   UNL     1       8.585  10.687  18.773  0.00  0.00    +0.000 C 
BRANCH  18  19
ATOM     19  C   UNL     1       9.645  11.602  18.237  0.00  0.00    +0.000 A 
ATOM     20  C   UNL     1      10.837  11.207  17.661  0.00  0.00    +0.000 A 
ATOM     21  N   UNL     1      11.500  12.323  17.231  0.00  0.00    +0.000 N 
ATOM     22  C   UNL     1      10.761  13.451  17.505  0.00  0.00    +0.000 A 
ATOM     23  C   UNL     1      11.025  14.793  17.216  0.00  0.00    +0.000 A 
ATOM     24  C   UNL     1      10.074  15.747  17.601  0.00  0.00    +0.000 A 
ATOM     25  C   UNL     1       8.898  15.376  18.270  0.00  0.00    +0.000 A 
ATOM     26  C   UNL     1       8.667  14.016  18.561  0.00  0.00    +0.000 A 
ATOM     27  C   UNL     1       9.603  13.034  18.159  0.00  0.00    +0.000 A 
ATOM     28  H   UNL     1      12.392  12.323  16.755  0.00  0.00    +0.000 HD
BRANCH  25  29
ATOM     29  N   UNL     1       7.936  16.359  18.640  0.00  0.00    +0.000 N 
ATOM     30  C   UNL     1       8.154  17.586  19.219  0.00  0.00    +0.000 A 
ATOM     31  N   UNL     1       7.017  18.215  19.416  0.00  0.00    +0.000 NA
ATOM     32  N   UNL     1       6.013  17.402  18.961  0.00  0.00    +0.000 NA
ATOM     33  C   UNL     1       6.570  16.302  18.507  0.00  0.00    +0.000 A 
ENDBRANCH  25  29
ENDBRANCH  18  19
ENDBRANCH   1  18
TORSDOF 8
ENDMDL
MODEL 3
REMARK VINA RESULT:      -8.1      2.036      3.920
REMARK  Name = 
REMARK  8 active torsions:
REMARK  status: ('A' for Active; 'I' for Inactive)
REMARK    1  A    between atoms: C_4  and  C_5
REMARK    2  A    between atoms: C_5  and  N_6
REMARK    3  A    between atoms: N_6  and  C_7
REMARK    4  A    between atoms: N_10  and  C_11
REMARK    5  A    between atoms: C_11  and  C_12
REMARK    6  A    between atoms: C_12  and  C_13
REMARK    7  A    between atoms: C_13  and  C_14
REMARK    8  A    between atoms: C_20  and  N_21
REMARK                            x       y       z     vdW  Elec       q    Type
REMARK                         _______ _______ _______ _____ _____    ______ ____
ROOT
ATOM      1  C   UNL     1       8.593   8.942  18.231  0.00  0.00    +0.000 C 
ENDROOT
BRANCH   1   2
ATOM      2  C   UNL     1       7.269   8.578  17.551  0.00  0.00    +0.000 C 
BRANCH   2   6
ATOM      3  C   UNL     1       6.396   4.337  16.841  0.00  0.00    +0.000 C 
ATOM      4  C   UNL     1       7.457   4.761  17.885  0.00  0.00    +0.000 C 
ATOM      5  C   UNL     1       7.452   6.237  18.325  0.00  0.00    +0.000 C 
ATOM      6  N   UNL     1       7.203   7.153  17.202  0.00  0.00    +0.000 NA
ATOM      7  C   UNL     1       5.901   6.821  16.621  0.00  0.00    +0.000 C 
ATOM      8  C   UNL     1       6.085   5.507  15.888  0.00  0.00    +0.000 C 
BRANCH   3   9
ATOM      9  N   UNL     1       5.163   3.710  17.418  0.00  0.00    +0.000 NA
ATOM     10  H   UNL     1       4.355   4.097  16.938  0.00  0.00    +0.000 HD
BRANCH   9  11
ATOM     11  C   UNL     1       5.065   4.131  18.845  0.00  0.00    +0.000 C 
BRANCH  11  15
ATOM     12  C   UNL     1       1.184   3.488  20.420  0.00  0.00    +0.000 A 
ATOM     13  C   UNL     1       1.741   4.757  20.534  0.00  0.00    +0.000 A 
ATOM     14  C   UNL     1       3.045   4.975  20.097  0.00  0.00    +0.000 A 
ATOM     15  C   UNL     1       3.760   3.903  19.570  0.00  0.00    +0.000 A 
ATOM     16  N   UNL     1       3.230   2.656  19.461  0.00  0.00    +0.000 NA
ATOM     17  C   UNL     1       1.961   2.479  19.878  0.00  0.00    +0.000 A 
ENDBRANCH  11  15
ENDBRANCH   9  11
ENDBRANCH   3   9
ENDBRANCH   2   6
ENDBRANCH   1   2
BRANCH   1  18
ATOM     18  C   UNL     1       8.956  10.417  18.042  0.00  0.00    +0.000 C 
BRANCH  18  19
ATOM     19  C   UNL     1       9.184  11.086  19.365  0.00  0.00    +0.000 A 
ATOM     20  C   UNL     1       9.139  10.468  20.600  0.00  0.00    +0.000 A 
ATOM     21  N   UNL     1       9.473  11.389  21.555  0.00  0.00    +0.000 N 
ATOM     22  C   UNL     1       9.747  12.603  20.970  0.00  0.00    +0.000 A 
ATOM     23  C   UNL     1      10.161  13.808  21.547  0.00  0.00    +0.000 A 
ATOM     24  C   UNL     1      10.387  14.900  20.697  0.00  0.00    +0.000 A 
ATOM     25  C   UNL     1      10.193  14.798  19.312  0.00  0.00    +0.000 A 
ATOM     26  C   UNL     1       9.762  13.574  18.761  0.00  0.00    +0.000 A 
ATOM     27  C   UNL     1       9.550  12.453  19.598  0.00  0.00    +0.000 A 
ATOM     28  H   UNL     1       9.537  11.202  22.546  0.00  0.00    +0.000 HD
BRANCH  25  29
ATOM     29  N   UNL     1      10.443  15.914  18.463  0.00  0.00    +0.000 N 
ATOM     30  C   UNL     1       9.582  16.927  18.115  0.00  0.00    +0.000 A 
ATOM     31  N   UNL     1      10.172  17.781  17.308  0.00  0.00    +0.000 NA
ATOM     32  N   UNL     1      11.454  17.341  17.110  0.00  0.00    +0.000 NA
ATOM     33  C   UNL     1      11.602  16.231  17.797  0.00  0.00    +0.000 A 
ENDBRANCH  25  29
ENDBRANCH  18  19
ENDBRANCH   1  18
TORSDOF 8
ENDMDL
MODEL 4
REMARK VINA RESULT:      -8.1      6.880     10.814
REMARK  Name = 
REMARK  8 active torsions:
REMARK  status: ('A' for Active; 'I' for Inactive)
REMARK    1  A    between atoms: C_4  and  C_5
REMARK    2  A    between atoms: C_5  and  N_6
REMARK    3  A    between atoms: N_6  and  C_7
REMARK    4  A    between atoms: N_10  and  C_11
REMARK    5  A    between atoms: C_11  and  C_12
REMARK    6  A    between atoms: C_12  and  C_13
REMARK    7  A    between atoms: C_13  and  C_14
REMARK    8  A    between atoms: C_20  and  N_21
REMARK                            x       y       z     vdW  Elec       q    Type
REMARK                         _______ _______ _______ _____ _____    ______ ____
ROOT
ATOM      1  C   UNL     1       1.948   8.193  18.075  0.00  0.00    +0.000 C 
ENDROOT
BRANCH   1   2
ATOM      2  C   UNL     1       1.864   9.723  18.066  0.00  0.00    +0.000 C 
BRANCH   2   6
ATOM      3  C   UNL     1      -2.089  11.422  18.930  0.00  0.00    +0.000 C 
ATOM      4  C   UNL     1      -0.805  12.087  19.483  0.00  0.00    +0.000 C 
ATOM      5  C   UNL     1       0.532  11.652  18.854  0.00  0.00    +0.000 C 
ATOM      6  N   UNL     1       0.579  10.206  18.590  0.00  0.00    +0.000 NA
ATOM      7  C   UNL     1      -0.513   9.875  17.673  0.00  0.00    +0.000 C 
ATOM      8  C   UNL     1      -1.793   9.980  18.478  0.00  0.00    +0.000 C 
BRANCH   3   9
ATOM      9  N   UNL     1      -2.813  12.223  17.891  0.00  0.00    +0.000 NA
ATOM     10  H   UNL     1      -3.139  13.084  18.323  0.00  0.00    +0.000 HD
BRANCH   9  11
ATOM     11  C   UNL     1      -4.024  11.453  17.487  0.00  0.00    +0.000 C 
BRANCH  11  15
ATOM     12  C   UNL     1      -7.210  11.791  20.259  0.00  0.00    +0.000 A 
ATOM     13  C   UNL     1      -7.037  10.581  19.597  0.00  0.00    +0.000 A 
ATOM     14  C   UNL     1      -6.049  10.469  18.623  0.00  0.00    +0.000 A 
ATOM     15  C   UNL     1      -5.269  11.584  18.331  0.00  0.00    +0.000 A 
ATOM     16  N   UNL     1      -5.434  12.774  18.966  0.00  0.00    +0.000 NA
ATOM     17  C   UNL     1      -6.388  12.849  19.915  0.00  0.00    +0.000 A 
ENDBRANCH  11  15
ENDBRANCH   9  11
ENDBRANCH   3   9
ENDBRANCH   2   6
ENDBRANCH   1   2
BRANCH   1  18
ATOM     18  C   UNL     1       2.303   7.641  19.459  0.00  0.00    +0.000 C 
BRANCH  18  19
ATOM     19  C   UNL     1       2.320   6.142  19.448  0.00  0.00    +0.000 A 
ATOM     20  C   UNL     1       1.503   5.319  20.198  0.00  0.00    +0.000 A 
ATOM     21  N   UNL     1       1.767   4.020  19.857  0.00  0.00    +0.000 N 
ATOM     22  C   UNL     1       2.740   3.972  18.886  0.00  0.00    +0.000 A 
ATOM     23  C   UNL     1       3.293   2.875  18.219  0.00  0.00    +0.000 A 
ATOM     24  C   UNL     1       4.273   3.122  17.247  0.00  0.00    +0.000 A 
ATOM     25  C   UNL     1       4.699   4.427  16.958  0.00  0.00    +0.000 A 
ATOM     26  C   UNL     1       4.134   5.512  17.657  0.00  0.00    +0.000 A 
ATOM     27  C   UNL     1       3.127   5.286  18.625  0.00  0.00    +0.000 A 
ATOM     28  H   UNL     1       1.298   3.212  20.241  0.00  0.00    +0.000 HD
BRANCH  25  29
ATOM     29  N   UNL     1       5.685   4.659  15.956  0.00  0.00    +0.000 N 
ATOM     30  C   UNL     1       6.813   5.439  16.037  0.00  0.00    +0.000 A 
ATOM     31  N   UNL     1       7.481   5.409  14.906  0.00  0.00    +0.000 NA
ATOM     32  N   UNL     1       6.796   4.593  14.045  0.00  0.00    +0.000 NA
ATOM     33  C   UNL     1       5.730   4.157  14.678  0.00  0.00    +0.000 A 
ENDBRANCH  25  29
ENDBRANCH  18  19
ENDBRANCH   1  18
TORSDOF 8
ENDMDL
MODEL 5
REMARK VINA RESULT:      -8.0      2.652      2.973
REMARK  Name = 
REMARK  8 active torsions:
REMARK  status: ('A' for Active; 'I' for Inactive)
REMARK    1  A    between atoms: C_4  and  C_5
REMARK    2  A    between atoms: C_5  and  N_6
REMARK    3  A    between atoms: N_6  and  C_7
REMARK    4  A    between atoms: N_10  and  C_11
REMARK    5  A    between atoms: C_11  and  C_12
REMARK    6  A    between atoms: C_12  and  C_13
REMARK    7  A    between atoms: C_13  and  C_14
REMARK    8  A    between atoms: C_20  and  N_21
REMARK                            x       y       z     vdW  Elec       q    Type
REMARK                         _______ _______ _______ _____ _____    ______ ____
ROOT
ATOM      1  C   UNL     1       8.013   9.632  17.990  0.00  0.00    +0.000 C 
ENDROOT
BRANCH   1   2
ATOM      2  C   UNL     1       8.127   8.192  17.480  0.00  0.00    +0.000 C 
BRANCH   2   6
ATOM      3  C   UNL     1       5.265   5.083  18.662  0.00  0.00    +0.000 C 
ATOM      4  C   UNL     1       4.853   6.202  17.674  0.00  0.00    +0.000 C 
ATOM      5  C   UNL     1       5.989   7.028  17.043  0.00  0.00    +0.000 C 
ATOM      6  N   UNL     1       7.056   7.335  18.007  0.00  0.00    +0.000 NA
ATOM      7  C   UNL     1       7.601   6.070  18.503  0.00  0.00    +0.000 C 
ATOM      8  C   UNL     1       6.546   5.481  19.418  0.00  0.00    +0.000 C 
BRANCH   3   9
ATOM      9  N   UNL     1       5.343   3.712  18.060  0.00  0.00    +0.000 NA
ATOM     10  H   UNL     1       5.729   3.797  17.124  0.00  0.00    +0.000 HD
BRANCH   9  11
ATOM     11  C   UNL     1       3.950   3.201  17.913  0.00  0.00    +0.000 C 
BRANCH  11  15
ATOM     12  C   UNL     1       1.357   2.825  21.243  0.00  0.00    +0.000 A 
ATOM     13  C   UNL     1       0.841   3.338  20.059  0.00  0.00    +0.000 A 
ATOM     14  C   UNL     1       1.689   3.547  18.975  0.00  0.00    +0.000 A 
ATOM     15  C   UNL     1       3.041   3.247  19.118  0.00  0.00    +0.000 A 
ATOM     16  N   UNL     1       3.559   2.753  20.273  0.00  0.00    +0.000 NA
ATOM     17  C   UNL     1       2.712   2.547  21.300  0.00  0.00    +0.000 A 
ENDBRANCH  11  15
ENDBRANCH   9  11
ENDBRANCH   3   9
ENDBRANCH   2   6
ENDBRANCH   1   2
BRANCH   1  18
ATOM     18  C   UNL     1       9.156  10.002  18.940  0.00  0.00    +0.000 C 
BRANCH  18  19
ATOM     19  C   UNL     1       9.950  11.152  18.398  0.00  0.00    +0.000 A 
ATOM     20  C   UNL     1      11.160  11.058  17.737  0.00  0.00    +0.000 A 
ATOM     21  N   UNL     1      11.530  12.312  17.333  0.00  0.00    +0.000 N 
ATOM     22  C   UNL     1      10.579  13.232  17.708  0.00  0.00    +0.000 A 
ATOM     23  C   UNL     1      10.520  14.610  17.478  0.00  0.00    +0.000 A 
ATOM     24  C   UNL     1       9.408  15.311  17.966  0.00  0.00    +0.000 A 
ATOM     25  C   UNL     1       8.390  14.658  18.677  0.00  0.00    +0.000 A 
ATOM     26  C   UNL     1       8.485  13.270  18.906  0.00  0.00    +0.000 A 
ATOM     27  C   UNL     1       9.587  12.540  18.401  0.00  0.00    +0.000 A 
ATOM     28  H   UNL     1      12.366  12.530  16.810  0.00  0.00    +0.000 HD
BRANCH  25  29
ATOM     29  N   UNL     1       7.261  15.385  19.153  0.00  0.00    +0.000 N 
ATOM     30  C   UNL     1       6.059  15.599  18.522  0.00  0.00    +0.000 A 
ATOM     31  N   UNL     1       5.261  16.321  19.276  0.00  0.00    +0.000 NA
ATOM     32  N   UNL     1       5.932  16.598  20.437  0.00  0.00    +0.000 NA
ATOM     33  C   UNL     1       7.119  16.042  20.351  0.00  0.00    +0.000 A 
ENDBRANCH  25  29
ENDBRANCH  18  19
ENDBRANCH   1  18
TORSDOF 8
ENDMDL
MODEL 6
REMARK VINA RESULT:      -7.9      3.043      3.561
REMARK  Name = 
REMARK  8 active torsions:
REMARK  status: ('A' for Active; 'I' for Inactive)
REMARK    1  A    between atoms: C_4  and  C_5
REMARK    2  A    between atoms: C_5  and  N_6
REMARK    3  A    between atoms: N_6  and  C_7
REMARK    4  A    between atoms: N_10  and  C_11
REMARK    5  A    between atoms: C_11  and  C_12
REMARK    6  A    between atoms: C_12  and  C_13
REMARK    7  A    between atoms: C_13  and  C_14
REMARK    8  A    between atoms: C_20  and  N_21
REMARK                            x       y       z     vdW  Elec       q    Type
REMARK                         _______ _______ _______ _____ _____    ______ ____
ROOT
ATOM      1  C   UNL     1       8.348   9.263  17.925  0.00  0.00    +0.000 C 
ENDROOT
BRANCH   1   2
ATOM      2  C   UNL     1       8.331   7.840  18.491  0.00  0.00    +0.000 C 
BRANCH   2   6
ATOM      3  C   UNL     1       5.498   5.166  16.471  0.00  0.00    +0.000 C 
ATOM      4  C   UNL     1       6.758   4.599  17.169  0.00  0.00    +0.000 C 
ATOM      5  C   UNL     1       7.498   5.538  18.141  0.00  0.00    +0.000 C 
ATOM      6  N   UNL     1       7.564   6.919  17.641  0.00  0.00    +0.000 NA
ATOM      7  C   UNL     1       6.195   7.403  17.455  0.00  0.00    +0.000 C 
ATOM      8  C   UNL     1       5.649   6.681  16.239  0.00  0.00    +0.000 C 
BRANCH   3   9
ATOM      9  N   UNL     1       4.200   4.802  17.126  0.00  0.00    +0.000 NA
ATOM     10  H   UNL     1       3.774   5.653  17.481  0.00  0.00    +0.000 HD
BRANCH   9  11
ATOM     11  C   UNL     1       4.512   3.945  18.305  0.00  0.00    +0.000 C 
BRANCH  11  15
ATOM     12  C   UNL     1       1.409   3.286  21.115  0.00  0.00    +0.000 A 
ATOM     13  C   UNL     1       2.604   2.594  21.277  0.00  0.00    +0.000 A 
ATOM     14  C   UNL     1       3.609   2.731  20.323  0.00  0.00    +0.000 A 
ATOM     15  C   UNL     1       3.378   3.552  19.223  0.00  0.00    +0.000 A 
ATOM     16  N   UNL     1       2.212   4.227  19.049  0.00  0.00    +0.000 NA
ATOM     17  C   UNL     1       1.262   4.087  19.996  0.00  0.00    +0.000 A 
ENDBRANCH  11  15
ENDBRANCH   9  11
ENDBRANCH   3   9
ENDBRANCH   2   6
ENDBRANCH   1   2
BRANCH   1  18
ATOM     18  C   UNL     1       8.783  10.296  18.969  0.00  0.00    +0.000 C 
BRANCH  18  19
ATOM     19  C   UNL     1       9.752  11.277  18.379  0.00  0.00    +0.000 A 
ATOM     20  C   UNL     1      10.976  10.965  17.819  0.00  0.00    +0.000 A 
ATOM     21  N   UNL     1      11.530  12.115  17.326  0.00  0.00    +0.000 N 
ATOM     22  C   UNL     1      10.688  13.180  17.543  0.00  0.00    +0.000 A 
ATOM     23  C   UNL     1      10.823  14.524  17.181  0.00  0.00    +0.000 A 
ATOM     24  C   UNL     1       9.786  15.404  17.520  0.00  0.00    +0.000 A 
ATOM     25  C   UNL     1       8.651  14.959  18.213  0.00  0.00    +0.000 A 
ATOM     26  C   UNL     1       8.549  13.601  18.578  0.00  0.00    +0.000 A 
ATOM     27  C   UNL     1       9.574  12.692  18.225  0.00  0.00    +0.000 A 
ATOM     28  H   UNL     1      12.418  12.173  16.846  0.00  0.00    +0.000 HD
BRANCH  25  29
ATOM     29  N   UNL     1       7.601  15.866  18.536  0.00  0.00    +0.000 N 
ATOM     30  C   UNL     1       7.699  17.188  18.895  0.00  0.00    +0.000 A 
ATOM     31  N   UNL     1       6.509  17.698  19.120  0.00  0.00    +0.000 NA
ATOM     32  N   UNL     1       5.589  16.706  18.907  0.00  0.00    +0.000 NA
ATOM     33  C   UNL     1       6.249  15.622  18.565  0.00  0.00    +0.000 A 
ENDBRANCH  25  29
ENDBRANCH  18  19
ENDBRANCH   1  18
TORSDOF 8
ENDMDL
MODEL 7
REMARK VINA RESULT:      -7.9      6.543     10.517
REMARK  Name = 
REMARK  8 active torsions:
REMARK  status: ('A' for Active; 'I' for Inactive)
REMARK    1  A    between atoms: C_4  and  C_5
REMARK    2  A    between atoms: C_5  and  N_6
REMARK    3  A    between atoms: N_6  and  C_7
REMARK    4  A    between atoms: N_10  and  C_11
REMARK    5  A    between atoms: C_11  and  C_12
REMARK    6  A    between atoms: C_12  and  C_13
REMARK    7  A    between atoms: C_13  and  C_14
REMARK    8  A    between atoms: C_20  and  N_21
REMARK                            x       y       z     vdW  Elec       q    Type
REMARK                         _______ _______ _______ _____ _____    ______ ____
ROOT
ATOM      1  C   UNL     1       1.596   7.768  19.898  0.00  0.00    +0.000 C 
ENDROOT
BRANCH   1   2
ATOM      2  C   UNL     1       1.156   9.030  20.647  0.00  0.00    +0.000 C 
BRANCH   2   6
ATOM      3  C   UNL     1      -0.601  12.447  18.527  0.00  0.00    +0.000 C 
ATOM      4  C   UNL     1      -1.167  11.019  18.331  0.00  0.00    +0.000 C 
ATOM      5  C   UNL     1      -0.741   9.953  19.358  0.00  0.00    +0.000 C 
ATOM      6  N   UNL     1       0.676  10.074  19.732  0.00  0.00    +0.000 NA
ATOM      7  C   UNL     1       0.884  11.404  20.306  0.00  0.00    +0.000 C 
ATOM      8  C   UNL     1       0.805  12.384  19.153  0.00  0.00    +0.000 C 
BRANCH   3   9
ATOM      9  N   UNL     1      -1.517  13.393  19.242  0.00  0.00    +0.000 NA
ATOM     10  H   UNL     1      -1.020  13.773  20.042  0.00  0.00    +0.000 HD
BRANCH   9  11
ATOM     11  C   UNL     1      -2.661  12.600  19.776  0.00  0.00    +0.000 C 
BRANCH  11  15
ATOM     12  C   UNL     1      -3.698  12.445  23.881  0.00  0.00    +0.000 A 
ATOM     13  C   UNL     1      -4.595  13.031  22.996  0.00  0.00    +0.000 A 
ATOM     14  C   UNL     1      -4.244  13.168  21.655  0.00  0.00    +0.000 A 
ATOM     15  C   UNL     1      -2.991  12.721  21.244  0.00  0.00    +0.000 A 
ATOM     16  N   UNL     1      -2.103  12.154  22.102  0.00  0.00    +0.000 NA
ATOM     17  C   UNL     1      -2.476  12.021  23.390  0.00  0.00    +0.000 A 
ENDBRANCH  11  15
ENDBRANCH   9  11
ENDBRANCH   3   9
ENDBRANCH   2   6
ENDBRANCH   1   2
BRANCH   1  18
ATOM     18  C   UNL     1       1.915   6.612  20.850  0.00  0.00    +0.000 C 
BRANCH  18  19
ATOM     19  C   UNL     1       1.898   5.300  20.122  0.00  0.00    +0.000 A 
ATOM     20  C   UNL     1       0.943   4.312  20.261  0.00  0.00    +0.000 A 
ATOM     21  N   UNL     1       1.231   3.306  19.379  0.00  0.00    +0.000 N 
ATOM     22  C   UNL     1       2.356   3.619  18.652  0.00  0.00    +0.000 A 
ATOM     23  C   UNL     1       2.989   2.913  17.625  0.00  0.00    +0.000 A 
ATOM     24  C   UNL     1       4.127   3.484  17.039  0.00  0.00    +0.000 A 
ATOM     25  C   UNL     1       4.629   4.719  17.475  0.00  0.00    +0.000 A 
ATOM     26  C   UNL     1       3.978   5.400  18.523  0.00  0.00    +0.000 A 
ATOM     27  C   UNL     1       2.814   4.853  19.111  0.00  0.00    +0.000 A 
ATOM     28  H   UNL     1       0.683   2.466  19.257  0.00  0.00    +0.000 HD
BRANCH  25  29
ATOM     29  N   UNL     1       5.779   5.290  16.858  0.00  0.00    +0.000 N 
ATOM     30  C   UNL     1       6.445   4.858  15.737  0.00  0.00    +0.000 A 
ATOM     31  N   UNL     1       7.466   5.643  15.472  0.00  0.00    +0.000 NA
ATOM     32  N   UNL     1       7.489   6.624  16.427  0.00  0.00    +0.000 NA
ATOM     33  C   UNL     1       6.486   6.402  17.247  0.00  0.00    +0.000 A 
ENDBRANCH  25  29
ENDBRANCH  18  19
ENDBRANCH   1  18
TORSDOF 8
ENDMDL
MODEL 8
REMARK VINA RESULT:      -7.9      5.767     10.943
REMARK  Name = 
REMARK  8 active torsions:
REMARK  status: ('A' for Active; 'I' for Inactive)
REMARK    1  A    between atoms: C_4  and  C_5
REMARK    2  A    between atoms: C_5  and  N_6
REMARK    3  A    between atoms: N_6  and  C_7
REMARK    4  A    between atoms: N_10  and  C_11
REMARK    5  A    between atoms: C_11  and  C_12
REMARK    6  A    between atoms: C_12  and  C_13
REMARK    7  A    between atoms: C_13  and  C_14
REMARK    8  A    between atoms: C_20  and  N_21
REMARK                            x       y       z     vdW  Elec       q    Type
REMARK                         _______ _______ _______ _____ _____    ______ ____
ROOT
ATOM      1  C   UNL     1       1.511   7.618  20.375  0.00  0.00    +0.000 C 
ENDROOT
BRANCH   1   2
ATOM      2  C   UNL     1       0.633   8.488  21.279  0.00  0.00    +0.000 C 
BRANCH   2   6
ATOM      3  C   UNL     1       0.053  12.149  18.929  0.00  0.00    +0.000 C 
ATOM      4  C   UNL     1       0.334  12.222  20.450  0.00  0.00    +0.000 C 
ATOM      5  C   UNL     1       0.871  10.945  21.123  0.00  0.00    +0.000 C 
ATOM      6  N   UNL     1       0.217   9.730  20.613  0.00  0.00    +0.000 NA
ATOM      7  C   UNL     1       0.461   9.652  19.172  0.00  0.00    +0.000 C 
ATOM      8  C   UNL     1      -0.395  10.729  18.536  0.00  0.00    +0.000 C 
BRANCH   3   9
ATOM      9  N   UNL     1       1.156  12.675  18.061  0.00  0.00    +0.000 NA
ATOM     10  H   UNL     1       1.738  11.892  17.777  0.00  0.00    +0.000 HD
BRANCH   9  11
ATOM     11  C   UNL     1       2.005  13.569  18.898  0.00  0.00    +0.000 C 
BRANCH  11  15
ATOM     12  C   UNL     1       1.857  17.573  17.519  0.00  0.00    +0.000 A 
ATOM     13  C   UNL     1       2.993  16.821  17.241  0.00  0.00    +0.000 A 
ATOM     14  C   UNL     1       3.101  15.530  17.752  0.00  0.00    +0.000 A 
ATOM     15  C   UNL     1       2.067  15.035  18.542  0.00  0.00    +0.000 A 
ATOM     16  N   UNL     1       0.956  15.764  18.827  0.00  0.00    +0.000 NA
ATOM     17  C   UNL     1       0.872  17.005  18.307  0.00  0.00    +0.000 A 
ENDBRANCH  11  15
ENDBRANCH   9  11
ENDBRANCH   3   9
ENDBRANCH   2   6
ENDBRANCH   1   2
BRANCH   1  18
ATOM     18  C   UNL     1       2.002   6.354  21.087  0.00  0.00    +0.000 C 
BRANCH  18  19
ATOM     19  C   UNL     1       1.896   5.159  20.187  0.00  0.00    +0.000 A 
ATOM     20  C   UNL     1       0.877   4.225  20.202  0.00  0.00    +0.000 A 
ATOM     21  N   UNL     1       1.096   3.333  19.188  0.00  0.00    +0.000 N 
ATOM     22  C   UNL     1       2.237   3.667  18.497  0.00  0.00    +0.000 A 
ATOM     23  C   UNL     1       2.819   3.068  17.376  0.00  0.00    +0.000 A 
ATOM     24  C   UNL     1       3.992   3.638  16.861  0.00  0.00    +0.000 A 
ATOM     25  C   UNL     1       4.576   4.766  17.456  0.00  0.00    +0.000 A 
ATOM     26  C   UNL     1       3.974   5.339  18.594  0.00  0.00    +0.000 A 
ATOM     27  C   UNL     1       2.777   4.794  19.115  0.00  0.00    +0.000 A 
ATOM     28  H   UNL     1       0.493   2.555  18.959  0.00  0.00    +0.000 HD
BRANCH  25  29
ATOM     29  N   UNL     1       5.760   5.339  16.909  0.00  0.00    +0.000 N 
ATOM     30  C   UNL     1       6.602   6.260  17.482  0.00  0.00    +0.000 A 
ATOM     31  N   UNL     1       7.593   6.553  16.669  0.00  0.00    +0.000 NA
ATOM     32  N   UNL     1       7.419   5.817  15.528  0.00  0.00    +0.000 NA
ATOM     33  C   UNL     1       6.326   5.104  15.679  0.00  0.00    +0.000 A 
ENDBRANCH  25  29
ENDBRANCH  18  19
ENDBRANCH   1  18
TORSDOF 8
ENDMDL
MODEL 9
REMARK VINA RESULT:      -7.9      0.912      1.624
REMARK  Name = 
REMARK  8 active torsions:
REMARK  status: ('A' for Active; 'I' for Inactive)
REMARK    1  A    between atoms: C_4  and  C_5
REMARK    2  A    between atoms: C_5  and  N_6
REMARK    3  A    between atoms: N_6  and  C_7
REMARK    4  A    between atoms: N_10  and  C_11
REMARK    5  A    between atoms: C_11  and  C_12
REMARK    6  A    between atoms: C_12  and  C_13
REMARK    7  A    between atoms: C_13  and  C_14
REMARK    8  A    between atoms: C_20  and  N_21
REMARK                            x       y       z     vdW  Elec       q    Type
REMARK                         _______ _______ _______ _____ _____    ______ ____
ROOT
ATOM      1  C   UNL     1       8.508   8.979  17.695  0.00  0.00    +0.000 C 
ENDROOT
BRANCH   1   2
ATOM      2  C   UNL     1       7.071   8.450  17.640  0.00  0.00    +0.000 C 
BRANCH   2   6
ATOM      3  C   UNL     1       6.238   4.278  16.565  0.00  0.00    +0.000 C 
ATOM      4  C   UNL     1       7.337   4.623  17.599  0.00  0.00    +0.000 C 
ATOM      5  C   UNL     1       7.326   6.051  18.178  0.00  0.00    +0.000 C 
ATOM      6  N   UNL     1       7.014   7.063  17.159  0.00  0.00    +0.000 NA
ATOM      7  C   UNL     1       5.693   6.761  16.604  0.00  0.00    +0.000 C 
ATOM      8  C   UNL     1       5.866   5.526  15.742  0.00  0.00    +0.000 C 
BRANCH   3   9
ATOM      9  N   UNL     1       5.042   3.574  17.130  0.00  0.00    +0.000 NA
ATOM     10  H   UNL     1       4.206   4.023  16.766  0.00  0.00    +0.000 HD
BRANCH   9  11
ATOM     11  C   UNL     1       5.044   3.790  18.605  0.00  0.00    +0.000 C 
BRANCH  11  15
ATOM     12  C   UNL     1       1.549   3.617  20.995  0.00  0.00    +0.000 A 
ATOM     13  C   UNL     1       2.565   2.701  21.244  0.00  0.00    +0.000 A 
ATOM     14  C   UNL     1       3.688   2.683  20.421  0.00  0.00    +0.000 A 
ATOM     15  C   UNL     1       3.753   3.582  19.360  0.00  0.00    +0.000 A 
ATOM     16  N   UNL     1       2.763   4.477  19.103  0.00  0.00    +0.000 NA
ATOM     17  C   UNL     1       1.695   4.481  19.924  0.00  0.00    +0.000 A 
ENDBRANCH  11  15
ENDBRANCH   9  11
ENDBRANCH   3   9
ENDBRANCH   2   6
ENDBRANCH   1   2
BRANCH   1  18
ATOM     18  C   UNL     1       8.889   9.475  19.092  0.00  0.00    +0.000 C 
BRANCH  18  19
ATOM     19  C   UNL     1       9.566  10.811  19.019  0.00  0.00    +0.000 A 
ATOM     20  C   UNL     1      10.213  11.329  17.913  0.00  0.00    +0.000 A 
ATOM     21  N   UNL     1      10.634  12.596  18.214  0.00  0.00    +0.000 N 
ATOM     22  C   UNL     1      10.267  12.928  19.497  0.00  0.00    +0.000 A 
ATOM     23  C   UNL     1      10.452  14.118  20.207  0.00  0.00    +0.000 A 
ATOM     24  C   UNL     1       9.953  14.186  21.515  0.00  0.00    +0.000 A 
ATOM     25  C   UNL     1       9.300  13.093  22.105  0.00  0.00    +0.000 A 
ATOM     26  C   UNL     1       9.143  11.901  21.369  0.00  0.00    +0.000 A 
ATOM     27  C   UNL     1       9.618  11.819  20.039  0.00  0.00    +0.000 A 
ATOM     28  H   UNL     1      11.121  13.213  17.578  0.00  0.00    +0.000 HD
BRANCH  25  29
ATOM     29  N   UNL     1       8.787  13.187  23.431  0.00  0.00    +0.000 N 
ATOM     30  C   UNL     1       8.388  12.170  24.262  0.00  0.00    +0.000 A 
ATOM     31  N   UNL     1       7.969  12.648  25.413  0.00  0.00    +0.000 NA
ATOM     32  N   UNL     1       8.089  14.011  25.360  0.00  0.00    +0.000 NA
ATOM     33  C   UNL     1       8.571  14.320  24.177  0.00  0.00    +0.000 A 
ENDBRANCH  25  29
ENDBRANCH  18  19
ENDBRANCH   1  18
TORSDOF 8
ENDMDL
