MODEL 1
REMARK VINA RESULT:      -7.3      0.000      0.000
REMARK  Name = 
REMARK  8 active torsions:
REMARK  status: ('A' for Active; 'I' for Inactive)
REMARK    1  A    between atoms: C_1  and  C_2
REMARK    2  A    between atoms: C_2  and  C_3
REMARK    3  A    between atoms: C_2  and  N_16
REMARK    4  A    between atoms: N_5  and  C_6
REMARK    5  A    between atoms: C_6  and  C_7
REMARK    6  A    between atoms: C_7  and  C_8
REMARK    7  A    between atoms: C_7  and  C_9
REMARK    8  A    between atoms: C_7  and  N_10
REMARK                            x       y       z     vdW  Elec       q    Type
REMARK                         _______ _______ _______ _____ _____    ______ ____
ROOT
ATOM      1  C   UNL     1       6.466   5.549  18.875  0.00  0.00    +0.000 C 
ATOM      2  O   UNL     1       6.953   5.215  19.960  0.00  0.00    +0.000 OA
ATOM      3  N   UNL     1       5.099   5.542  18.660  0.00  0.00    +0.000 N 
ATOM      4  H   UNL     1       4.723   6.014  17.844  0.00  0.00    +0.000 HD
ENDROOT
BRANCH   1   6
ATOM      5  C   UNL     1       7.505   7.453  17.609  0.00  0.00    +0.000 C 
ATOM      6  C   UNL     1       7.344   5.933  17.693  0.00  0.00    +0.000 C 
BRANCH   6   7
ATOM      7  N   UNL     1       6.824   5.402  16.442  0.00  0.00    +0.000 N 
ATOM      8  C   UNL     1       7.006   4.166  15.902  0.00  0.00    +0.000 A 
ATOM      9  N   UNL     1       6.281   4.049  14.817  0.00  0.00    +0.000 NA
ATOM     10  C   UNL     1       5.655   5.262  14.730  0.00  0.00    +0.000 A 
ATOM     11  N   UNL     1       5.981   6.136  15.687  0.00  0.00    +0.000 NA
ENDBRANCH   6   7
ENDBRANCH   1   6
BRANCH   3  12
ATOM     12  C   UNL     1       4.183   5.254  19.762  0.00  0.00    +0.000 C 
BRANCH  12  13
ATOM     13  C   UNL     1       2.649   5.103  19.403  0.00  0.00    +0.000 C 
ATOM     14  C   UNL     1       1.876   6.037  20.371  0.00  0.00    +0.000 C 
ATOM     15  C   UNL     1       2.363   5.614  17.979  0.00  0.00    +0.000 C 
BRANCH  13  16
ATOM     16  N   UNL     1       2.240   3.683  19.644  0.00  0.00    +0.000 NA
ATOM     17  C   UNL     1       3.186   2.812  20.375  0.00  0.00    +0.000 C 
ATOM     18  C   UNL     1       4.209   2.107  19.479  0.00  0.00    +0.000 C 
ATOM     19  O   UNL     1       3.540   1.261  18.543  0.00  0.00    +0.000 OA
ATOM     20  C   UNL     1       2.658   2.031  17.718  0.00  0.00    +0.000 C 
ATOM     21  C   UNL     1       1.667   2.893  18.532  0.00  0.00    +0.000 C 
ENDBRANCH  13  16
ENDBRANCH  12  13
ENDBRANCH   3  12
TORSDOF 5
ENDMDL
MODEL 2
REMARK VINA RESULT:      -6.8      1.049      1.176
REMARK  Name = 
REMARK  8 active torsions:
REMARK  status: ('A' for Active; 'I' for Inactive)
REMARK    1  A    between atoms: C_1  and  C_2
REMARK    2  A    between atoms: C_2  and  C_3
REMARK    3  A    between atoms: C_2  and  N_16
REMARK    4  A    between atoms: N_5  and  C_6
REMARK    5  A    between atoms: C_6  and  C_7
REMARK    6  A    between atoms: C_7  and  C_8
REMARK    7  A    between atoms: C_7  and  C_9
REMARK    8  A    between atoms: C_7  and  N_10
REMARK                            x       y       z     vdW  Elec       q    Type
REMARK                         _______ _______ _______ _____ _____    ______ ____
ROOT
ATOM      1  C   UNL     1       6.271   5.258  18.271  0.00  0.00    +0.000 C 
ATOM      2  O   UNL     1       6.606   4.234  18.872  0.00  0.00    +0.000 OA
ATOM      3  N   UNL     1       5.092   5.921  18.566  0.00  0.00    +0.000 N 
ATOM      4  H   UNL     1       4.948   6.860  18.209  0.00  0.00    +0.000 HD
ENDROOT
BRANCH   1   6
ATOM      5  C   UNL     1       6.956   7.341  17.047  0.00  0.00    +0.000 C 
ATOM      6  C   UNL     1       7.106   5.821  17.129  0.00  0.00    +0.000 C 
BRANCH   6   7
ATOM      7  N   UNL     1       6.763   5.201  15.858  0.00  0.00    +0.000 N 
ATOM      8  C   UNL     1       5.626   4.536  15.513  0.00  0.00    +0.000 A 
ATOM      9  N   UNL     1       5.667   4.226  14.241  0.00  0.00    +0.000 NA
ATOM     10  C   UNL     1       6.870   4.733  13.835  0.00  0.00    +0.000 A 
ATOM     11  N   UNL     1       7.592   5.313  14.799  0.00  0.00    +0.000 NA
ENDBRANCH   6   7
ENDBRANCH   1   6
BRANCH   3  12
ATOM     12  C   UNL     1       4.269   5.489  19.694  0.00  0.00    +0.000 C 
BRANCH  12  13
ATOM     13  C   UNL     1       2.708   5.393  19.452  0.00  0.00    +0.000 C 
ATOM     14  C   UNL     1       2.086   6.670  20.076  0.00  0.00    +0.000 C 
ATOM     15  C   UNL     1       2.380   5.435  17.948  0.00  0.00    +0.000 C 
BRANCH  13  16
ATOM     16  N   UNL     1       2.187   4.184  20.164  0.00  0.00    +0.000 NA
ATOM     17  C   UNL     1       3.102   3.030  20.314  0.00  0.00    +0.000 C 
ATOM     18  C   UNL     1       3.070   2.048  19.139  0.00  0.00    +0.000 C 
ATOM     19  O   UNL     1       1.761   1.495  18.997  0.00  0.00    +0.000 OA
ATOM     20  C   UNL     1       0.805   2.534  18.755  0.00  0.00    +0.000 C 
ATOM     21  C   UNL     1       0.849   3.655  19.818  0.00  0.00    +0.000 C 
ENDBRANCH  13  16
ENDBRANCH  12  13
ENDBRANCH   3  12
TORSDOF 5
ENDMDL
MODEL 3
REMARK VINA RESULT:      -6.6      1.652      2.717
REMARK  Name = 
REMARK  8 active torsions:
REMARK  status: ('A' for Active; 'I' for Inactive)
REMARK    1  A    between atoms: C_1  and  C_2
REMARK    2  A    between atoms: C_2  and  C_3
REMARK    3  A    between atoms: C_2  and  N_16
REMARK    4  A    between atoms: N_5  and  C_6
REMARK    5  A    between atoms: C_6  and  C_7
REMARK    6  A    between atoms: C_7  and  C_8
REMARK    7  A    between atoms: C_7  and  C_9
REMARK    8  A    between atoms: C_7  and  N_10
REMARK                            x       y       z     vdW  Elec       q    Type
REMARK                         _______ _______ _______ _____ _____    ______ ____
ROOT
ATOM      1  C   UNL     1       6.483   4.922  18.858  0.00  0.00    +0.000 C 
ATOM      2  O   UNL     1       6.437   5.307  20.030  0.00  0.00    +0.000 OA
ATOM      3  N   UNL     1       5.671   3.900  18.397  0.00  0.00    +0.000 N 
ATOM      4  H   UNL     1       5.581   3.751  17.397  0.00  0.00    +0.000 HD
ENDROOT
BRANCH   1   6
ATOM      5  C   UNL     1       7.782   6.969  18.206  0.00  0.00    +0.000 C 
ATOM      6  C   UNL     1       7.476   5.509  17.866  0.00  0.00    +0.000 C 
BRANCH   6   7
ATOM      7  N   UNL     1       7.001   5.390  16.495  0.00  0.00    +0.000 N 
ATOM      8  C   UNL     1       5.980   6.054  15.887  0.00  0.00    +0.000 A 
ATOM      9  N   UNL     1       5.945   5.737  14.617  0.00  0.00    +0.000 NA
ATOM     10  C   UNL     1       6.986   4.859  14.486  0.00  0.00    +0.000 A 
ATOM     11  N   UNL     1       7.643   4.591  15.618  0.00  0.00    +0.000 NA
ENDBRANCH   6   7
ENDBRANCH   1   6
BRANCH   3  12
ATOM     12  C   UNL     1       4.642   3.332  19.264  0.00  0.00    +0.000 C 
BRANCH  12  13
ATOM     13  C   UNL     1       3.435   2.587  18.559  0.00  0.00    +0.000 C 
ATOM     14  C   UNL     1       3.430   3.060  17.081  0.00  0.00    +0.000 C 
ATOM     15  C   UNL     1       3.667   1.066  18.532  0.00  0.00    +0.000 C 
BRANCH  13  16
ATOM     16  N   UNL     1       2.161   3.007  19.224  0.00  0.00    +0.000 NA
ATOM     17  C   UNL     1       1.660   4.371  18.946  0.00  0.00    +0.000 C 
ATOM     18  C   UNL     1       2.216   5.445  19.886  0.00  0.00    +0.000 C 
ATOM     19  O   UNL     1       1.844   5.157  21.235  0.00  0.00    +0.000 OA
ATOM     20  C   UNL     1       2.364   3.883  21.633  0.00  0.00    +0.000 C 
ATOM     21  C   UNL     1       1.972   2.742  20.667  0.00  0.00    +0.000 C 
ENDBRANCH  13  16
ENDBRANCH  12  13
ENDBRANCH   3  12
TORSDOF 5
ENDMDL
MODEL 4
REMARK VINA RESULT:      -6.6      1.023      1.471
REMARK  Name = 
REMARK  8 active torsions:
REMARK  status: ('A' for Active; 'I' for Inactive)
REMARK    1  A    between atoms: C_1  and  C_2
REMARK    2  A    between atoms: C_2  and  C_3
REMARK    3  A    between atoms: C_2  and  N_16
REMARK    4  A    between atoms: N_5  and  C_6
REMARK    5  A    between atoms: C_6  and  C_7
REMARK    6  A    between atoms: C_7  and  C_8
REMARK    7  A    between atoms: C_7  and  C_9
REMARK    8  A    between atoms: C_7  and  N_10
REMARK                            x       y       z     vdW  Elec       q    Type
REMARK                         _______ _______ _______ _____ _____    ______ ____
ROOT
ATOM      1  C   UNL     1       6.514   5.565  18.751  0.00  0.00    +0.000 C 
ATOM      2  O   UNL     1       6.872   5.012  19.795  0.00  0.00    +0.000 OA
ATOM      3  N   UNL     1       5.186   5.870  18.510  0.00  0.00    +0.000 N 
ATOM      4  H   UNL     1       4.952   6.503  17.752  0.00  0.00    +0.000 HD
ENDROOT
BRANCH   1   6
ATOM      5  C   UNL     1       7.581   7.403  17.414  0.00  0.00    +0.000 C 
ATOM      6  C   UNL     1       7.504   5.892  17.643  0.00  0.00    +0.000 C 
BRANCH   6   7
ATOM      7  N   UNL     1       7.174   5.201  16.406  0.00  0.00    +0.000 N 
ATOM      8  C   UNL     1       6.407   4.090  16.230  0.00  0.00    +0.000 A 
ATOM      9  N   UNL     1       6.268   3.850  14.950  0.00  0.00    +0.000 NA
ATOM     10  C   UNL     1       6.977   4.862  14.365  0.00  0.00    +0.000 A 
ATOM     11  N   UNL     1       7.577   5.698  15.218  0.00  0.00    +0.000 NA
ENDBRANCH   6   7
ENDBRANCH   1   6
BRANCH   3  12
ATOM     12  C   UNL     1       4.182   5.655  19.550  0.00  0.00    +0.000 C 
BRANCH  12  13
ATOM     13  C   UNL     1       2.671   5.559  19.085  0.00  0.00    +0.000 C 
ATOM     14  C   UNL     1       1.821   5.426  20.376  0.00  0.00    +0.000 C 
ATOM     15  C   UNL     1       2.223   6.861  18.398  0.00  0.00    +0.000 C 
BRANCH  13  16
ATOM     16  N   UNL     1       2.507   4.330  18.248  0.00  0.00    +0.000 NA
ATOM     17  C   UNL     1       1.150   3.749  18.142  0.00  0.00    +0.000 C 
ATOM     18  C   UNL     1       0.811   2.743  19.246  0.00  0.00    +0.000 C 
ATOM     19  O   UNL     1       1.715   1.639  19.199  0.00  0.00    +0.000 OA
ATOM     20  C   UNL     1       3.062   2.090  19.383  0.00  0.00    +0.000 C 
ATOM     21  C   UNL     1       3.464   3.212  18.400  0.00  0.00    +0.000 C 
ENDBRANCH  13  16
ENDBRANCH  12  13
ENDBRANCH   3  12
TORSDOF 5
ENDMDL
MODEL 5
REMARK VINA RESULT:      -6.6      2.047      3.446
REMARK  Name = 
REMARK  8 active torsions:
REMARK  status: ('A' for Active; 'I' for Inactive)
REMARK    1  A    between atoms: C_1  and  C_2
REMARK    2  A    between atoms: C_2  and  C_3
REMARK    3  A    between atoms: C_2  and  N_16
REMARK    4  A    between atoms: N_5  and  C_6
REMARK    5  A    between atoms: C_6  and  C_7
REMARK    6  A    between atoms: C_7  and  C_8
REMARK    7  A    between atoms: C_7  and  C_9
REMARK    8  A    between atoms: C_7  and  N_10
REMARK                            x       y       z     vdW  Elec       q    Type
REMARK                         _______ _______ _______ _____ _____    ______ ____
ROOT
ATOM      1  C   UNL     1       4.791   5.314  16.670  0.00  0.00    +0.000 C 
ATOM      2  O   UNL     1       4.013   6.176  17.090  0.00  0.00    +0.000 OA
ATOM      3  N   UNL     1       4.441   3.976  16.634  0.00  0.00    +0.000 N 
ATOM      4  H   UNL     1       5.009   3.329  16.097  0.00  0.00    +0.000 HD
ENDROOT
BRANCH   1   6
ATOM      5  C   UNL     1       6.795   4.542  15.370  0.00  0.00    +0.000 C 
ATOM      6  C   UNL     1       6.201   5.667  16.220  0.00  0.00    +0.000 C 
BRANCH   6   7
ATOM      7  N   UNL     1       7.066   5.969  17.350  0.00  0.00    +0.000 N 
ATOM      8  C   UNL     1       7.651   7.152  17.682  0.00  0.00    +0.000 A 
ATOM      9  N   UNL     1       8.265   7.031  18.834  0.00  0.00    +0.000 NA
ATOM     10  C   UNL     1       8.022   5.731  19.180  0.00  0.00    +0.000 A 
ATOM     11  N   UNL     1       7.317   5.030  18.287  0.00  0.00    +0.000 NA
ENDBRANCH   6   7
ENDBRANCH   1   6
BRANCH   3  12
ATOM     12  C   UNL     1       3.083   3.562  16.980  0.00  0.00    +0.000 C 
BRANCH  12  13
ATOM     13  C   UNL     1       2.912   2.663  18.273  0.00  0.00    +0.000 C 
ATOM     14  C   UNL     1       1.388   2.424  18.443  0.00  0.00    +0.000 C 
ATOM     15  C   UNL     1       3.553   1.278  18.069  0.00  0.00    +0.000 C 
BRANCH  13  16
ATOM     16  N   UNL     1       3.435   3.419  19.453  0.00  0.00    +0.000 NA
ATOM     17  C   UNL     1       3.833   2.639  20.646  0.00  0.00    +0.000 C 
ATOM     18  C   UNL     1       2.690   2.377  21.632  0.00  0.00    +0.000 C 
ATOM     19  O   UNL     1       2.174   3.613  22.126  0.00  0.00    +0.000 OA
ATOM     20  C   UNL     1       1.678   4.412  21.046  0.00  0.00    +0.000 C 
ATOM     21  C   UNL     1       2.717   4.624  19.922  0.00  0.00    +0.000 C 
ENDBRANCH  13  16
ENDBRANCH  12  13
ENDBRANCH   3  12
TORSDOF 5
ENDMDL
MODEL 6
REMARK VINA RESULT:      -6.5      1.515      2.132
REMARK  Name = 
REMARK  8 active torsions:
REMARK  status: ('A' for Active; 'I' for Inactive)
REMARK    1  A    between atoms: C_1  and  C_2
REMARK    2  A    between atoms: C_2  and  C_3
REMARK    3  A    between atoms: C_2  and  N_16
REMARK    4  A    between atoms: N_5  and  C_6
REMARK    5  A    between atoms: C_6  and  C_7
REMARK    6  A    between atoms: C_7  and  C_8
REMARK    7  A    between atoms: C_7  and  C_9
REMARK    8  A    between atoms: C_7  and  N_10
REMARK                            x       y       z     vdW  Elec       q    Type
REMARK                         _______ _______ _______ _____ _____    ______ ____
ROOT
ATOM      1  C   UNL     1       6.215   4.844  18.643  0.00  0.00    +0.000 C 
ATOM      2  O   UNL     1       6.148   5.162  19.835  0.00  0.00    +0.000 OA
ATOM      3  N   UNL     1       5.328   3.942  18.082  0.00  0.00    +0.000 N 
ATOM      4  H   UNL     1       5.275   3.862  17.072  0.00  0.00    +0.000 HD
ENDROOT
BRANCH   1   6
ATOM      5  C   UNL     1       7.789   6.753  18.216  0.00  0.00    +0.000 C 
ATOM      6  C   UNL     1       7.314   5.379  17.737  0.00  0.00    +0.000 C 
BRANCH   6   7
ATOM      7  N   UNL     1       6.883   5.440  16.349  0.00  0.00    +0.000 N 
ATOM      8  C   UNL     1       7.422   4.822  15.262  0.00  0.00    +0.000 A 
ATOM      9  N   UNL     1       6.673   5.050  14.211  0.00  0.00    +0.000 NA
ATOM     10  C   UNL     1       5.663   5.825  14.710  0.00  0.00    +0.000 A 
ATOM     11  N   UNL     1       5.766   6.117  16.010  0.00  0.00    +0.000 NA
ENDBRANCH   6   7
ENDBRANCH   1   6
BRANCH   3  12
ATOM     12  C   UNL     1       4.201   3.436  18.864  0.00  0.00    +0.000 C 
BRANCH  12  13
ATOM     13  C   UNL     1       2.752   3.662  18.268  0.00  0.00    +0.000 C 
ATOM     14  C   UNL     1       2.659   5.164  17.892  0.00  0.00    +0.000 C 
ATOM     15  C   UNL     1       2.564   2.870  16.962  0.00  0.00    +0.000 C 
BRANCH  13  16
ATOM     16  N   UNL     1       1.745   3.349  19.331  0.00  0.00    +0.000 NA
ATOM     17  C   UNL     1       1.330   4.450  20.228  0.00  0.00    +0.000 C 
ATOM     18  C   UNL     1       2.219   4.619  21.464  0.00  0.00    +0.000 C 
ATOM     19  O   UNL     1       2.185   3.432  22.258  0.00  0.00    +0.000 OA
ATOM     20  C   UNL     1       2.658   2.313  21.500  0.00  0.00    +0.000 C 
ATOM     21  C   UNL     1       1.914   2.134  20.158  0.00  0.00    +0.000 C 
ENDBRANCH  13  16
ENDBRANCH  12  13
ENDBRANCH   3  12
TORSDOF 5
ENDMDL
MODEL 7
REMARK VINA RESULT:      -6.4      1.531      2.240
REMARK  Name = 
REMARK  8 active torsions:
REMARK  status: ('A' for Active; 'I' for Inactive)
REMARK    1  A    between atoms: C_1  and  C_2
REMARK    2  A    between atoms: C_2  and  C_3
REMARK    3  A    between atoms: C_2  and  N_16
REMARK    4  A    between atoms: N_5  and  C_6
REMARK    5  A    between atoms: C_6  and  C_7
REMARK    6  A    between atoms: C_7  and  C_8
REMARK    7  A    between atoms: C_7  and  C_9
REMARK    8  A    between atoms: C_7  and  N_10
REMARK                            x       y       z     vdW  Elec       q    Type
REMARK                         _______ _______ _______ _____ _____    ______ ____
ROOT
ATOM      1  C   UNL     1       5.328   5.300  18.455  0.00  0.00    +0.000 C 
ATOM      2  O   UNL     1       4.562   6.154  17.999  0.00  0.00    +0.000 OA
ATOM      3  N   UNL     1       4.956   4.476  19.503  0.00  0.00    +0.000 N 
ATOM      4  H   UNL     1       5.516   3.657  19.714  0.00  0.00    +0.000 HD
ENDROOT
BRANCH   1   6
ATOM      5  C   UNL     1       7.564   6.409  18.186  0.00  0.00    +0.000 C 
ATOM      6  C   UNL     1       6.748   5.141  17.930  0.00  0.00    +0.000 C 
BRANCH   6   7
ATOM      7  N   UNL     1       6.761   4.798  16.516  0.00  0.00    +0.000 N 
ATOM      8  C   UNL     1       6.101   3.793  15.877  0.00  0.00    +0.000 A 
ATOM      9  N   UNL     1       6.296   3.892  14.585  0.00  0.00    +0.000 NA
ATOM     10  C   UNL     1       7.095   4.996  14.473  0.00  0.00    +0.000 A 
ATOM     11  N   UNL     1       7.433   5.568  15.633  0.00  0.00    +0.000 NA
ENDBRANCH   6   7
ENDBRANCH   1   6
BRANCH   3  12
ATOM     12  C   UNL     1       3.588   4.514  20.018  0.00  0.00    +0.000 C 
BRANCH  12  13
ATOM     13  C   UNL     1       2.972   3.149  20.530  0.00  0.00    +0.000 C 
ATOM     14  C   UNL     1       4.160   2.162  20.688  0.00  0.00    +0.000 C 
ATOM     15  C   UNL     1       2.351   3.315  21.928  0.00  0.00    +0.000 C 
BRANCH  13  16
ATOM     16  N   UNL     1       2.027   2.632  19.491  0.00  0.00    +0.000 NA
ATOM     17  C   UNL     1       2.588   1.792  18.410  0.00  0.00    +0.000 C 
ATOM     18  C   UNL     1       3.096   2.583  17.201  0.00  0.00    +0.000 C 
ATOM     19  O   UNL     1       2.024   3.318  16.610  0.00  0.00    +0.000 OA
ATOM     20  C   UNL     1       1.465   4.234  17.559  0.00  0.00    +0.000 C 
ATOM     21  C   UNL     1       1.043   3.553  18.880  0.00  0.00    +0.000 C 
ENDBRANCH  13  16
ENDBRANCH  12  13
ENDBRANCH   3  12
TORSDOF 5
ENDMDL
MODEL 8
REMARK VINA RESULT:      -6.4      1.296      1.554
REMARK  Name = 
REMARK  8 active torsions:
REMARK  status: ('A' for Active; 'I' for Inactive)
REMARK    1  A    between atoms: C_1  and  C_2
REMARK    2  A    between atoms: C_2  and  C_3
REMARK    3  A    between atoms: C_2  and  N_16
REMARK    4  A    between atoms: N_5  and  C_6
REMARK    5  A    between atoms: C_6  and  C_7
REMARK    6  A    between atoms: C_7  and  C_8
REMARK    7  A    between atoms: C_7  and  C_9
REMARK    8  A    between atoms: C_7  and  N_10
REMARK                            x       y       z     vdW  Elec       q    Type
REMARK                         _______ _______ _______ _____ _____    ______ ____
ROOT
ATOM      1  C   UNL     1       5.697   4.462  18.948  0.00  0.00    +0.000 C 
ATOM      2  O   UNL     1       5.523   3.334  19.418  0.00  0.00    +0.000 OA
ATOM      3  N   UNL     1       4.767   5.472  19.122  0.00  0.00    +0.000 N 
ATOM      4  H   UNL     1       5.028   6.429  18.910  0.00  0.00    +0.000 HD
ENDROOT
BRANCH   1   6
ATOM      5  C   UNL     1       7.624   6.042  18.635  0.00  0.00    +0.000 C 
ATOM      6  C   UNL     1       6.918   4.793  18.102  0.00  0.00    +0.000 C 
BRANCH   6   7
ATOM      7  N   UNL     1       6.571   4.958  16.699  0.00  0.00    +0.000 N 
ATOM      8  C   UNL     1       5.990   6.025  16.086  0.00  0.00    +0.000 A 
ATOM      9  N   UNL     1       5.945   5.819  14.793  0.00  0.00    +0.000 NA
ATOM     10  C   UNL     1       6.525   4.588  14.654  0.00  0.00    +0.000 A 
ATOM     11  N   UNL     1       6.896   4.007  15.799  0.00  0.00    +0.000 NA
ENDBRANCH   6   7
ENDBRANCH   1   6
BRANCH   3  12
ATOM     12  C   UNL     1       3.603   5.259  19.979  0.00  0.00    +0.000 C 
BRANCH  12  13
ATOM     13  C   UNL     1       2.215   5.818  19.461  0.00  0.00    +0.000 C 
ATOM     14  C   UNL     1       1.614   6.650  20.625  0.00  0.00    +0.000 C 
ATOM     15  C   UNL     1       2.417   6.791  18.285  0.00  0.00    +0.000 C 
BRANCH  13  16
ATOM     16  N   UNL     1       1.317   4.660  19.158  0.00  0.00    +0.000 NA
ATOM     17  C   UNL     1       1.035   3.706  20.253  0.00  0.00    +0.000 C 
ATOM     18  C   UNL     1       2.054   2.568  20.370  0.00  0.00    +0.000 C 
ATOM     19  O   UNL     1       2.066   1.795  19.169  0.00  0.00    +0.000 OA
ATOM     20  C   UNL     1       2.420   2.617  18.052  0.00  0.00    +0.000 C 
ATOM     21  C   UNL     1       1.533   3.876  17.922  0.00  0.00    +0.000 C 
ENDBRANCH  13  16
ENDBRANCH  12  13
ENDBRANCH   3  12
TORSDOF 5
ENDMDL
MODEL 9
REMARK VINA RESULT:      -6.4      1.623      6.066
REMARK  Name = 
REMARK  8 active torsions:
REMARK  status: ('A' for Active; 'I' for Inactive)
REMARK    1  A    between atoms: C_1  and  C_2
REMARK    2  A    between atoms: C_2  and  C_3
REMARK    3  A    between atoms: C_2  and  N_16
REMARK    4  A    between atoms: N_5  and  C_6
REMARK    5  A    between atoms: C_6  and  C_7
REMARK    6  A    between atoms: C_7  and  C_8
REMARK    7  A    between atoms: C_7  and  C_9
REMARK    8  A    between atoms: C_7  and  N_10
REMARK                            x       y       z     vdW  Elec       q    Type
REMARK                         _______ _______ _______ _____ _____    ______ ____
ROOT
ATOM      1  C   UNL     1       2.821   4.059  17.837  0.00  0.00    +0.000 C 
ATOM      2  O   UNL     1       2.373   3.393  16.898  0.00  0.00    +0.000 OA
ATOM      3  N   UNL     1       4.168   4.362  17.933  0.00  0.00    +0.000 N 
ATOM      4  H   UNL     1       4.470   5.076  18.589  0.00  0.00    +0.000 HD
ENDROOT
BRANCH   1   6
ATOM      5  C   UNL     1       2.217   6.001  19.309  0.00  0.00    +0.000 C 
ATOM      6  C   UNL     1       1.928   4.537  18.972  0.00  0.00    +0.000 C 
BRANCH   6   7
ATOM      7  N   UNL     1       2.068   3.700  20.154  0.00  0.00    +0.000 N 
ATOM      8  C   UNL     1       1.111   3.312  21.041  0.00  0.00    +0.000 A 
ATOM      9  N   UNL     1       1.627   2.473  21.905  0.00  0.00    +0.000 NA
ATOM     10  C   UNL     1       2.929   2.370  21.499  0.00  0.00    +0.000 A 
ATOM     11  N   UNL     1       3.255   3.129  20.449  0.00  0.00    +0.000 NA
ENDBRANCH   6   7
ENDBRANCH   1   6
BRANCH   3  12
ATOM     12  C   UNL     1       5.082   4.003  16.851  0.00  0.00    +0.000 C 
BRANCH  12  13
ATOM     13  C   UNL     1       5.702   5.191  16.007  0.00  0.00    +0.000 C 
ATOM     14  C   UNL     1       5.635   4.755  14.519  0.00  0.00    +0.000 C 
ATOM     15  C   UNL     1       4.842   6.462  16.130  0.00  0.00    +0.000 C 
BRANCH  13  16
ATOM     16  N   UNL     1       7.131   5.370  16.413  0.00  0.00    +0.000 NA
ATOM     17  C   UNL     1       7.601   4.639  17.611  0.00  0.00    +0.000 C 
ATOM     18  C   UNL     1       7.389   5.393  18.927  0.00  0.00    +0.000 C 
ATOM     19  O   UNL     1       8.113   6.624  18.910  0.00  0.00    +0.000 OA
ATOM     20  C   UNL     1       7.665   7.449  17.828  0.00  0.00    +0.000 C 
ATOM     21  C   UNL     1       7.709   6.731  16.461  0.00  0.00    +0.000 C 
ENDBRANCH  13  16
ENDBRANCH  12  13
ENDBRANCH   3  12
TORSDOF 5
ENDMDL
