MODEL 1
REMARK VINA RESULT:      -8.0      0.000      0.000
REMARK  Name = 
REMARK  9 active torsions:
REMARK  status: ('A' for Active; 'I' for Inactive)
REMARK    1  A    between atoms: C_1  and  C_2
REMARK    2  A    between atoms: C_2  and  C_3
REMARK    3  A    between atoms: C_3  and  C_4
REMARK    4  A    between atoms: N_6  and  C_7
REMARK    5  A    between atoms: N_10  and  C_11
REMARK    6  A    between atoms: C_11  and  C_12
REMARK    7  A    between atoms: C_12  and  C_13
REMARK    8  A    between atoms: C_21  and  C_22
REMARK    9  A    between atoms: C_23  and  C_24
REMARK                            x       y       z     vdW  Elec       q    Type
REMARK                         _______ _______ _______ _____ _____    ______ ____
ROOT
ATOM      1  C   UNL     1       3.310   3.759  17.580  0.00  0.00    +0.000 A 
ATOM      2  N   UNL     1       4.462   3.230  17.152  0.00  0.00    +0.000 NA
ATOM      3  N   UNL     1       5.257   4.312  16.957  0.00  0.00    +0.000 N 
ATOM      4  C   UNL     1       6.618   4.089  16.524  0.00  0.00    +0.000 C 
ATOM      5  C   UNL     1       4.645   5.512  17.223  0.00  0.00    +0.000 A 
ATOM      6  C   UNL     1       5.025   6.851  17.242  0.00  0.00    +0.000 A 
ATOM      7  N   UNL     1       6.312   7.264  16.948  0.00  0.00    +0.000 N 
ATOM      8  N   UNL     1       4.078   7.745  17.635  0.00  0.00    +0.000 NA
ATOM      9  C   UNL     1       2.841   7.310  17.973  0.00  0.00    +0.000 A 
ATOM     10  N   UNL     1       2.433   6.045  18.002  0.00  0.00    +0.000 NA
ATOM     11  C   UNL     1       3.371   5.164  17.628  0.00  0.00    +0.000 A 
ATOM     12  H   UNL     1       6.738   6.880  16.116  0.00  0.00    +0.000 HD
ENDROOT
BRANCH   9  13
ATOM     13  C   UNL     1       1.807   8.272  18.359  0.00  0.00    +0.000 C 
ATOM     14  C   UNL     1       1.773   9.570  18.047  0.00  0.00    +0.000 C 
BRANCH  14  15
ATOM     15  C   UNL     1       0.706  10.398  18.495  0.00  0.00    +0.000 A 
ATOM     16  C   UNL     1      -0.663  10.226  18.315  0.00  0.00    +0.000 A 
ATOM     17  C   UNL     1      -1.330  11.309  18.938  0.00  0.00    +0.000 A 
ATOM     18  C   UNL     1      -0.345  12.097  19.470  0.00  0.00    +0.000 A 
ATOM     19  O   UNL     1       0.877  11.563  19.213  0.00  0.00    +0.000 OA
ENDBRANCH  14  15
ENDBRANCH   9  13
BRANCH   1  20
ATOM     20  C   UNL     1       2.137   2.918  17.963  0.00  0.00    +0.000 C 
BRANCH  20  22
ATOM     21  C   UNL     1       1.121   3.207  20.276  0.00  0.00    +0.000 C 
ATOM     22  C   UNL     1       2.156   2.481  19.431  0.00  0.00    +0.000 C 
ENDBRANCH  20  22
ENDBRANCH   1  20
BRANCH   7  23
ATOM     23  C   UNL     1       6.737   8.577  17.415  0.00  0.00    +0.000 C 
BRANCH  23  24
ATOM     24  C   UNL     1       8.157   8.501  17.989  0.00  0.00    +0.000 C 
BRANCH  24  25
ATOM     25  C   UNL     1       8.701   9.851  18.390  0.00  0.00    +0.000 A 
ATOM     26  C   UNL     1       8.488  10.973  17.576  0.00  0.00    +0.000 A 
ATOM     27  C   UNL     1       8.977  12.225  17.952  0.00  0.00    +0.000 A 
ATOM     28  C   UNL     1       9.689  12.360  19.142  0.00  0.00    +0.000 A 
ATOM     29 CL   UNL     1      10.282  13.907  19.612  0.00  0.00    +0.000 Cl
ATOM     30  C   UNL     1       9.921  11.254  19.955  0.00  0.00    +0.000 A 
ATOM     31  C   UNL     1       9.430  10.000  19.578  0.00  0.00    +0.000 A 
ENDBRANCH  24  25
ENDBRANCH  23  24
ENDBRANCH   7  23
TORSDOF 7
ENDMDL
MODEL 2
REMARK VINA RESULT:      -7.9      4.840      7.785
REMARK  Name = 
REMARK  9 active torsions:
REMARK  status: ('A' for Active; 'I' for Inactive)
REMARK    1  A    between atoms: C_1  and  C_2
REMARK    2  A    between atoms: C_2  and  C_3
REMARK    3  A    between atoms: C_3  and  C_4
REMARK    4  A    between atoms: N_6  and  C_7
REMARK    5  A    between atoms: N_10  and  C_11
REMARK    6  A    between atoms: C_11  and  C_12
REMARK    7  A    between atoms: C_12  and  C_13
REMARK    8  A    between atoms: C_21  and  C_22
REMARK    9  A    between atoms: C_23  and  C_24
REMARK                            x       y       z     vdW  Elec       q    Type
REMARK                         _______ _______ _______ _____ _____    ______ ____
ROOT
ATOM      1  C   UNL     1       2.984   3.973  19.891  0.00  0.00    +0.000 A 
ATOM      2  N   UNL     1       2.192   4.491  20.837  0.00  0.00    +0.000 NA
ATOM      3  N   UNL     1       2.065   5.791  20.470  0.00  0.00    +0.000 N 
ATOM      4  C   UNL     1       1.220   6.646  21.272  0.00  0.00    +0.000 C 
ATOM      5  C   UNL     1       2.766   6.124  19.337  0.00  0.00    +0.000 A 
ATOM      6  C   UNL     1       2.911   7.258  18.544  0.00  0.00    +0.000 A 
ATOM      7  N   UNL     1       2.251   8.444  18.811  0.00  0.00    +0.000 N 
ATOM      8  N   UNL     1       3.689   7.127  17.436  0.00  0.00    +0.000 NA
ATOM      9  C   UNL     1       4.279   5.940  17.164  0.00  0.00    +0.000 A 
ATOM     10  N   UNL     1       4.152   4.819  17.868  0.00  0.00    +0.000 NA
ATOM     11  C   UNL     1       3.373   4.945  18.952  0.00  0.00    +0.000 A 
ATOM     12  H   UNL     1       2.282   8.782  19.763  0.00  0.00    +0.000 HD
ENDROOT
BRANCH   9  13
ATOM     13  C   UNL     1       5.149   5.805  15.994  0.00  0.00    +0.000 C 
ATOM     14  C   UNL     1       5.506   4.665  15.397  0.00  0.00    +0.000 C 
BRANCH  14  15
ATOM     15  C   UNL     1       6.368   4.676  14.264  0.00  0.00    +0.000 A 
ATOM     16  C   UNL     1       6.305   3.894  13.115  0.00  0.00    +0.000 A 
ATOM     17  C   UNL     1       7.379   4.263  12.269  0.00  0.00    +0.000 A 
ATOM     18  C   UNL     1       8.055   5.251  12.935  0.00  0.00    +0.000 A 
ATOM     19  O   UNL     1       7.459   5.508  14.129  0.00  0.00    +0.000 OA
ENDBRANCH  14  15
ENDBRANCH   9  13
BRANCH   1  20
ATOM     20  C   UNL     1       3.367   2.530  19.870  0.00  0.00    +0.000 C 
BRANCH  20  22
ATOM     21  C   UNL     1       1.180   2.088  18.649  0.00  0.00    +0.000 C 
ATOM     22  C   UNL     1       2.653   1.727  18.778  0.00  0.00    +0.000 C 
ENDBRANCH  20  22
ENDBRANCH   1  20
BRANCH   7  23
ATOM     23  C   UNL     1       2.096   9.405  17.728  0.00  0.00    +0.000 C 
BRANCH  23  24
ATOM     24  C   UNL     1       1.749  10.788  18.292  0.00  0.00    +0.000 C 
BRANCH  24  25
ATOM     25  C   UNL     1       0.261  11.018  18.408  0.00  0.00    +0.000 A 
ATOM     26  C   UNL     1      -0.233  12.240  18.888  0.00  0.00    +0.000 A 
ATOM     27  C   UNL     1      -1.609  12.460  18.983  0.00  0.00    +0.000 A 
ATOM     28  C   UNL     1      -2.497  11.456  18.605  0.00  0.00    +0.000 A 
ATOM     29 CL   UNL     1      -4.193  11.732  18.710  0.00  0.00    +0.000 Cl
ATOM     30  C   UNL     1      -2.023  10.233  18.139  0.00  0.00    +0.000 A 
ATOM     31  C   UNL     1      -0.645  10.012  18.044  0.00  0.00    +0.000 A 
ENDBRANCH  24  25
ENDBRANCH  23  24
ENDBRANCH   7  23
TORSDOF 7
ENDMDL
MODEL 3
REMARK VINA RESULT:      -7.8      0.678      1.176
REMARK  Name = 
REMARK  9 active torsions:
REMARK  status: ('A' for Active; 'I' for Inactive)
REMARK    1  A    between atoms: C_1  and  C_2
REMARK    2  A    between atoms: C_2  and  C_3
REMARK    3  A    between atoms: C_3  and  C_4
REMARK    4  A    between atoms: N_6  and  C_7
REMARK    5  A    between atoms: N_10  and  C_11
REMARK    6  A    between atoms: C_11  and  C_12
REMARK    7  A    between atoms: C_12  and  C_13
REMARK    8  A    between atoms: C_21  and  C_22
REMARK    9  A    between atoms: C_23  and  C_24
REMARK                            x       y       z     vdW  Elec       q    Type
REMARK                         _______ _______ _______ _____ _____    ______ ____
ROOT
ATOM      1  C   UNL     1       3.458   3.899  17.583  0.00  0.00    +0.000 A 
ATOM      2  N   UNL     1       4.628   3.343  17.243  0.00  0.00    +0.000 NA
ATOM      3  N   UNL     1       5.446   4.411  17.059  0.00  0.00    +0.000 N 
ATOM      4  C   UNL     1       6.827   4.159  16.716  0.00  0.00    +0.000 C 
ATOM      5  C   UNL     1       4.833   5.625  17.247  0.00  0.00    +0.000 A 
ATOM      6  C   UNL     1       5.227   6.959  17.243  0.00  0.00    +0.000 A 
ATOM      7  N   UNL     1       6.534   7.349  17.013  0.00  0.00    +0.000 N 
ATOM      8  N   UNL     1       4.269   7.876  17.548  0.00  0.00    +0.000 NA
ATOM      9  C   UNL     1       3.010   7.466  17.826  0.00  0.00    +0.000 A 
ATOM     10  N   UNL     1       2.585   6.206  17.874  0.00  0.00    +0.000 NA
ATOM     11  C   UNL     1       3.533   5.303  17.587  0.00  0.00    +0.000 A 
ATOM     12  H   UNL     1       7.005   6.932  16.221  0.00  0.00    +0.000 HD
ENDROOT
BRANCH   9  13
ATOM     13  C   UNL     1       1.966   8.450  18.116  0.00  0.00    +0.000 C 
ATOM     14  C   UNL     1       1.569   8.854  19.326  0.00  0.00    +0.000 C 
BRANCH  14  15
ATOM     15  C   UNL     1       0.533   9.819  19.467  0.00  0.00    +0.000 A 
ATOM     16  C   UNL     1       0.089  10.457  20.621  0.00  0.00    +0.000 A 
ATOM     17  C   UNL     1      -0.965  11.333  20.265  0.00  0.00    +0.000 A 
ATOM     18  C   UNL     1      -1.124  11.193  18.912  0.00  0.00    +0.000 A 
ATOM     19  O   UNL     1      -0.233  10.292  18.423  0.00  0.00    +0.000 OA
ENDBRANCH  14  15
ENDBRANCH   9  13
BRANCH   1  20
ATOM     20  C   UNL     1       2.255   3.083  17.924  0.00  0.00    +0.000 C 
BRANCH  20  22
ATOM     21  C   UNL     1       1.115   3.638  20.128  0.00  0.00    +0.000 C 
ATOM     22  C   UNL     1       2.139   2.765  19.418  0.00  0.00    +0.000 C 
ENDBRANCH  20  22
ENDBRANCH   1  20
BRANCH   7  23
ATOM     23  C   UNL     1       6.947   8.673  17.459  0.00  0.00    +0.000 C 
BRANCH  23  24
ATOM     24  C   UNL     1       8.336   8.606  18.105  0.00  0.00    +0.000 C 
BRANCH  24  25
ATOM     25  C   UNL     1       8.841   9.956  18.553  0.00  0.00    +0.000 A 
ATOM     26  C   UNL     1       9.389  10.120  19.834  0.00  0.00    +0.000 A 
ATOM     27  C   UNL     1       9.870  11.364  20.245  0.00  0.00    +0.000 A 
ATOM     28  C   UNL     1       9.801  12.453  19.380  0.00  0.00    +0.000 A 
ATOM     29 CL   UNL     1      10.406  13.985  19.882  0.00  0.00    +0.000 Cl
ATOM     30  C   UNL     1       9.248  12.310  18.110  0.00  0.00    +0.000 A 
ATOM     31  C   UNL     1       8.765  11.064  17.698  0.00  0.00    +0.000 A 
ENDBRANCH  24  25
ENDBRANCH  23  24
ENDBRANCH   7  23
TORSDOF 7
ENDMDL
MODEL 4
REMARK VINA RESULT:      -7.6      4.636      7.466
REMARK  Name = 
REMARK  9 active torsions:
REMARK  status: ('A' for Active; 'I' for Inactive)
REMARK    1  A    between atoms: C_1  and  C_2
REMARK    2  A    between atoms: C_2  and  C_3
REMARK    3  A    between atoms: C_3  and  C_4
REMARK    4  A    between atoms: N_6  and  C_7
REMARK    5  A    between atoms: N_10  and  C_11
REMARK    6  A    between atoms: C_11  and  C_12
REMARK    7  A    between atoms: C_12  and  C_13
REMARK    8  A    between atoms: C_21  and  C_22
REMARK    9  A    between atoms: C_23  and  C_24
REMARK                            x       y       z     vdW  Elec       q    Type
REMARK                         _______ _______ _______ _____ _____    ______ ____
ROOT
ATOM      1  C   UNL     1       2.928   4.302  20.015  0.00  0.00    +0.000 A 
ATOM      2  N   UNL     1       2.131   4.853  20.938  0.00  0.00    +0.000 NA
ATOM      3  N   UNL     1       1.990   6.134  20.513  0.00  0.00    +0.000 N 
ATOM      4  C   UNL     1       1.135   7.015  21.276  0.00  0.00    +0.000 C 
ATOM      5  C   UNL     1       2.686   6.424  19.366  0.00  0.00    +0.000 A 
ATOM      6  C   UNL     1       2.819   7.522  18.522  0.00  0.00    +0.000 A 
ATOM      7  N   UNL     1       2.147   8.712  18.736  0.00  0.00    +0.000 N 
ATOM      8  N   UNL     1       3.599   7.351  17.420  0.00  0.00    +0.000 NA
ATOM      9  C   UNL     1       4.202   6.158  17.202  0.00  0.00    +0.000 A 
ATOM     10  N   UNL     1       4.087   5.069  17.956  0.00  0.00    +0.000 NA
ATOM     11  C   UNL     1       3.307   5.235  19.033  0.00  0.00    +0.000 A 
ATOM     12  H   UNL     1       2.175   9.092  19.672  0.00  0.00    +0.000 HD
ENDROOT
BRANCH   9  13
ATOM     13  C   UNL     1       5.073   5.980  16.039  0.00  0.00    +0.000 C 
ATOM     14  C   UNL     1       5.522   4.820  15.553  0.00  0.00    +0.000 C 
BRANCH  14  15
ATOM     15  C   UNL     1       6.372   4.790  14.412  0.00  0.00    +0.000 A 
ATOM     16  C   UNL     1       6.274   3.996  13.274  0.00  0.00    +0.000 A 
ATOM     17  C   UNL     1       7.350   4.321  12.413  0.00  0.00    +0.000 A 
ATOM     18  C   UNL     1       8.063   5.296  13.060  0.00  0.00    +0.000 A 
ATOM     19  O   UNL     1       7.488   5.586  14.256  0.00  0.00    +0.000 OA
ENDBRANCH  14  15
ENDBRANCH   9  13
BRANCH   1  20
ATOM     20  C   UNL     1       3.326   2.864  20.059  0.00  0.00    +0.000 C 
BRANCH  20  22
ATOM     21  C   UNL     1       2.413   2.068  17.823  0.00  0.00    +0.000 C 
ATOM     22  C   UNL     1       2.341   1.938  19.337  0.00  0.00    +0.000 C 
ENDBRANCH  20  22
ENDBRANCH   1  20
BRANCH   7  23
ATOM     23  C   UNL     1       1.982   9.622  17.611  0.00  0.00    +0.000 C 
BRANCH  23  24
ATOM     24  C   UNL     1       1.981  11.075  18.101  0.00  0.00    +0.000 C 
BRANCH  24  25
ATOM     25  C   UNL     1       0.872  11.363  19.085  0.00  0.00    +0.000 A 
ATOM     26  C   UNL     1       1.171  11.818  20.378  0.00  0.00    +0.000 A 
ATOM     27  C   UNL     1       0.147  12.098  21.285  0.00  0.00    +0.000 A 
ATOM     28  C   UNL     1      -1.181  11.918  20.906  0.00  0.00    +0.000 A 
ATOM     29 CL   UNL     1      -2.444  12.275  22.020  0.00  0.00    +0.000 Cl
ATOM     30  C   UNL     1      -1.494  11.454  19.631  0.00  0.00    +0.000 A 
ATOM     31  C   UNL     1      -0.469  11.173  18.723  0.00  0.00    +0.000 A 
ENDBRANCH  24  25
ENDBRANCH  23  24
ENDBRANCH   7  23
TORSDOF 7
ENDMDL
MODEL 5
REMARK VINA RESULT:      -7.5      3.145      7.177
REMARK  Name = 
REMARK  9 active torsions:
REMARK  status: ('A' for Active; 'I' for Inactive)
REMARK    1  A    between atoms: C_1  and  C_2
REMARK    2  A    between atoms: C_2  and  C_3
REMARK    3  A    between atoms: C_3  and  C_4
REMARK    4  A    between atoms: N_6  and  C_7
REMARK    5  A    between atoms: N_10  and  C_11
REMARK    6  A    between atoms: C_11  and  C_12
REMARK    7  A    between atoms: C_12  and  C_13
REMARK    8  A    between atoms: C_21  and  C_22
REMARK    9  A    between atoms: C_23  and  C_24
REMARK                            x       y       z     vdW  Elec       q    Type
REMARK                         _______ _______ _______ _____ _____    ______ ____
ROOT
ATOM      1  C   UNL     1       6.945   4.816  14.756  0.00  0.00    +0.000 A 
ATOM      2  N   UNL     1       6.038   3.836  14.663  0.00  0.00    +0.000 NA
ATOM      3  N   UNL     1       5.416   3.862  15.869  0.00  0.00    +0.000 N 
ATOM      4  C   UNL     1       4.329   2.937  16.095  0.00  0.00    +0.000 C 
ATOM      5  C   UNL     1       5.909   4.808  16.733  0.00  0.00    +0.000 A 
ATOM      6  C   UNL     1       5.592   5.265  18.009  0.00  0.00    +0.000 A 
ATOM      7  N   UNL     1       4.537   4.753  18.742  0.00  0.00    +0.000 N 
ATOM      8  N   UNL     1       6.334   6.301  18.484  0.00  0.00    +0.000 NA
ATOM      9  C   UNL     1       7.325   6.823  17.724  0.00  0.00    +0.000 A 
ATOM     10  N   UNL     1       7.652   6.447  16.491  0.00  0.00    +0.000 NA
ATOM     11  C   UNL     1       6.911   5.435  16.019  0.00  0.00    +0.000 A 
ATOM     12  H   UNL     1       4.460   3.746  18.795  0.00  0.00    +0.000 HD
ENDROOT
BRANCH   9  13
ATOM     13  C   UNL     1       8.152   7.912  18.247  0.00  0.00    +0.000 C 
ATOM     14  C   UNL     1       8.169   9.175  17.812  0.00  0.00    +0.000 C 
BRANCH  14  15
ATOM     15  C   UNL     1       9.030  10.138  18.409  0.00  0.00    +0.000 A 
ATOM     16  C   UNL     1       9.349  10.306  19.753  0.00  0.00    +0.000 A 
ATOM     17  C   UNL     1      10.245  11.397  19.862  0.00  0.00    +0.000 A 
ATOM     18  C   UNL     1      10.435  11.852  18.584  0.00  0.00    +0.000 A 
ATOM     19  O   UNL     1       9.715  11.107  17.706  0.00  0.00    +0.000 OA
ENDBRANCH  14  15
ENDBRANCH   9  13
BRANCH   1  20
ATOM     20  C   UNL     1       7.847   5.180  13.624  0.00  0.00    +0.000 C 
BRANCH  20  22
ATOM     21  C   UNL     1       7.711   5.849  11.174  0.00  0.00    +0.000 C 
ATOM     22  C   UNL     1       7.250   4.874  12.247  0.00  0.00    +0.000 C 
ENDBRANCH  20  22
ENDBRANCH   1  20
BRANCH   7  23
ATOM     23  C   UNL     1       4.001   5.558  19.832  0.00  0.00    +0.000 C 
BRANCH  23  24
ATOM     24  C   UNL     1       2.489   5.745  19.659  0.00  0.00    +0.000 C 
BRANCH  24  25
ATOM     25  C   UNL     1       2.099   7.183  19.412  0.00  0.00    +0.000 A 
ATOM     26  C   UNL     1       1.518   7.946  20.436  0.00  0.00    +0.000 A 
ATOM     27  C   UNL     1       1.171   9.280  20.215  0.00  0.00    +0.000 A 
ATOM     28  C   UNL     1       1.396   9.856  18.968  0.00  0.00    +0.000 A 
ATOM     29 CL   UNL     1       0.980  11.505  18.699  0.00  0.00    +0.000 Cl
ATOM     30  C   UNL     1       1.960   9.108  17.937  0.00  0.00    +0.000 A 
ATOM     31  C   UNL     1       2.308   7.772  18.158  0.00  0.00    +0.000 A 
ENDBRANCH  24  25
ENDBRANCH  23  24
ENDBRANCH   7  23
TORSDOF 7
ENDMDL
MODEL 6
REMARK VINA RESULT:      -7.5      5.289      8.891
REMARK  Name = 
REMARK  9 active torsions:
REMARK  status: ('A' for Active; 'I' for Inactive)
REMARK    1  A    between atoms: C_1  and  C_2
REMARK    2  A    between atoms: C_2  and  C_3
REMARK    3  A    between atoms: C_3  and  C_4
REMARK    4  A    between atoms: N_6  and  C_7
REMARK    5  A    between atoms: N_10  and  C_11
REMARK    6  A    between atoms: C_11  and  C_12
REMARK    7  A    between atoms: C_12  and  C_13
REMARK    8  A    between atoms: C_21  and  C_22
REMARK    9  A    between atoms: C_23  and  C_24
REMARK                            x       y       z     vdW  Elec       q    Type
REMARK                         _______ _______ _______ _____ _____    ______ ____
ROOT
ATOM      1  C   UNL     1      -4.731  11.660  17.896  0.00  0.00    +0.000 A 
ATOM      2  N   UNL     1      -4.519  10.942  16.787  0.00  0.00    +0.000 NA
ATOM      3  N   UNL     1      -3.198  10.637  16.852  0.00  0.00    +0.000 N 
ATOM      4  C   UNL     1      -2.636   9.814  15.805  0.00  0.00    +0.000 C 
ATOM      5  C   UNL     1      -2.557  11.154  17.951  0.00  0.00    +0.000 A 
ATOM      6  C   UNL     1      -1.278  11.082  18.493  0.00  0.00    +0.000 A 
ATOM      7  N   UNL     1      -0.263  10.342  17.913  0.00  0.00    +0.000 N 
ATOM      8  N   UNL     1      -1.082  11.726  19.675  0.00  0.00    +0.000 NA
ATOM      9  C   UNL     1      -2.106  12.397  20.253  0.00  0.00    +0.000 A 
ATOM     10  N   UNL     1      -3.353  12.474  19.797  0.00  0.00    +0.000 NA
ATOM     11  C   UNL     1      -3.548  11.827  18.639  0.00  0.00    +0.000 A 
ATOM     12  H   UNL     1      -0.123  10.456  16.918  0.00  0.00    +0.000 HD
ENDROOT
BRANCH   9  13
ATOM     13  C   UNL     1      -1.892  13.124  21.505  0.00  0.00    +0.000 C 
ATOM     14  C   UNL     1      -2.787  13.314  22.477  0.00  0.00    +0.000 C 
BRANCH  14  15
ATOM     15  C   UNL     1      -2.446  14.050  23.647  0.00  0.00    +0.000 A 
ATOM     16  C   UNL     1      -1.227  14.626  23.988  0.00  0.00    +0.000 A 
ATOM     17  C   UNL     1      -1.371  15.252  25.250  0.00  0.00    +0.000 A 
ATOM     18  C   UNL     1      -2.668  15.031  25.630  0.00  0.00    +0.000 A 
ATOM     19  O   UNL     1      -3.322  14.314  24.679  0.00  0.00    +0.000 OA
ENDBRANCH  14  15
ENDBRANCH   9  13
BRANCH   1  20
ATOM     20  C   UNL     1      -6.079  12.183  18.265  0.00  0.00    +0.000 C 
BRANCH  20  22
ATOM     21  C   UNL     1      -7.222  11.028  20.221  0.00  0.00    +0.000 C 
ATOM     22  C   UNL     1      -7.055  11.089  18.711  0.00  0.00    +0.000 C 
ENDBRANCH  20  22
ENDBRANCH   1  20
BRANCH   7  23
ATOM     23  C   UNL     1       0.870   9.956  18.743  0.00  0.00    +0.000 C 
BRANCH  23  24
ATOM     24  C   UNL     1       2.014   9.431  17.868  0.00  0.00    +0.000 C 
BRANCH  24  25
ATOM     25  C   UNL     1       2.516   8.077  18.307  0.00  0.00    +0.000 A 
ATOM     26  C   UNL     1       2.048   7.498  19.496  0.00  0.00    +0.000 A 
ATOM     27  C   UNL     1       2.500   6.239  19.896  0.00  0.00    +0.000 A 
ATOM     28  C   UNL     1       3.426   5.554  19.113  0.00  0.00    +0.000 A 
ATOM     29 CL   UNL     1       3.973   3.996  19.600  0.00  0.00    +0.000 Cl
ATOM     30  C   UNL     1       3.910   6.121  17.936  0.00  0.00    +0.000 A 
ATOM     31  C   UNL     1       3.458   7.382  17.535  0.00  0.00    +0.000 A 
ENDBRANCH  24  25
ENDBRANCH  23  24
ENDBRANCH   7  23
TORSDOF 7
ENDMDL
MODEL 7
REMARK VINA RESULT:      -7.4      4.135      6.815
REMARK  Name = 
REMARK  9 active torsions:
REMARK  status: ('A' for Active; 'I' for Inactive)
REMARK    1  A    between atoms: C_1  and  C_2
REMARK    2  A    between atoms: C_2  and  C_3
REMARK    3  A    between atoms: C_3  and  C_4
REMARK    4  A    between atoms: N_6  and  C_7
REMARK    5  A    between atoms: N_10  and  C_11
REMARK    6  A    between atoms: C_11  and  C_12
REMARK    7  A    between atoms: C_12  and  C_13
REMARK    8  A    between atoms: C_21  and  C_22
REMARK    9  A    between atoms: C_23  and  C_24
REMARK                            x       y       z     vdW  Elec       q    Type
REMARK                         _______ _______ _______ _____ _____    ______ ____
ROOT
ATOM      1  C   UNL     1       2.739   4.214  20.087  0.00  0.00    +0.000 A 
ATOM      2  N   UNL     1       1.956   4.771  21.020  0.00  0.00    +0.000 NA
ATOM      3  N   UNL     1       1.860   6.066  20.623  0.00  0.00    +0.000 N 
ATOM      4  C   UNL     1       1.033   6.958  21.404  0.00  0.00    +0.000 C 
ATOM      5  C   UNL     1       2.570   6.357  19.485  0.00  0.00    +0.000 A 
ATOM      6  C   UNL     1       2.743   7.469  18.666  0.00  0.00    +0.000 A 
ATOM      7  N   UNL     1       2.110   8.675  18.905  0.00  0.00    +0.000 N 
ATOM      8  N   UNL     1       3.520   7.296  17.563  0.00  0.00    +0.000 NA
ATOM      9  C   UNL     1       4.084   6.089  17.320  0.00  0.00    +0.000 A 
ATOM     10  N   UNL     1       3.929   4.988  18.049  0.00  0.00    +0.000 NA
ATOM     11  C   UNL     1       3.152   5.156  19.128  0.00  0.00    +0.000 A 
ATOM     12  H   UNL     1       2.147   9.034  19.850  0.00  0.00    +0.000 HD
ENDROOT
BRANCH   9  13
ATOM     13  C   UNL     1       4.952   5.908  16.156  0.00  0.00    +0.000 C 
ATOM     14  C   UNL     1       5.389   4.746  15.663  0.00  0.00    +0.000 C 
BRANCH  14  15
ATOM     15  C   UNL     1       6.239   4.713  14.522  0.00  0.00    +0.000 A 
ATOM     16  C   UNL     1       6.125   3.934  13.375  0.00  0.00    +0.000 A 
ATOM     17  C   UNL     1       7.208   4.249  12.518  0.00  0.00    +0.000 A 
ATOM     18  C   UNL     1       7.939   5.202  13.176  0.00  0.00    +0.000 A 
ATOM     19  O   UNL     1       7.369   5.489  14.375  0.00  0.00    +0.000 OA
ENDBRANCH  14  15
ENDBRANCH   9  13
BRANCH   1  20
ATOM     20  C   UNL     1       3.088   2.763  20.100  0.00  0.00    +0.000 C 
BRANCH  20  22
ATOM     21  C   UNL     1       0.968   2.233  18.799  0.00  0.00    +0.000 C 
ATOM     22  C   UNL     1       2.460   1.976  18.945  0.00  0.00    +0.000 C 
ENDBRANCH  20  22
ENDBRANCH   1  20
BRANCH   7  23
ATOM     23  C   UNL     1       1.979   9.616  17.800  0.00  0.00    +0.000 C 
BRANCH  23  24
ATOM     24  C   UNL     1       0.792  10.556  18.042  0.00  0.00    +0.000 C 
BRANCH  24  25
ATOM     25  C   UNL     1       1.215  11.979  18.316  0.00  0.00    +0.000 A 
ATOM     26  C   UNL     1       2.549  12.371  18.126  0.00  0.00    +0.000 A 
ATOM     27  C   UNL     1       2.940  13.690  18.365  0.00  0.00    +0.000 A 
ATOM     28  C   UNL     1       2.001  14.622  18.801  0.00  0.00    +0.000 A 
ATOM     29 CL   UNL     1       2.481  16.251  19.082  0.00  0.00    +0.000 Cl
ATOM     30  C   UNL     1       0.676  14.245  19.006  0.00  0.00    +0.000 A 
ATOM     31  C   UNL     1       0.285  12.925  18.767  0.00  0.00    +0.000 A 
ENDBRANCH  24  25
ENDBRANCH  23  24
ENDBRANCH   7  23
TORSDOF 7
ENDMDL
MODEL 8
REMARK VINA RESULT:      -7.4      1.332      1.472
REMARK  Name = 
REMARK  9 active torsions:
REMARK  status: ('A' for Active; 'I' for Inactive)
REMARK    1  A    between atoms: C_1  and  C_2
REMARK    2  A    between atoms: C_2  and  C_3
REMARK    3  A    between atoms: C_3  and  C_4
REMARK    4  A    between atoms: N_6  and  C_7
REMARK    5  A    between atoms: N_10  and  C_11
REMARK    6  A    between atoms: C_11  and  C_12
REMARK    7  A    between atoms: C_12  and  C_13
REMARK    8  A    between atoms: C_21  and  C_22
REMARK    9  A    between atoms: C_23  and  C_24
REMARK                            x       y       z     vdW  Elec       q    Type
REMARK                         _______ _______ _______ _____ _____    ______ ____
ROOT
ATOM      1  C   UNL     1       4.322   4.132  18.587  0.00  0.00    +0.000 A 
ATOM      2  N   UNL     1       5.564   3.637  18.515  0.00  0.00    +0.000 NA
ATOM      3  N   UNL     1       6.305   4.695  18.097  0.00  0.00    +0.000 N 
ATOM      4  C   UNL     1       7.731   4.513  17.953  0.00  0.00    +0.000 C 
ATOM      5  C   UNL     1       5.576   5.838  17.880  0.00  0.00    +0.000 A 
ATOM      6  C   UNL     1       5.855   7.154  17.524  0.00  0.00    +0.000 A 
ATOM      7  N   UNL     1       7.142   7.607  17.296  0.00  0.00    +0.000 N 
ATOM      8  N   UNL     1       4.796   8.007  17.476  0.00  0.00    +0.000 NA
ATOM      9  C   UNL     1       3.553   7.553  17.758  0.00  0.00    +0.000 A 
ATOM     10  N   UNL     1       3.233   6.317  18.132  0.00  0.00    +0.000 NA
ATOM     11  C   UNL     1       4.279   5.481  18.193  0.00  0.00    +0.000 A 
ATOM     12  H   UNL     1       7.728   7.041  16.698  0.00  0.00    +0.000 HD
ENDROOT
BRANCH   9  13
ATOM     13  C   UNL     1       2.405   8.457  17.670  0.00  0.00    +0.000 C 
ATOM     14  C   UNL     1       1.703   8.951  18.693  0.00  0.00    +0.000 C 
BRANCH  14  15
ATOM     15  C   UNL     1       0.599   9.821  18.464  0.00  0.00    +0.000 A 
ATOM     16  C   UNL     1       0.362  11.084  18.997  0.00  0.00    +0.000 A 
ATOM     17  C   UNL     1      -0.867  11.559  18.478  0.00  0.00    +0.000 A 
ATOM     18  C   UNL     1      -1.331  10.568  17.655  0.00  0.00    +0.000 A 
ATOM     19  O   UNL     1      -0.463   9.524  17.636  0.00  0.00    +0.000 OA
ENDBRANCH  14  15
ENDBRANCH   9  13
BRANCH   1  20
ATOM     20  C   UNL     1       3.162   3.315  19.050  0.00  0.00    +0.000 C 
BRANCH  20  22
ATOM     21  C   UNL     1       1.556   4.437  20.671  0.00  0.00    +0.000 C 
ATOM     22  C   UNL     1       2.791   3.562  20.516  0.00  0.00    +0.000 C 
ENDBRANCH  20  22
ENDBRANCH   1  20
BRANCH   7  23
ATOM     23  C   UNL     1       7.392   9.040  17.375  0.00  0.00    +0.000 C 
BRANCH  23  24
ATOM     24  C   UNL     1       8.531   9.326  18.360  0.00  0.00    +0.000 C 
BRANCH  24  25
ATOM     25  C   UNL     1       9.133  10.699  18.179  0.00  0.00    +0.000 A 
ATOM     26  C   UNL     1       8.325  11.785  17.810  0.00  0.00    +0.000 A 
ATOM     27  C   UNL     1       8.877  13.058  17.657  0.00  0.00    +0.000 A 
ATOM     28  C   UNL     1      10.240  13.252  17.865  0.00  0.00    +0.000 A 
ATOM     29 CL   UNL     1      10.918  14.824  17.688  0.00  0.00    +0.000 Cl
ATOM     30  C   UNL     1      11.058  12.181  18.219  0.00  0.00    +0.000 A 
ATOM     31  C   UNL     1      10.506  10.906  18.373  0.00  0.00    +0.000 A 
ENDBRANCH  24  25
ENDBRANCH  23  24
ENDBRANCH   7  23
TORSDOF 7
ENDMDL
MODEL 9
REMARK VINA RESULT:      -7.3      5.247      9.037
REMARK  Name = 
REMARK  9 active torsions:
REMARK  status: ('A' for Active; 'I' for Inactive)
REMARK    1  A    between atoms: C_1  and  C_2
REMARK    2  A    between atoms: C_2  and  C_3
REMARK    3  A    between atoms: C_3  and  C_4
REMARK    4  A    between atoms: N_6  and  C_7
REMARK    5  A    between atoms: N_10  and  C_11
REMARK    6  A    between atoms: C_11  and  C_12
REMARK    7  A    between atoms: C_12  and  C_13
REMARK    8  A    between atoms: C_21  and  C_22
REMARK    9  A    between atoms: C_23  and  C_24
REMARK                            x       y       z     vdW  Elec       q    Type
REMARK                         _______ _______ _______ _____ _____    ______ ____
ROOT
ATOM      1  C   UNL     1      -4.789  11.669  17.567  0.00  0.00    +0.000 A 
ATOM      2  N   UNL     1      -4.556  10.921  16.482  0.00  0.00    +0.000 NA
ATOM      3  N   UNL     1      -3.249  10.576  16.608  0.00  0.00    +0.000 N 
ATOM      4  C   UNL     1      -2.672   9.713  15.602  0.00  0.00    +0.000 C 
ATOM      5  C   UNL     1      -2.638  11.095  17.722  0.00  0.00    +0.000 A 
ATOM      6  C   UNL     1      -1.385  10.993  18.319  0.00  0.00    +0.000 A 
ATOM      7  N   UNL     1      -0.372  10.209  17.796  0.00  0.00    +0.000 N 
ATOM      8  N   UNL     1      -1.217  11.656  19.495  0.00  0.00    +0.000 NA
ATOM      9  C   UNL     1      -2.241  12.372  20.016  0.00  0.00    +0.000 A 
ATOM     10  N   UNL     1      -3.465  12.479  19.507  0.00  0.00    +0.000 NA
ATOM     11  C   UNL     1      -3.633  11.814  18.355  0.00  0.00    +0.000 A 
ATOM     12  H   UNL     1      -0.187  10.298  16.806  0.00  0.00    +0.000 HD
ENDROOT
BRANCH   9  13
ATOM     13  C   UNL     1      -2.054  13.118  21.261  0.00  0.00    +0.000 C 
ATOM     14  C   UNL     1      -2.784  13.003  22.374  0.00  0.00    +0.000 C 
BRANCH  14  15
ATOM     15  C   UNL     1      -2.496  13.799  23.518  0.00  0.00    +0.000 A 
ATOM     16  C   UNL     1      -1.304  14.430  23.861  0.00  0.00    +0.000 A 
ATOM     17  C   UNL     1      -1.500  15.104  25.091  0.00  0.00    +0.000 A 
ATOM     18  C   UNL     1      -2.797  14.855  25.451  0.00  0.00    +0.000 A 
ATOM     19  O   UNL     1      -3.404  14.077  24.517  0.00  0.00    +0.000 OA
ENDBRANCH  14  15
ENDBRANCH   9  13
BRANCH   1  20
ATOM     20  C   UNL     1      -6.134  12.242  17.868  0.00  0.00    +0.000 C 
BRANCH  20  22
ATOM     21  C   UNL     1      -7.062  14.591  17.567  0.00  0.00    +0.000 C 
ATOM     22  C   UNL     1      -6.568  13.328  16.878  0.00  0.00    +0.000 C 
ENDBRANCH  20  22
ENDBRANCH   1  20
BRANCH   7  23
ATOM     23  C   UNL     1       0.713   9.805  18.681  0.00  0.00    +0.000 C 
BRANCH  23  24
ATOM     24  C   UNL     1       1.951   9.423  17.861  0.00  0.00    +0.000 C 
BRANCH  24  25
ATOM     25  C   UNL     1       2.529   8.086  18.259  0.00  0.00    +0.000 A 
ATOM     26  C   UNL     1       3.487   7.458  17.449  0.00  0.00    +0.000 A 
ATOM     27  C   UNL     1       4.034   6.229  17.823  0.00  0.00    +0.000 A 
ATOM     28  C   UNL     1       3.622   5.619  19.006  0.00  0.00    +0.000 A 
ATOM     29 CL   UNL     1       4.306   4.110  19.473  0.00  0.00    +0.000 Cl
ATOM     30  C   UNL     1       2.663   6.224  19.814  0.00  0.00    +0.000 A 
ATOM     31  C   UNL     1       2.115   7.454  19.440  0.00  0.00    +0.000 A 
ENDBRANCH  24  25
ENDBRANCH  23  24
ENDBRANCH   7  23
TORSDOF 7
ENDMDL
