MODEL 1
REMARK VINA RESULT:      -7.6      0.000      0.000
REMARK  Name = 
REMARK  10 active torsions:
REMARK  status: ('A' for Active; 'I' for Inactive)
REMARK    1  A    between atoms: C_2  and  C_3
REMARK    2  A    between atoms: C_3  and  C_4
REMARK    3  A    between atoms: C_3  and  C_5
REMARK    4  A    between atoms: C_3  and  C_6
REMARK    5  A    between atoms: C_18  and  C_19
REMARK    6  A    between atoms: C_19  and  C_20
REMARK    7  A    between atoms: C_19  and  C_21
REMARK    8  A    between atoms: C_19  and  O_22
REMARK    9  A    between atoms: O_22  and  C_23
REMARK   10  A    between atoms: C_23  and  C_24
REMARK                            x       y       z     vdW  Elec       q    Type
REMARK                         _______ _______ _______ _____ _____    ______ ____
ROOT
ATOM      1  C   UNL     1       3.015   5.639  18.643  0.00  0.00    +0.000 A 
ATOM      2  C   UNL     1       2.868   6.846  18.060  0.00  0.00    +0.000 A 
ATOM      3  C   UNL     1       2.206   7.962  18.715  0.00  0.00    +0.000 A 
ATOM      4  C   UNL     1       2.095   9.224  18.115  0.00  0.00    +0.000 A 
ATOM      5  C   UNL     1       1.487  10.243  18.834  0.00  0.00    +0.000 A 
ATOM      6  C   UNL     1       1.016  10.016  20.116  0.00  0.00    +0.000 A 
ATOM      7  C   UNL     1       1.084   8.781  20.718  0.00  0.00    +0.000 A 
ATOM      8  C   UNL     1       1.692   7.763  19.994  0.00  0.00    +0.000 A 
ATOM      9  O   UNL     1       1.784   6.508  20.610  0.00  0.00    +0.000 OA
ATOM     10  C   UNL     1       2.414   5.423  20.005  0.00  0.00    +0.000 A 
ATOM     11  O   UNL     1       2.435   4.344  20.586  0.00  0.00    +0.000 OA
ATOM     12  O   UNL     1       0.496  11.115  20.729  0.00  0.00    +0.000 OA
ATOM     13  C   UNL     1       0.554  12.173  19.734  0.00  0.00    +0.000 C 
ATOM     14  C   UNL     1       1.256  11.658  18.461  0.00  0.00    +0.000 C 
ENDROOT
BRANCH   1  15
ATOM     15  C   UNL     1       3.765   4.464  17.968  0.00  0.00    +0.000 C 
ATOM     16  C   UNL     1       4.790   3.754  18.908  0.00  0.00    +0.000 C 
ATOM     17  C   UNL     1       4.615   4.982  16.781  0.00  0.00    +0.000 C 
BRANCH  15  19
ATOM     18  C   UNL     1       2.735   2.124  17.827  0.00  0.00    +0.000 C 
ATOM     19  C   UNL     1       2.766   3.419  17.470  0.00  0.00    +0.000 C 
ENDBRANCH  15  19
ENDBRANCH   1  15
BRANCH  13  20
ATOM     20  C   UNL     1      -0.867  12.769  19.535  0.00  0.00    +0.000 C 
ATOM     21  C   UNL     1      -1.815  12.238  20.656  0.00  0.00    +0.000 C 
ATOM     22  C   UNL     1      -0.726  14.314  19.617  0.00  0.00    +0.000 C 
BRANCH  20  23
ATOM     23  O   UNL     1      -1.442  12.335  18.232  0.00  0.00    +0.000 OA
BRANCH  23  24
ATOM     24  C   UNL     1      -2.476  11.426  18.165  0.00  0.00    +0.000 C 
ATOM     25  C   UNL     1      -2.066  10.005  17.827  0.00  0.00    +0.000 C 
ATOM     26  O   UNL     1      -3.644  11.691  18.335  0.00  0.00    +0.000 OA
ENDBRANCH  23  24
ENDBRANCH  20  23
ENDBRANCH  13  20
TORSDOF 5
ENDMDL
MODEL 2
REMARK VINA RESULT:      -7.4      0.484      1.157
REMARK  Name = 
REMARK  10 active torsions:
REMARK  status: ('A' for Active; 'I' for Inactive)
REMARK    1  A    between atoms: C_2  and  C_3
REMARK    2  A    between atoms: C_3  and  C_4
REMARK    3  A    between atoms: C_3  and  C_5
REMARK    4  A    between atoms: C_3  and  C_6
REMARK    5  A    between atoms: C_18  and  C_19
REMARK    6  A    between atoms: C_19  and  C_20
REMARK    7  A    between atoms: C_19  and  C_21
REMARK    8  A    between atoms: C_19  and  O_22
REMARK    9  A    between atoms: O_22  and  C_23
REMARK   10  A    between atoms: C_23  and  C_24
REMARK                            x       y       z     vdW  Elec       q    Type
REMARK                         _______ _______ _______ _____ _____    ______ ____
ROOT
ATOM      1  C   UNL     1       2.848   5.228  18.861  0.00  0.00    +0.000 A 
ATOM      2  C   UNL     1       2.776   6.401  18.202  0.00  0.00    +0.000 A 
ATOM      3  C   UNL     1       2.181   7.595  18.780  0.00  0.00    +0.000 A 
ATOM      4  C   UNL     1       2.149   8.821  18.101  0.00  0.00    +0.000 A 
ATOM      5  C   UNL     1       1.602   9.919  18.750  0.00  0.00    +0.000 A 
ATOM      6  C   UNL     1       1.115   9.802  20.041  0.00  0.00    +0.000 A 
ATOM      7  C   UNL     1       1.105   8.605  20.719  0.00  0.00    +0.000 A 
ATOM      8  C   UNL     1       1.652   7.509  20.066  0.00  0.00    +0.000 A 
ATOM      9  O   UNL     1       1.666   6.292  20.761  0.00  0.00    +0.000 OA
ATOM     10  C   UNL     1       2.230   5.135  20.229  0.00  0.00    +0.000 A 
ATOM     11  O   UNL     1       2.184   4.096  20.877  0.00  0.00    +0.000 OA
ATOM     12  O   UNL     1       0.660  10.967  20.580  0.00  0.00    +0.000 OA
ATOM     13  C   UNL     1       0.786  11.955  19.521  0.00  0.00    +0.000 C 
ATOM     14  C   UNL     1       1.458  11.318  18.287  0.00  0.00    +0.000 C 
ENDROOT
BRANCH   1  15
ATOM     15  C   UNL     1       3.527   3.969  18.266  0.00  0.00    +0.000 C 
ATOM     16  C   UNL     1       2.557   2.757  18.097  0.00  0.00    +0.000 C 
ATOM     17  C   UNL     1       4.634   3.456  19.218  0.00  0.00    +0.000 C 
BRANCH  15  19
ATOM     18  C   UNL     1       5.437   4.278  16.590  0.00  0.00    +0.000 C 
ATOM     19  C   UNL     1       4.131   4.293  16.899  0.00  0.00    +0.000 C 
ENDBRANCH  15  19
ENDBRANCH   1  15
BRANCH  13  20
ATOM     20  C   UNL     1      -0.596  12.622  19.274  0.00  0.00    +0.000 C 
ATOM     21  C   UNL     1      -1.604  12.145  20.367  0.00  0.00    +0.000 C 
ATOM     22  C   UNL     1      -0.379  14.158  19.356  0.00  0.00    +0.000 C 
BRANCH  20  23
ATOM     23  O   UNL     1      -1.151  12.211  17.955  0.00  0.00    +0.000 OA
BRANCH  23  24
ATOM     24  C   UNL     1      -2.250  11.384  17.859  0.00  0.00    +0.000 C 
ATOM     25  C   UNL     1      -1.936   9.921  17.610  0.00  0.00    +0.000 C 
ATOM     26  O   UNL     1      -3.401  11.747  17.939  0.00  0.00    +0.000 OA
ENDBRANCH  23  24
ENDBRANCH  20  23
ENDBRANCH  13  20
TORSDOF 5
ENDMDL
MODEL 3
REMARK VINA RESULT:      -7.4      2.634      8.219
REMARK  Name = 
REMARK  10 active torsions:
REMARK  status: ('A' for Active; 'I' for Inactive)
REMARK    1  A    between atoms: C_2  and  C_3
REMARK    2  A    between atoms: C_3  and  C_4
REMARK    3  A    between atoms: C_3  and  C_5
REMARK    4  A    between atoms: C_3  and  C_6
REMARK    5  A    between atoms: C_18  and  C_19
REMARK    6  A    between atoms: C_19  and  C_20
REMARK    7  A    between atoms: C_19  and  C_21
REMARK    8  A    between atoms: C_19  and  O_22
REMARK    9  A    between atoms: O_22  and  C_23
REMARK   10  A    between atoms: C_23  and  C_24
REMARK                            x       y       z     vdW  Elec       q    Type
REMARK                         _______ _______ _______ _____ _____    ______ ____
ROOT
ATOM      1  C   UNL     1       0.079  10.156  19.401  0.00  0.00    +0.000 A 
ATOM      2  C   UNL     1       0.963   9.903  18.416  0.00  0.00    +0.000 A 
ATOM      3  C   UNL     1       1.904   8.796  18.466  0.00  0.00    +0.000 A 
ATOM      4  C   UNL     1       2.792   8.519  17.417  0.00  0.00    +0.000 A 
ATOM      5  C   UNL     1       3.622   7.412  17.533  0.00  0.00    +0.000 A 
ATOM      6  C   UNL     1       3.559   6.600  18.653  0.00  0.00    +0.000 A 
ATOM      7  C   UNL     1       2.720   6.866  19.710  0.00  0.00    +0.000 A 
ATOM      8  C   UNL     1       1.893   7.975  19.591  0.00  0.00    +0.000 A 
ATOM      9  O   UNL     1       1.019   8.238  20.655  0.00  0.00    +0.000 OA
ATOM     10  C   UNL     1       0.109   9.292  20.631  0.00  0.00    +0.000 A 
ATOM     11  O   UNL     1      -0.608   9.484  21.606  0.00  0.00    +0.000 OA
ATOM     12  O   UNL     1       4.385   5.518  18.612  0.00  0.00    +0.000 OA
ATOM     13  C   UNL     1       5.134   5.653  17.373  0.00  0.00    +0.000 C 
ATOM     14  C   UNL     1       4.627   6.878  16.585  0.00  0.00    +0.000 C 
ENDROOT
BRANCH   1  15
ATOM     15  C   UNL     1      -0.958  11.305  19.326  0.00  0.00    +0.000 C 
ATOM     16  C   UNL     1      -1.323  11.909  20.719  0.00  0.00    +0.000 C 
ATOM     17  C   UNL     1      -2.301  10.779  18.762  0.00  0.00    +0.000 C 
BRANCH  15  19
ATOM     18  C   UNL     1      -0.266  13.714  18.803  0.00  0.00    +0.000 C 
ATOM     19  C   UNL     1      -0.431  12.432  18.437  0.00  0.00    +0.000 C 
ENDBRANCH  15  19
ENDBRANCH   1  15
BRANCH  13  20
ATOM     20  C   UNL     1       6.656   5.627  17.687  0.00  0.00    +0.000 C 
ATOM     21  C   UNL     1       7.255   7.051  17.464  0.00  0.00    +0.000 C 
ATOM     22  C   UNL     1       6.804   5.192  19.171  0.00  0.00    +0.000 C 
BRANCH  20  23
ATOM     23  O   UNL     1       7.368   4.701  16.764  0.00  0.00    +0.000 OA
BRANCH  23  24
ATOM     24  C   UNL     1       7.153   4.729  15.404  0.00  0.00    +0.000 C 
ATOM     25  C   UNL     1       6.089   3.773  14.899  0.00  0.00    +0.000 C 
ATOM     26  O   UNL     1       7.752   5.430  14.621  0.00  0.00    +0.000 OA
ENDBRANCH  23  24
ENDBRANCH  20  23
ENDBRANCH  13  20
TORSDOF 5
ENDMDL
MODEL 4
REMARK VINA RESULT:      -7.4      1.189      1.416
REMARK  Name = 
REMARK  10 active torsions:
REMARK  status: ('A' for Active; 'I' for Inactive)
REMARK    1  A    between atoms: C_2  and  C_3
REMARK    2  A    between atoms: C_3  and  C_4
REMARK    3  A    between atoms: C_3  and  C_5
REMARK    4  A    between atoms: C_3  and  C_6
REMARK    5  A    between atoms: C_18  and  C_19
REMARK    6  A    between atoms: C_19  and  C_20
REMARK    7  A    between atoms: C_19  and  C_21
REMARK    8  A    between atoms: C_19  and  O_22
REMARK    9  A    between atoms: O_22  and  C_23
REMARK   10  A    between atoms: C_23  and  C_24
REMARK                            x       y       z     vdW  Elec       q    Type
REMARK                         _______ _______ _______ _____ _____    ______ ____
ROOT
ATOM      1  C   UNL     1       2.739   4.527  19.346  0.00  0.00    +0.000 A 
ATOM      2  C   UNL     1       2.615   5.632  18.584  0.00  0.00    +0.000 A 
ATOM      3  C   UNL     1       2.101   6.891  19.099  0.00  0.00    +0.000 A 
ATOM      4  C   UNL     1       2.015   8.045  18.308  0.00  0.00    +0.000 A 
ATOM      5  C   UNL     1       1.554   9.213  18.898  0.00  0.00    +0.000 A 
ATOM      6  C   UNL     1       1.202   9.235  20.237  0.00  0.00    +0.000 A 
ATOM      7  C   UNL     1       1.247   8.111  21.028  0.00  0.00    +0.000 A 
ATOM      8  C   UNL     1       1.707   6.943  20.434  0.00  0.00    +0.000 A 
ATOM      9  O   UNL     1       1.777   5.800  21.241  0.00  0.00    +0.000 OA
ATOM     10  C   UNL     1       2.267   4.582  20.772  0.00  0.00    +0.000 A 
ATOM     11  O   UNL     1       2.274   3.613  21.522  0.00  0.00    +0.000 OA
ATOM     12  O   UNL     1       0.823  10.458  20.701  0.00  0.00    +0.000 OA
ATOM     13  C   UNL     1       0.851  11.334  19.542  0.00  0.00    +0.000 C 
ATOM     14  C   UNL     1       1.382  10.565  18.316  0.00  0.00    +0.000 C 
ENDROOT
BRANCH   1  15
ATOM     15  C   UNL     1       3.335   3.201  18.812  0.00  0.00    +0.000 C 
ATOM     16  C   UNL     1       4.502   2.644  19.686  0.00  0.00    +0.000 C 
ATOM     17  C   UNL     1       3.961   3.418  17.413  0.00  0.00    +0.000 C 
BRANCH  15  19
ATOM     18  C   UNL     1       0.930   2.353  18.576  0.00  0.00    +0.000 C 
ATOM     19  C   UNL     1       2.246   2.130  18.729  0.00  0.00    +0.000 C 
ENDBRANCH  15  19
ENDBRANCH   1  15
BRANCH  13  20
ATOM     20  C   UNL     1      -0.540  12.007  19.374  0.00  0.00    +0.000 C 
ATOM     21  C   UNL     1      -0.886  12.813  20.665  0.00  0.00    +0.000 C 
ATOM     22  C   UNL     1      -0.441  12.950  18.143  0.00  0.00    +0.000 C 
BRANCH  20  23
ATOM     23  O   UNL     1      -1.604  10.980  19.199  0.00  0.00    +0.000 OA
BRANCH  23  24
ATOM     24  C   UNL     1      -2.216  10.773  17.981  0.00  0.00    +0.000 C 
ATOM     25  C   UNL     1      -3.570  11.436  17.819  0.00  0.00    +0.000 C 
ATOM     26  O   UNL     1      -1.761  10.105  17.081  0.00  0.00    +0.000 OA
ENDBRANCH  23  24
ENDBRANCH  20  23
ENDBRANCH  13  20
TORSDOF 5
ENDMDL
MODEL 5
REMARK VINA RESULT:      -7.3      2.424      8.305
REMARK  Name = 
REMARK  10 active torsions:
REMARK  status: ('A' for Active; 'I' for Inactive)
REMARK    1  A    between atoms: C_2  and  C_3
REMARK    2  A    between atoms: C_3  and  C_4
REMARK    3  A    between atoms: C_3  and  C_5
REMARK    4  A    between atoms: C_3  and  C_6
REMARK    5  A    between atoms: C_18  and  C_19
REMARK    6  A    between atoms: C_19  and  C_20
REMARK    7  A    between atoms: C_19  and  C_21
REMARK    8  A    between atoms: C_19  and  O_22
REMARK    9  A    between atoms: O_22  and  C_23
REMARK   10  A    between atoms: C_23  and  C_24
REMARK                            x       y       z     vdW  Elec       q    Type
REMARK                         _______ _______ _______ _____ _____    ______ ____
ROOT
ATOM      1  C   UNL     1      -0.185  10.837  21.107  0.00  0.00    +0.000 A 
ATOM      2  C   UNL     1       0.413  10.532  19.938  0.00  0.00    +0.000 A 
ATOM      3  C   UNL     1       1.186   9.317  19.741  0.00  0.00    +0.000 A 
ATOM      4  C   UNL     1       1.768   8.991  18.508  0.00  0.00    +0.000 A 
ATOM      5  C   UNL     1       2.450   7.787  18.401  0.00  0.00    +0.000 A 
ATOM      6  C   UNL     1       2.537   6.928  19.484  0.00  0.00    +0.000 A 
ATOM      7  C   UNL     1       2.001   7.236  20.713  0.00  0.00    +0.000 A 
ATOM      8  C   UNL     1       1.322   8.443  20.817  0.00  0.00    +0.000 A 
ATOM      9  O   UNL     1       0.754   8.752  22.060  0.00  0.00    +0.000 OA
ATOM     10  C   UNL     1       0.009   9.910  22.274  0.00  0.00    +0.000 A 
ATOM     11  O   UNL     1      -0.436  10.135  23.394  0.00  0.00    +0.000 OA
ATOM     12  O   UNL     1       3.182   5.757  19.226  0.00  0.00    +0.000 OA
ATOM     13  C   UNL     1       3.641   5.867  17.851  0.00  0.00    +0.000 C 
ATOM     14  C   UNL     1       3.135   7.186  17.233  0.00  0.00    +0.000 C 
ENDROOT
BRANCH   1  15
ATOM     15  C   UNL     1      -1.051  12.106  21.303  0.00  0.00    +0.000 C 
ATOM     16  C   UNL     1      -2.238  11.905  22.297  0.00  0.00    +0.000 C 
ATOM     17  C   UNL     1      -1.723  12.509  19.967  0.00  0.00    +0.000 C 
BRANCH  15  19
ATOM     18  C   UNL     1      -0.557  14.184  22.716  0.00  0.00    +0.000 C 
ATOM     19  C   UNL     1      -0.187  13.260  21.815  0.00  0.00    +0.000 C 
ENDBRANCH  15  19
ENDBRANCH   1  15
BRANCH  13  20
ATOM     20  C   UNL     1       5.178   5.638  17.803  0.00  0.00    +0.000 C 
ATOM     21  C   UNL     1       5.880   6.935  17.293  0.00  0.00    +0.000 C 
ATOM     22  C   UNL     1       5.630   5.298  19.250  0.00  0.00    +0.000 C 
BRANCH  20  23
ATOM     23  O   UNL     1       5.518   4.549  16.846  0.00  0.00    +0.000 OA
BRANCH  23  24
ATOM     24  C   UNL     1       6.745   4.492  16.223  0.00  0.00    +0.000 C 
ATOM     25  C   UNL     1       6.704   4.583  14.709  0.00  0.00    +0.000 C 
ATOM     26  O   UNL     1       7.806   4.361  16.789  0.00  0.00    +0.000 OA
ENDBRANCH  23  24
ENDBRANCH  20  23
ENDBRANCH  13  20
TORSDOF 5
ENDMDL
MODEL 6
REMARK VINA RESULT:      -7.3      1.251      1.834
REMARK  Name = 
REMARK  10 active torsions:
REMARK  status: ('A' for Active; 'I' for Inactive)
REMARK    1  A    between atoms: C_2  and  C_3
REMARK    2  A    between atoms: C_3  and  C_4
REMARK    3  A    between atoms: C_3  and  C_5
REMARK    4  A    between atoms: C_3  and  C_6
REMARK    5  A    between atoms: C_18  and  C_19
REMARK    6  A    between atoms: C_19  and  C_20
REMARK    7  A    between atoms: C_19  and  C_21
REMARK    8  A    between atoms: C_19  and  O_22
REMARK    9  A    between atoms: O_22  and  C_23
REMARK   10  A    between atoms: C_23  and  C_24
REMARK                            x       y       z     vdW  Elec       q    Type
REMARK                         _______ _______ _______ _____ _____    ______ ____
ROOT
ATOM      1  C   UNL     1       3.788   5.337  18.258  0.00  0.00    +0.000 A 
ATOM      2  C   UNL     1       3.491   6.544  17.735  0.00  0.00    +0.000 A 
ATOM      3  C   UNL     1       2.671   7.524  18.429  0.00  0.00    +0.000 A 
ATOM      4  C   UNL     1       2.403   8.790  17.892  0.00  0.00    +0.000 A 
ATOM      5  C   UNL     1       1.649   9.678  18.647  0.00  0.00    +0.000 A 
ATOM      6  C   UNL     1       1.188   9.319  19.903  0.00  0.00    +0.000 A 
ATOM      7  C   UNL     1       1.410   8.073  20.441  0.00  0.00    +0.000 A 
ATOM      8  C   UNL     1       2.164   7.187  19.682  0.00  0.00    +0.000 A 
ATOM      9  O   UNL     1       2.413   5.923  20.234  0.00  0.00    +0.000 OA
ATOM     10  C   UNL     1       3.195   4.967  19.589  0.00  0.00    +0.000 A 
ATOM     11  O   UNL     1       3.351   3.871  20.114  0.00  0.00    +0.000 OA
ATOM     12  O   UNL     1       0.512  10.303  20.559  0.00  0.00    +0.000 OA
ATOM     13  C   UNL     1       0.446  11.413  19.622  0.00  0.00    +0.000 C 
ATOM     14  C   UNL     1       1.236  11.067  18.343  0.00  0.00    +0.000 C 
ENDROOT
BRANCH   1  15
ATOM     15  C   UNL     1       4.703   4.313  17.542  0.00  0.00    +0.000 C 
ATOM     16  C   UNL     1       4.936   4.632  16.032  0.00  0.00    +0.000 C 
ATOM     17  C   UNL     1       4.046   2.910  17.549  0.00  0.00    +0.000 C 
BRANCH  15  19
ATOM     18  C   UNL     1       7.216   4.750  17.760  0.00  0.00    +0.000 C 
ATOM     19  C   UNL     1       6.064   4.248  18.235  0.00  0.00    +0.000 C 
ENDBRANCH  15  19
ENDBRANCH   1  15
BRANCH  13  20
ATOM     20  C   UNL     1      -1.039  11.823  19.416  0.00  0.00    +0.000 C 
ATOM     21  C   UNL     1      -1.568  12.521  20.708  0.00  0.00    +0.000 C 
ATOM     22  C   UNL     1      -1.075  12.798  18.206  0.00  0.00    +0.000 C 
BRANCH  20  23
ATOM     23  O   UNL     1      -1.889  10.623  19.185  0.00  0.00    +0.000 OA
BRANCH  23  24
ATOM     24  C   UNL     1      -2.324  10.278  17.924  0.00  0.00    +0.000 C 
ATOM     25  C   UNL     1      -3.781  10.591  17.636  0.00  0.00    +0.000 C 
ATOM     26  O   UNL     1      -1.645   9.744  17.077  0.00  0.00    +0.000 OA
ENDBRANCH  23  24
ENDBRANCH  20  23
ENDBRANCH  13  20
TORSDOF 5
ENDMDL
MODEL 7
REMARK VINA RESULT:      -7.3      2.025      8.221
REMARK  Name = 
REMARK  10 active torsions:
REMARK  status: ('A' for Active; 'I' for Inactive)
REMARK    1  A    between atoms: C_2  and  C_3
REMARK    2  A    between atoms: C_3  and  C_4
REMARK    3  A    between atoms: C_3  and  C_5
REMARK    4  A    between atoms: C_3  and  C_6
REMARK    5  A    between atoms: C_18  and  C_19
REMARK    6  A    between atoms: C_19  and  C_20
REMARK    7  A    between atoms: C_19  and  C_21
REMARK    8  A    between atoms: C_19  and  O_22
REMARK    9  A    between atoms: O_22  and  C_23
REMARK   10  A    between atoms: C_23  and  C_24
REMARK                            x       y       z     vdW  Elec       q    Type
REMARK                         _______ _______ _______ _____ _____    ______ ____
ROOT
ATOM      1  C   UNL     1       0.432  11.191  20.135  0.00  0.00    +0.000 A 
ATOM      2  C   UNL     1       1.029  10.541  19.116  0.00  0.00    +0.000 A 
ATOM      3  C   UNL     1       1.536   9.184  19.236  0.00  0.00    +0.000 A 
ATOM      4  C   UNL     1       2.118   8.503  18.157  0.00  0.00    +0.000 A 
ATOM      5  C   UNL     1       2.532   7.193  18.353  0.00  0.00    +0.000 A 
ATOM      6  C   UNL     1       2.359   6.575  19.580  0.00  0.00    +0.000 A 
ATOM      7  C   UNL     1       1.818   7.229  20.663  0.00  0.00    +0.000 A 
ATOM      8  C   UNL     1       1.408   8.540  20.465  0.00  0.00    +0.000 A 
ATOM      9  O   UNL     1       0.835   9.204  21.558  0.00  0.00    +0.000 OA
ATOM     10  C   UNL     1       0.342  10.504  21.469  0.00  0.00    +0.000 A 
ATOM     11  O   UNL     1      -0.120  11.037  22.471  0.00  0.00    +0.000 OA
ATOM     12  O   UNL     1       2.754   5.273  19.617  0.00  0.00    +0.000 OA
ATOM     13  C   UNL     1       3.320   5.006  18.305  0.00  0.00    +0.000 C 
ATOM     14  C   UNL     1       3.151   6.243  17.400  0.00  0.00    +0.000 C 
ENDROOT
BRANCH   1  15
ATOM     15  C   UNL     1      -0.154  12.618  19.994  0.00  0.00    +0.000 C 
ATOM     16  C   UNL     1      -1.633  12.736  20.478  0.00  0.00    +0.000 C 
ATOM     17  C   UNL     1      -0.194  13.036  18.503  0.00  0.00    +0.000 C 
BRANCH  15  19
ATOM     18  C   UNL     1       2.032  13.693  20.782  0.00  0.00    +0.000 C 
ATOM     19  C   UNL     1       0.692  13.615  20.787  0.00  0.00    +0.000 C 
ENDBRANCH  15  19
ENDBRANCH   1  15
BRANCH  13  20
ATOM     20  C   UNL     1       4.771   4.475  18.470  0.00  0.00    +0.000 C 
ATOM     21  C   UNL     1       4.774   3.273  19.465  0.00  0.00    +0.000 C 
ATOM     22  C   UNL     1       5.252   4.028  17.062  0.00  0.00    +0.000 C 
BRANCH  20  23
ATOM     23  O   UNL     1       5.654   5.526  19.048  0.00  0.00    +0.000 OA
BRANCH  23  24
ATOM     24  C   UNL     1       6.979   5.635  18.687  0.00  0.00    +0.000 C 
ATOM     25  C   UNL     1       7.315   6.836  17.822  0.00  0.00    +0.000 C 
ATOM     26  O   UNL     1       7.848   4.852  18.992  0.00  0.00    +0.000 OA
ENDBRANCH  23  24
ENDBRANCH  20  23
ENDBRANCH  13  20
TORSDOF 5
ENDMDL
MODEL 8
REMARK VINA RESULT:      -7.3      0.544      1.084
REMARK  Name = 
REMARK  10 active torsions:
REMARK  status: ('A' for Active; 'I' for Inactive)
REMARK    1  A    between atoms: C_2  and  C_3
REMARK    2  A    between atoms: C_3  and  C_4
REMARK    3  A    between atoms: C_3  and  C_5
REMARK    4  A    between atoms: C_3  and  C_6
REMARK    5  A    between atoms: C_18  and  C_19
REMARK    6  A    between atoms: C_19  and  C_20
REMARK    7  A    between atoms: C_19  and  C_21
REMARK    8  A    between atoms: C_19  and  O_22
REMARK    9  A    between atoms: O_22  and  C_23
REMARK   10  A    between atoms: C_23  and  C_24
REMARK                            x       y       z     vdW  Elec       q    Type
REMARK                         _______ _______ _______ _____ _____    ______ ____
ROOT
ATOM      1  C   UNL     1       2.702   5.504  18.936  0.00  0.00    +0.000 A 
ATOM      2  C   UNL     1       2.661   6.668  18.257  0.00  0.00    +0.000 A 
ATOM      3  C   UNL     1       2.080   7.882  18.807  0.00  0.00    +0.000 A 
ATOM      4  C   UNL     1       2.080   9.096  18.108  0.00  0.00    +0.000 A 
ATOM      5  C   UNL     1       1.544  10.214  18.732  0.00  0.00    +0.000 A 
ATOM      6  C   UNL     1       1.037  10.128  20.018  0.00  0.00    +0.000 A 
ATOM      7  C   UNL     1       0.997   8.943  20.715  0.00  0.00    +0.000 A 
ATOM      8  C   UNL     1       1.532   7.826  20.087  0.00  0.00    +0.000 A 
ATOM      9  O   UNL     1       1.514   6.621  20.801  0.00  0.00    +0.000 OA
ATOM     10  C   UNL     1       2.064   5.445  20.296  0.00  0.00    +0.000 A 
ATOM     11  O   UNL     1       1.991   4.418  20.961  0.00  0.00    +0.000 OA
ATOM     12  O   UNL     1       0.597  11.310  20.531  0.00  0.00    +0.000 OA
ATOM     13  C   UNL     1       0.755  12.278  19.458  0.00  0.00    +0.000 C 
ATOM     14  C   UNL     1       1.432  11.609  18.244  0.00  0.00    +0.000 C 
ENDROOT
BRANCH   1  15
ATOM     15  C   UNL     1       3.366   4.224  18.371  0.00  0.00    +0.000 C 
ATOM     16  C   UNL     1       4.152   4.462  17.043  0.00  0.00    +0.000 C 
ATOM     17  C   UNL     1       2.286   3.176  18.004  0.00  0.00    +0.000 C 
BRANCH  15  19
ATOM     18  C   UNL     1       4.395   2.344  19.771  0.00  0.00    +0.000 C 
ATOM     19  C   UNL     1       4.330   3.633  19.399  0.00  0.00    +0.000 C 
ENDBRANCH  15  19
ENDBRANCH   1  15
BRANCH  13  20
ATOM     20  C   UNL     1      -0.611  12.965  19.182  0.00  0.00    +0.000 C 
ATOM     21  C   UNL     1      -1.592  12.662  20.357  0.00  0.00    +0.000 C 
ATOM     22  C   UNL     1      -0.336  14.491  19.071  0.00  0.00    +0.000 C 
BRANCH  20  23
ATOM     23  O   UNL     1      -1.232  12.424  17.941  0.00  0.00    +0.000 OA
BRANCH  23  24
ATOM     24  C   UNL     1      -2.292  11.545  17.987  0.00  0.00    +0.000 C 
ATOM     25  C   UNL     1      -1.927  10.083  17.814  0.00  0.00    +0.000 C 
ATOM     26  O   UNL     1      -3.450  11.863  18.133  0.00  0.00    +0.000 OA
ENDBRANCH  23  24
ENDBRANCH  20  23
ENDBRANCH  13  20
TORSDOF 5
ENDMDL
MODEL 9
REMARK VINA RESULT:      -7.3      2.440      8.177
REMARK  Name = 
REMARK  10 active torsions:
REMARK  status: ('A' for Active; 'I' for Inactive)
REMARK    1  A    between atoms: C_2  and  C_3
REMARK    2  A    between atoms: C_3  and  C_4
REMARK    3  A    between atoms: C_3  and  C_5
REMARK    4  A    between atoms: C_3  and  C_6
REMARK    5  A    between atoms: C_18  and  C_19
REMARK    6  A    between atoms: C_19  and  C_20
REMARK    7  A    between atoms: C_19  and  C_21
REMARK    8  A    between atoms: C_19  and  O_22
REMARK    9  A    between atoms: O_22  and  C_23
REMARK   10  A    between atoms: C_23  and  C_24
REMARK                            x       y       z     vdW  Elec       q    Type
REMARK                         _______ _______ _______ _____ _____    ______ ____
ROOT
ATOM      1  C   UNL     1      -0.140  11.066  21.150  0.00  0.00    +0.000 A 
ATOM      2  C   UNL     1       0.429  10.709  19.981  0.00  0.00    +0.000 A 
ATOM      3  C   UNL     1       1.136   9.452  19.799  0.00  0.00    +0.000 A 
ATOM      4  C   UNL     1       1.688   9.074  18.567  0.00  0.00    +0.000 A 
ATOM      5  C   UNL     1       2.304   7.834  18.476  0.00  0.00    +0.000 A 
ATOM      6  C   UNL     1       2.356   6.990  19.573  0.00  0.00    +0.000 A 
ATOM      7  C   UNL     1       1.850   7.348  20.801  0.00  0.00    +0.000 A 
ATOM      8  C   UNL     1       1.236   8.591  20.889  0.00  0.00    +0.000 A 
ATOM      9  O   UNL     1       0.698   8.951  22.132  0.00  0.00    +0.000 OA
ATOM     10  C   UNL     1       0.017  10.150  22.332  0.00  0.00    +0.000 A 
ATOM     11  O   UNL     1      -0.405  10.417  23.451  0.00  0.00    +0.000 OA
ATOM     12  O   UNL     1       2.936   5.783  19.330  0.00  0.00    +0.000 OA
ATOM     13  C   UNL     1       3.387   5.845  17.949  0.00  0.00    +0.000 C 
ATOM     14  C   UNL     1       2.945   7.178  17.312  0.00  0.00    +0.000 C 
ENDROOT
BRANCH   1  15
ATOM     15  C   UNL     1      -0.936  12.382  21.330  0.00  0.00    +0.000 C 
ATOM     16  C   UNL     1      -1.393  13.025  19.983  0.00  0.00    +0.000 C 
ATOM     17  C   UNL     1      -0.047  13.460  21.998  0.00  0.00    +0.000 C 
BRANCH  15  19
ATOM     18  C   UNL     1      -3.266  12.917  22.248  0.00  0.00    +0.000 C 
ATOM     19  C   UNL     1      -2.177  12.133  22.189  0.00  0.00    +0.000 C 
ENDBRANCH  15  19
ENDBRANCH   1  15
BRANCH  13  20
ATOM     20  C   UNL     1       4.909   5.534  17.892  0.00  0.00    +0.000 C 
ATOM     21  C   UNL     1       5.413   5.145  19.317  0.00  0.00    +0.000 C 
ATOM     22  C   UNL     1       5.093   4.353  16.899  0.00  0.00    +0.000 C 
BRANCH  20  23
ATOM     23  O   UNL     1       5.676   6.737  17.468  0.00  0.00    +0.000 OA
BRANCH  23  24
ATOM     24  C   UNL     1       7.024   6.674  17.190  0.00  0.00    +0.000 C 
ATOM     25  C   UNL     1       7.931   7.253  18.260  0.00  0.00    +0.000 C 
ATOM     26  O   UNL     1       7.503   6.220  16.176  0.00  0.00    +0.000 OA
ENDBRANCH  23  24
ENDBRANCH  20  23
ENDBRANCH  13  20
TORSDOF 5
ENDMDL
