MODEL 1
REMARK VINA RESULT:      -6.1      0.000      0.000
REMARK  Name = 
REMARK  3 active torsions:
REMARK  status: ('A' for Active; 'I' for Inactive)
REMARK    1  A    between atoms: C_2  and  C_3
REMARK    2  A    between atoms: C_3  and  N_4
REMARK    3  A    between atoms: C_12  and  C_13
REMARK                            x       y       z     vdW  Elec       q    Type
REMARK                         _______ _______ _______ _____ _____    ______ ____
ROOT
ATOM      1  N   UNL     1       4.695   4.007  16.172  0.00  0.00    +0.000 NA
ATOM      2  C   UNL     1       4.322   5.424  16.042  0.00  0.00    +0.000 C 
ATOM      3  C   UNL     1       5.104   6.283  17.011  0.00  0.00    +0.000 C 
ATOM      4  C   UNL     1       4.612   7.183  17.871  0.00  0.00    +0.000 C 
ATOM      5  I   UNL     1       2.656   7.677  18.174  0.00  0.00    +0.000 I 
ATOM      6  O   UNL     1       6.491   5.978  17.168  0.00  0.00    +0.000 OA
ATOM      7  C   UNL     1       7.000   4.732  16.882  0.00  0.00    +0.000 C 
ATOM      8  O   UNL     1       8.111   4.405  17.292  0.00  0.00    +0.000 OA
ATOM      9  C   UNL     1       6.166   3.868  15.934  0.00  0.00    +0.000 C 
ENDROOT
BRANCH   9  10
ATOM     10  C   UNL     1       6.577   4.107  14.467  0.00  0.00    +0.000 A 
ATOM     11  C   UNL     1       6.012   3.333  13.436  0.00  0.00    +0.000 A 
ATOM     12  C   UNL     1       6.377   3.533  12.098  0.00  0.00    +0.000 A 
ATOM     13  C   UNL     1       7.297   4.529  11.762  0.00  0.00    +0.000 A 
ATOM     14  C   UNL     1       7.868   5.301  12.763  0.00  0.00    +0.000 A 
ATOM     15  C   UNL     1       7.522   5.086  14.097  0.00  0.00    +0.000 A 
ENDBRANCH   9  10
BRANCH   1  16
ATOM     16  C   UNL     1       4.238   3.550  17.506  0.00  0.00    +0.000 C 
BRANCH  16  18
ATOM     17  C   UNL     1       1.454   3.828  17.887  0.00  0.00    +0.000 C 
ATOM     18  C   UNL     1       2.739   3.700  17.711  0.00  0.00    +0.000 C 
ENDBRANCH  16  18
ENDBRANCH   1  16
TORSDOF 3
ENDMDL
MODEL 2
REMARK VINA RESULT:      -6.1      0.067      1.136
REMARK  Name = 
REMARK  3 active torsions:
REMARK  status: ('A' for Active; 'I' for Inactive)
REMARK    1  A    between atoms: C_2  and  C_3
REMARK    2  A    between atoms: C_3  and  N_4
REMARK    3  A    between atoms: C_12  and  C_13
REMARK                            x       y       z     vdW  Elec       q    Type
REMARK                         _______ _______ _______ _____ _____    ______ ____
ROOT
ATOM      1  N   UNL     1       4.698   3.985  16.160  0.00  0.00    +0.000 NA
ATOM      2  C   UNL     1       4.304   5.398  16.044  0.00  0.00    +0.000 C 
ATOM      3  C   UNL     1       5.075   6.259  17.019  0.00  0.00    +0.000 C 
ATOM      4  C   UNL     1       4.572   7.144  17.888  0.00  0.00    +0.000 C 
ATOM      5  I   UNL     1       2.610   7.606  18.199  0.00  0.00    +0.000 I 
ATOM      6  O   UNL     1       6.467   5.973  17.171  0.00  0.00    +0.000 OA
ATOM      7  C   UNL     1       6.994   4.738  16.872  0.00  0.00    +0.000 C 
ATOM      8  O   UNL     1       8.109   4.422  17.277  0.00  0.00    +0.000 OA
ATOM      9  C   UNL     1       6.171   3.870  15.918  0.00  0.00    +0.000 C 
ENDROOT
BRANCH   9  10
ATOM     10  C   UNL     1       6.575   4.129  14.452  0.00  0.00    +0.000 A 
ATOM     11  C   UNL     1       7.511   5.131  14.139  0.00  0.00    +0.000 A 
ATOM     12  C   UNL     1       7.885   5.383  12.813  0.00  0.00    +0.000 A 
ATOM     13  C   UNL     1       7.349   4.619  11.773  0.00  0.00    +0.000 A 
ATOM     14  C   UNL     1       6.422   3.627  12.060  0.00  0.00    +0.000 A 
ATOM     15  C   UNL     1       6.031   3.392  13.379  0.00  0.00    +0.000 A 
ENDBRANCH   9  10
BRANCH   1  16
ATOM     16  C   UNL     1       4.250   3.509  17.490  0.00  0.00    +0.000 C 
BRANCH  16  18
ATOM     17  C   UNL     1       1.459   3.718  17.868  0.00  0.00    +0.000 C 
ATOM     18  C   UNL     1       2.748   3.622  17.693  0.00  0.00    +0.000 C 
ENDBRANCH  16  18
ENDBRANCH   1  16
TORSDOF 3
ENDMDL
MODEL 3
REMARK VINA RESULT:      -5.8      2.103      3.532
REMARK  Name = 
REMARK  3 active torsions:
REMARK  status: ('A' for Active; 'I' for Inactive)
REMARK    1  A    between atoms: C_2  and  C_3
REMARK    2  A    between atoms: C_3  and  N_4
REMARK    3  A    between atoms: C_12  and  C_13
REMARK                            x       y       z     vdW  Elec       q    Type
REMARK                         _______ _______ _______ _____ _____    ______ ____
ROOT
ATOM      1  N   UNL     1       6.950   4.604  16.848  0.00  0.00    +0.000 NA
ATOM      2  C   UNL     1       5.897   3.598  17.049  0.00  0.00    +0.000 C 
ATOM      3  C   UNL     1       4.569   4.255  17.354  0.00  0.00    +0.000 C 
ATOM      4  C   UNL     1       3.747   3.980  18.374  0.00  0.00    +0.000 C 
ATOM      5  I   UNL     1       4.022   2.609  19.860  0.00  0.00    +0.000 I 
ATOM      6  O   UNL     1       4.234   5.415  16.592  0.00  0.00    +0.000 OA
ATOM      7  C   UNL     1       5.195   6.194  15.989  0.00  0.00    +0.000 C 
ATOM      8  O   UNL     1       4.923   7.325  15.596  0.00  0.00    +0.000 OA
ATOM      9  C   UNL     1       6.543   5.518  15.733  0.00  0.00    +0.000 C 
ENDROOT
BRANCH   9  10
ATOM     10  C   UNL     1       6.565   4.843  14.346  0.00  0.00    +0.000 A 
ATOM     11  C   UNL     1       7.610   5.111  13.442  0.00  0.00    +0.000 A 
ATOM     12  C   UNL     1       7.643   4.511  12.177  0.00  0.00    +0.000 A 
ATOM     13  C   UNL     1       6.644   3.610  11.799  0.00  0.00    +0.000 A 
ATOM     14  C   UNL     1       5.604   3.334  12.674  0.00  0.00    +0.000 A 
ATOM     15  C   UNL     1       5.558   3.950  13.925  0.00  0.00    +0.000 A 
ENDBRANCH   9  10
BRANCH   1  16
ATOM     16  C   UNL     1       7.173   5.277  18.149  0.00  0.00    +0.000 C 
BRANCH  16  18
ATOM     17  C   UNL     1       7.996   7.966  17.887  0.00  0.00    +0.000 C 
ATOM     18  C   UNL     1       7.616   6.725  18.008  0.00  0.00    +0.000 C 
ENDBRANCH  16  18
ENDBRANCH   1  16
TORSDOF 3
ENDMDL
MODEL 4
REMARK VINA RESULT:      -5.8      3.440      6.561
REMARK  Name = 
REMARK  3 active torsions:
REMARK  status: ('A' for Active; 'I' for Inactive)
REMARK    1  A    between atoms: C_2  and  C_3
REMARK    2  A    between atoms: C_3  and  N_4
REMARK    3  A    between atoms: C_12  and  C_13
REMARK                            x       y       z     vdW  Elec       q    Type
REMARK                         _______ _______ _______ _____ _____    ______ ____
ROOT
ATOM      1  N   UNL     1       4.592   6.184  19.073  0.00  0.00    +0.000 NA
ATOM      2  C   UNL     1       4.695   6.311  17.611  0.00  0.00    +0.000 C 
ATOM      3  C   UNL     1       4.072   5.120  16.917  0.00  0.00    +0.000 C 
ATOM      4  C   UNL     1       4.628   4.357  15.967  0.00  0.00    +0.000 C 
ATOM      5  I   UNL     1       6.495   4.532  15.164  0.00  0.00    +0.000 I 
ATOM      6  O   UNL     1       2.840   4.635  17.450  0.00  0.00    +0.000 OA
ATOM      7  C   UNL     1       2.470   4.863  18.756  0.00  0.00    +0.000 C 
ATOM      8  O   UNL     1       1.571   4.205  19.272  0.00  0.00    +0.000 OA
ATOM      9  C   UNL     1       3.149   6.046  19.448  0.00  0.00    +0.000 C 
ENDROOT
BRANCH   9  10
ATOM     10  C   UNL     1       2.336   7.342  19.246  0.00  0.00    +0.000 A 
ATOM     11  C   UNL     1       1.683   7.948  20.335  0.00  0.00    +0.000 A 
ATOM     12  C   UNL     1       0.937   9.122  20.169  0.00  0.00    +0.000 A 
ATOM     13  C   UNL     1       0.847   9.726  18.913  0.00  0.00    +0.000 A 
ATOM     14  C   UNL     1       1.480   9.143  17.825  0.00  0.00    +0.000 A 
ATOM     15  C   UNL     1       2.204   7.961  17.986  0.00  0.00    +0.000 A 
ENDBRANCH   9  10
BRANCH   1  16
ATOM     16  C   UNL     1       5.448   5.044  19.479  0.00  0.00    +0.000 C 
BRANCH  16  18
ATOM     17  C   UNL     1       8.208   5.565  19.193  0.00  0.00    +0.000 C 
ATOM     18  C   UNL     1       6.934   5.325  19.325  0.00  0.00    +0.000 C 
ENDBRANCH  16  18
ENDBRANCH   1  16
TORSDOF 3
ENDMDL
MODEL 5
REMARK VINA RESULT:      -5.7      2.106      3.396
REMARK  Name = 
REMARK  3 active torsions:
REMARK  status: ('A' for Active; 'I' for Inactive)
REMARK    1  A    between atoms: C_2  and  C_3
REMARK    2  A    between atoms: C_3  and  N_4
REMARK    3  A    between atoms: C_12  and  C_13
REMARK                            x       y       z     vdW  Elec       q    Type
REMARK                         _______ _______ _______ _____ _____    ______ ____
ROOT
ATOM      1  N   UNL     1       6.960   4.654  16.895  0.00  0.00    +0.000 NA
ATOM      2  C   UNL     1       5.922   3.629  17.081  0.00  0.00    +0.000 C 
ATOM      3  C   UNL     1       4.579   4.263  17.372  0.00  0.00    +0.000 C 
ATOM      4  C   UNL     1       3.751   3.971  18.382  0.00  0.00    +0.000 C 
ATOM      5  I   UNL     1       4.031   2.601  19.867  0.00  0.00    +0.000 I 
ATOM      6  O   UNL     1       4.234   5.420  16.610  0.00  0.00    +0.000 OA
ATOM      7  C   UNL     1       5.189   6.217  16.021  0.00  0.00    +0.000 C 
ATOM      8  O   UNL     1       4.903   7.345  15.628  0.00  0.00    +0.000 OA
ATOM      9  C   UNL     1       6.551   5.564  15.778  0.00  0.00    +0.000 C 
ENDROOT
BRANCH   9  10
ATOM     10  C   UNL     1       6.600   4.894  14.390  0.00  0.00    +0.000 A 
ATOM     11  C   UNL     1       5.602   3.979  14.005  0.00  0.00    +0.000 A 
ATOM     12  C   UNL     1       5.635   3.358  12.751  0.00  0.00    +0.000 A 
ATOM     13  C   UNL     1       6.655   3.658  11.843  0.00  0.00    +0.000 A 
ATOM     14  C   UNL     1       7.650   4.554  12.204  0.00  0.00    +0.000 A 
ATOM     15  C   UNL     1       7.631   5.155  13.463  0.00  0.00    +0.000 A 
ENDBRANCH   9  10
BRANCH   1  16
ATOM     16  C   UNL     1       7.157   5.326  18.200  0.00  0.00    +0.000 C 
BRANCH  16  18
ATOM     17  C   UNL     1       8.058   7.991  17.957  0.00  0.00    +0.000 C 
ATOM     18  C   UNL     1       7.642   6.761  18.070  0.00  0.00    +0.000 C 
ENDBRANCH  16  18
ENDBRANCH   1  16
TORSDOF 3
ENDMDL
MODEL 6
REMARK VINA RESULT:      -5.7      2.619      4.724
REMARK  Name = 
REMARK  3 active torsions:
REMARK  status: ('A' for Active; 'I' for Inactive)
REMARK    1  A    between atoms: C_2  and  C_3
REMARK    2  A    between atoms: C_3  and  N_4
REMARK    3  A    between atoms: C_12  and  C_13
REMARK                            x       y       z     vdW  Elec       q    Type
REMARK                         _______ _______ _______ _____ _____    ______ ____
ROOT
ATOM      1  N   UNL     1       5.460   5.870  16.699  0.00  0.00    +0.000 NA
ATOM      2  C   UNL     1       4.727   5.923  17.973  0.00  0.00    +0.000 C 
ATOM      3  C   UNL     1       5.054   4.727  18.839  0.00  0.00    +0.000 C 
ATOM      4  C   UNL     1       4.186   3.898  19.432  0.00  0.00    +0.000 C 
ATOM      5  I   UNL     1       2.149   3.958  19.347  0.00  0.00    +0.000 I 
ATOM      6  O   UNL     1       6.422   4.318  18.884  0.00  0.00    +0.000 OA
ATOM      7  C   UNL     1       7.307   4.623  17.875  0.00  0.00    +0.000 C 
ATOM      8  O   UNL     1       8.377   4.028  17.785  0.00  0.00    +0.000 OA
ATOM      9  C   UNL     1       6.929   5.809  16.987  0.00  0.00    +0.000 C 
ENDROOT
BRANCH   9  10
ATOM     10  C   UNL     1       7.498   7.126  17.555  0.00  0.00    +0.000 A 
ATOM     11  C   UNL     1       8.343   7.108  18.680  0.00  0.00    +0.000 A 
ATOM     12  C   UNL     1       8.864   8.294  19.211  0.00  0.00    +0.000 A 
ATOM     13  C   UNL     1       8.571   9.522  18.613  0.00  0.00    +0.000 A 
ATOM     14  C   UNL     1       7.737   9.562  17.505  0.00  0.00    +0.000 A 
ATOM     15  C   UNL     1       7.199   8.383  16.989  0.00  0.00    +0.000 A 
ENDBRANCH   9  10
BRANCH   1  16
ATOM     16  C   UNL     1       4.932   4.717  15.933  0.00  0.00    +0.000 C 
BRANCH  16  18
ATOM     17  C   UNL     1       6.456   4.114  13.633  0.00  0.00    +0.000 C 
ATOM     18  C   UNL     1       5.753   4.392  14.695  0.00  0.00    +0.000 C 
ENDBRANCH  16  18
ENDBRANCH   1  16
TORSDOF 3
ENDMDL
MODEL 7
REMARK VINA RESULT:      -5.7      3.458      6.563
REMARK  Name = 
REMARK  3 active torsions:
REMARK  status: ('A' for Active; 'I' for Inactive)
REMARK    1  A    between atoms: C_2  and  C_3
REMARK    2  A    between atoms: C_3  and  N_4
REMARK    3  A    between atoms: C_12  and  C_13
REMARK                            x       y       z     vdW  Elec       q    Type
REMARK                         _______ _______ _______ _____ _____    ______ ____
ROOT
ATOM      1  N   UNL     1       4.580   6.208  19.098  0.00  0.00    +0.000 NA
ATOM      2  C   UNL     1       4.665   6.328  17.635  0.00  0.00    +0.000 C 
ATOM      3  C   UNL     1       4.039   5.131  16.954  0.00  0.00    +0.000 C 
ATOM      4  C   UNL     1       4.586   4.365  16.002  0.00  0.00    +0.000 C 
ATOM      5  I   UNL     1       6.442   4.543  15.175  0.00  0.00    +0.000 I 
ATOM      6  O   UNL     1       2.815   4.643  17.505  0.00  0.00    +0.000 OA
ATOM      7  C   UNL     1       2.461   4.877  18.814  0.00  0.00    +0.000 C 
ATOM      8  O   UNL     1       1.570   4.218  19.345  0.00  0.00    +0.000 OA
ATOM      9  C   UNL     1       3.143   6.067  19.491  0.00  0.00    +0.000 C 
ENDROOT
BRANCH   9  10
ATOM     10  C   UNL     1       2.322   7.358  19.293  0.00  0.00    +0.000 A 
ATOM     11  C   UNL     1       2.212   7.941  18.017  0.00  0.00    +0.000 A 
ATOM     12  C   UNL     1       1.475   9.116  17.821  0.00  0.00    +0.000 A 
ATOM     13  C   UNL     1       0.811   9.718  18.892  0.00  0.00    +0.000 A 
ATOM     14  C   UNL     1       0.909   9.160  20.159  0.00  0.00    +0.000 A 
ATOM     15  C   UNL     1       1.662   8.004  20.359  0.00  0.00    +0.000 A 
ENDBRANCH   9  10
BRANCH   1  16
ATOM     16  C   UNL     1       5.446   5.074  19.500  0.00  0.00    +0.000 C 
BRANCH  16  18
ATOM     17  C   UNL     1       8.203   5.630  19.245  0.00  0.00    +0.000 C 
ATOM     18  C   UNL     1       6.930   5.373  19.362  0.00  0.00    +0.000 C 
ENDBRANCH  16  18
ENDBRANCH   1  16
TORSDOF 3
ENDMDL
MODEL 8
REMARK VINA RESULT:      -5.7      1.480      1.588
REMARK  Name = 
REMARK  3 active torsions:
REMARK  status: ('A' for Active; 'I' for Inactive)
REMARK    1  A    between atoms: C_2  and  C_3
REMARK    2  A    between atoms: C_3  and  N_4
REMARK    3  A    between atoms: C_12  and  C_13
REMARK                            x       y       z     vdW  Elec       q    Type
REMARK                         _______ _______ _______ _____ _____    ______ ____
ROOT
ATOM      1  N   UNL     1       5.802   4.311  17.043  0.00  0.00    +0.000 NA
ATOM      2  C   UNL     1       4.541   4.979  16.688  0.00  0.00    +0.000 C 
ATOM      3  C   UNL     1       4.600   6.457  17.006  0.00  0.00    +0.000 C 
ATOM      4  C   UNL     1       3.710   7.167  17.710  0.00  0.00    +0.000 C 
ATOM      5  I   UNL     1       2.003   6.495  18.600  0.00  0.00    +0.000 I 
ATOM      6  O   UNL     1       5.816   7.136  16.691  0.00  0.00    +0.000 OA
ATOM      7  C   UNL     1       7.015   6.470  16.579  0.00  0.00    +0.000 C 
ATOM      8  O   UNL     1       8.075   7.089  16.600  0.00  0.00    +0.000 OA
ATOM      9  C   UNL     1       6.925   4.969  16.301  0.00  0.00    +0.000 C 
ENDROOT
BRANCH   9  10
ATOM     10  C   UNL     1       6.906   4.690  14.784  0.00  0.00    +0.000 A 
ATOM     11  C   UNL     1       6.039   3.717  14.251  0.00  0.00    +0.000 A 
ATOM     12  C   UNL     1       6.013   3.448  12.877  0.00  0.00    +0.000 A 
ATOM     13  C   UNL     1       6.836   4.164  12.003  0.00  0.00    +0.000 A 
ATOM     14  C   UNL     1       7.699   5.124  12.509  0.00  0.00    +0.000 A 
ATOM     15  C   UNL     1       7.743   5.376  13.880  0.00  0.00    +0.000 A 
ENDBRANCH   9  10
BRANCH   1  16
ATOM     16  C   UNL     1       5.926   4.355  18.518  0.00  0.00    +0.000 C 
BRANCH  16  18
ATOM     17  C   UNL     1       3.899   2.910  19.852  0.00  0.00    +0.000 C 
ATOM     18  C   UNL     1       4.835   3.577  19.236  0.00  0.00    +0.000 C 
ENDBRANCH  16  18
ENDBRANCH   1  16
TORSDOF 3
ENDMDL
MODEL 9
REMARK VINA RESULT:      -5.7      2.644      4.703
REMARK  Name = 
REMARK  3 active torsions:
REMARK  status: ('A' for Active; 'I' for Inactive)
REMARK    1  A    between atoms: C_2  and  C_3
REMARK    2  A    between atoms: C_3  and  N_4
REMARK    3  A    between atoms: C_12  and  C_13
REMARK                            x       y       z     vdW  Elec       q    Type
REMARK                         _______ _______ _______ _____ _____    ______ ____
ROOT
ATOM      1  N   UNL     1       5.392   5.895  16.830  0.00  0.00    +0.000 NA
ATOM      2  C   UNL     1       4.724   5.931  18.141  0.00  0.00    +0.000 C 
ATOM      3  C   UNL     1       5.088   4.719  18.969  0.00  0.00    +0.000 C 
ATOM      4  C   UNL     1       4.247   3.884  19.592  0.00  0.00    +0.000 C 
ATOM      5  I   UNL     1       2.209   3.956  19.612  0.00  0.00    +0.000 I 
ATOM      6  O   UNL     1       6.454   4.302  18.937  0.00  0.00    +0.000 OA
ATOM      7  C   UNL     1       7.288   4.619  17.889  0.00  0.00    +0.000 C 
ATOM      8  O   UNL     1       8.349   4.020  17.735  0.00  0.00    +0.000 OA
ATOM      9  C   UNL     1       6.872   5.822  17.041  0.00  0.00    +0.000 C 
ENDROOT
BRANCH   9  10
ATOM     10  C   UNL     1       7.478   7.126  17.601  0.00  0.00    +0.000 A 
ATOM     11  C   UNL     1       7.175   8.364  17.005  0.00  0.00    +0.000 A 
ATOM     12  C   UNL     1       7.721   9.556  17.498  0.00  0.00    +0.000 A 
ATOM     13  C   UNL     1       8.562   9.538  18.613  0.00  0.00    +0.000 A 
ATOM     14  C   UNL     1       8.875   8.327  19.214  0.00  0.00    +0.000 A 
ATOM     15  C   UNL     1       8.351   7.137  18.709  0.00  0.00    +0.000 A 
ENDBRANCH   9  10
BRANCH   1  16
ATOM     16  C   UNL     1       4.818   4.758  16.073  0.00  0.00    +0.000 C 
BRANCH  16  18
ATOM     17  C   UNL     1       6.329   4.063  13.791  0.00  0.00    +0.000 C 
ATOM     18  C   UNL     1       5.632   4.384  14.844  0.00  0.00    +0.000 C 
ENDBRANCH  16  18
ENDBRANCH   1  16
TORSDOF 3
ENDMDL
