MODEL 1
REMARK VINA RESULT:      -8.5      0.000      0.000
REMARK  Name = 
REMARK  3 active torsions:
REMARK  status: ('A' for Active; 'I' for Inactive)
REMARK    1  A    between atoms: C_2  and  C_3
REMARK    2  A    between atoms: C_3  and  N_4
REMARK    3  A    between atoms: C_5  and  C_7
REMARK                            x       y       z     vdW  Elec       q    Type
REMARK                         _______ _______ _______ _____ _____    ______ ____
ROOT
ATOM      1  C   UNL     1       5.742   5.014  15.488  0.00  0.00    +0.000 A 
ATOM      2  C   UNL     1       5.336   3.823  16.187  0.00  0.00    +0.000 A 
ATOM      3  C   UNL     1       4.462   3.809  17.289  0.00  0.00    +0.000 A 
ATOM      4  C   UNL     1       4.039   5.094  17.593  0.00  0.00    +0.000 A 
ATOM      5  C   UNL     1       3.211   5.421  18.629  0.00  0.00    +0.000 A 
ATOM      6  N   UNL     1       3.038   6.784  18.517  0.00  0.00    +0.000 N 
ATOM      7  N   UNL     1       3.736   7.348  17.497  0.00  0.00    +0.000 NA
ATOM      8  C   UNL     1       4.385   6.320  16.919  0.00  0.00    +0.000 A 
ATOM      9  C   UNL     1       5.273   6.310  15.825  0.00  0.00    +0.000 A 
ATOM     10  C   UNL     1       2.191   7.501  19.386  0.00  0.00    +0.000 A 
ATOM     11  C   UNL     1       1.851   8.839  19.171  0.00  0.00    +0.000 A 
ATOM     12  C   UNL     1       0.981   9.467  20.066  0.00  0.00    +0.000 A 
ATOM     13  C   UNL     1       0.478   8.764  21.166  0.00  0.00    +0.000 A 
ATOM     14 CL   UNL     1      -0.583   9.551  22.269  0.00  0.00    +0.000 Cl
ATOM     15  C   UNL     1       0.832   7.431  21.385  0.00  0.00    +0.000 A 
ATOM     16  C   UNL     1       1.687   6.786  20.487  0.00  0.00    +0.000 A 
ATOM     17  C   UNL     1       2.171   5.376  20.736  0.00  0.00    +0.000 C 
ATOM     18  O   UNL     1       2.591   4.676  19.554  0.00  0.00    +0.000 OA
ENDROOT
BRANCH   1  20
ATOM     19  N   UNL     1       6.244   3.971  13.325  0.00  0.00    +0.000 N 
ATOM     20  C   UNL     1       6.667   4.809  14.336  0.00  0.00    +0.000 C 
ATOM     21  O   UNL     1       7.737   5.407  14.306  0.00  0.00    +0.000 OA
ATOM     22  H   UNL     1       5.265   3.723  13.268  0.00  0.00    +0.000 HD
BRANCH  19  23
ATOM     23  C   UNL     1       7.032   3.858  12.122  0.00  0.00    +0.000 C 
BRANCH  23  25
ATOM     24  C   UNL     1       5.603   1.904  11.454  0.00  0.00    +0.000 C 
ATOM     25  C   UNL     1       6.799   2.503  11.537  0.00  0.00    +0.000 C 
ENDBRANCH  23  25
ENDBRANCH  19  23
ENDBRANCH   1  20
TORSDOF 3
ENDMDL
MODEL 2
REMARK VINA RESULT:      -8.4      1.034      1.210
REMARK  Name = 
REMARK  3 active torsions:
REMARK  status: ('A' for Active; 'I' for Inactive)
REMARK    1  A    between atoms: C_2  and  C_3
REMARK    2  A    between atoms: C_3  and  N_4
REMARK    3  A    between atoms: C_5  and  C_7
REMARK                            x       y       z     vdW  Elec       q    Type
REMARK                         _______ _______ _______ _____ _____    ______ ____
ROOT
ATOM      1  C   UNL     1       5.302   5.156  16.140  0.00  0.00    +0.000 A 
ATOM      2  C   UNL     1       4.820   4.159  17.060  0.00  0.00    +0.000 A 
ATOM      3  C   UNL     1       3.916   4.417  18.106  0.00  0.00    +0.000 A 
ATOM      4  C   UNL     1       3.546   5.753  18.114  0.00  0.00    +0.000 A 
ATOM      5  C   UNL     1       2.706   6.327  19.026  0.00  0.00    +0.000 A 
ATOM      6  N   UNL     1       2.601   7.640  18.620  0.00  0.00    +0.000 N 
ATOM      7  N   UNL     1       3.354   7.945  17.531  0.00  0.00    +0.000 NA
ATOM      8  C   UNL     1       3.970   6.792  17.209  0.00  0.00    +0.000 A 
ATOM      9  C   UNL     1       4.887   6.512  16.176  0.00  0.00    +0.000 A 
ATOM     10  C   UNL     1       1.765   8.561  19.284  0.00  0.00    +0.000 A 
ATOM     11  C   UNL     1       1.496   9.834  18.777  0.00  0.00    +0.000 A 
ATOM     12  C   UNL     1       0.632  10.674  19.486  0.00  0.00    +0.000 A 
ATOM     13  C   UNL     1       0.065  10.243  20.689  0.00  0.00    +0.000 A 
ATOM     14 CL   UNL     1      -0.988  11.290  21.560  0.00  0.00    +0.000 Cl
ATOM     15  C   UNL     1       0.348   8.975  21.200  0.00  0.00    +0.000 A 
ATOM     16  C   UNL     1       1.197   8.118  20.493  0.00  0.00    +0.000 A 
ATOM     17  C   UNL     1       1.605   6.776  21.053  0.00  0.00    +0.000 C 
ATOM     18  O   UNL     1       2.025   5.823  20.063  0.00  0.00    +0.000 OA
ENDROOT
BRANCH   1  20
ATOM     19  N   UNL     1       5.704   4.089  13.967  0.00  0.00    +0.000 N 
ATOM     20  C   UNL     1       6.249   4.671  15.094  0.00  0.00    +0.000 C 
ATOM     21  O   UNL     1       7.454   4.836  15.246  0.00  0.00    +0.000 OA
ATOM     22  H   UNL     1       4.721   4.220  13.771  0.00  0.00    +0.000 HD
BRANCH  19  23
ATOM     23  C   UNL     1       6.565   3.743  12.863  0.00  0.00    +0.000 C 
BRANCH  23  25
ATOM     24  C   UNL     1       4.486   3.196  11.566  0.00  0.00    +0.000 C 
ATOM     25  C   UNL     1       5.766   2.953  11.878  0.00  0.00    +0.000 C 
ENDBRANCH  23  25
ENDBRANCH  19  23
ENDBRANCH   1  20
TORSDOF 3
ENDMDL
MODEL 3
REMARK VINA RESULT:      -8.1      1.806      2.539
REMARK  Name = 
REMARK  3 active torsions:
REMARK  status: ('A' for Active; 'I' for Inactive)
REMARK    1  A    between atoms: C_2  and  C_3
REMARK    2  A    between atoms: C_3  and  N_4
REMARK    3  A    between atoms: C_5  and  C_7
REMARK                            x       y       z     vdW  Elec       q    Type
REMARK                         _______ _______ _______ _____ _____    ______ ____
ROOT
ATOM      1  C   UNL     1       4.870   5.629  17.303  0.00  0.00    +0.000 A 
ATOM      2  C   UNL     1       4.510   4.949  18.520  0.00  0.00    +0.000 A 
ATOM      3  C   UNL     1       3.586   5.442  19.460  0.00  0.00    +0.000 A 
ATOM      4  C   UNL     1       3.064   6.657  19.041  0.00  0.00    +0.000 A 
ATOM      5  C   UNL     1       2.167   7.407  19.747  0.00  0.00    +0.000 A 
ATOM      6  N   UNL     1       1.909   8.491  18.934  0.00  0.00    +0.000 N 
ATOM      7  N   UNL     1       2.617   8.494  17.775  0.00  0.00    +0.000 NA
ATOM      8  C   UNL     1       3.361   7.373  17.826  0.00  0.00    +0.000 A 
ATOM      9  C   UNL     1       4.300   6.866  16.906  0.00  0.00    +0.000 A 
ATOM     10  C   UNL     1       0.975   9.484  19.292  0.00  0.00    +0.000 A 
ATOM     11  C   UNL     1       0.558  10.478  18.404  0.00  0.00    +0.000 A 
ATOM     12  C   UNL     1      -0.395  11.408  18.831  0.00  0.00    +0.000 A 
ATOM     13  C   UNL     1      -0.904  11.344  20.133  0.00  0.00    +0.000 A 
ATOM     14 CL   UNL     1      -2.067  12.501  20.652  0.00  0.00    +0.000 Cl
ATOM     15  C   UNL     1      -0.473  10.358  21.021  0.00  0.00    +0.000 A 
ATOM     16  C   UNL     1       0.467   9.411  20.601  0.00  0.00    +0.000 A 
ATOM     17  C   UNL     1       1.030   8.385  21.556  0.00  0.00    +0.000 C 
ATOM     18  O   UNL     1       1.553   7.207  20.920  0.00  0.00    +0.000 OA
ENDROOT
BRANCH   1  20
ATOM     19  N   UNL     1       5.658   4.977  15.072  0.00  0.00    +0.000 N 
ATOM     20  C   UNL     1       5.862   4.928  16.436  0.00  0.00    +0.000 C 
ATOM     21  O   UNL     1       6.828   4.374  16.949  0.00  0.00    +0.000 OA
ATOM     22  H   UNL     1       5.014   5.660  14.695  0.00  0.00    +0.000 HD
BRANCH  19  23
ATOM     23  C   UNL     1       6.666   4.448  14.186  0.00  0.00    +0.000 C 
BRANCH  23  25
ATOM     24  C   UNL     1       6.527   3.311  11.952  0.00  0.00    +0.000 C 
ATOM     25  C   UNL     1       5.982   3.641  13.131  0.00  0.00    +0.000 C 
ENDBRANCH  23  25
ENDBRANCH  19  23
ENDBRANCH   1  20
TORSDOF 3
ENDMDL
MODEL 4
REMARK VINA RESULT:      -7.9      2.478      4.334
REMARK  Name = 
REMARK  3 active torsions:
REMARK  status: ('A' for Active; 'I' for Inactive)
REMARK    1  A    between atoms: C_2  and  C_3
REMARK    2  A    between atoms: C_3  and  N_4
REMARK    3  A    between atoms: C_5  and  C_7
REMARK                            x       y       z     vdW  Elec       q    Type
REMARK                         _______ _______ _______ _____ _____    ______ ____
ROOT
ATOM      1  C   UNL     1       3.640   6.040  18.383  0.00  0.00    +0.000 A 
ATOM      2  C   UNL     1       3.598   7.075  17.382  0.00  0.00    +0.000 A 
ATOM      3  C   UNL     1       2.851   8.261  17.500  0.00  0.00    +0.000 A 
ATOM      4  C   UNL     1       2.180   8.298  18.713  0.00  0.00    +0.000 A 
ATOM      5  C   UNL     1       1.345   9.302  19.115  0.00  0.00    +0.000 A 
ATOM      6  N   UNL     1       0.948   8.934  20.382  0.00  0.00    +0.000 N 
ATOM      7  N   UNL     1       1.448   7.740  20.795  0.00  0.00    +0.000 NA
ATOM      8  C   UNL     1       2.202   7.312  19.764  0.00  0.00    +0.000 A 
ATOM      9  C   UNL     1       2.948   6.125  19.618  0.00  0.00    +0.000 A 
ATOM     10  C   UNL     1       0.111   9.752  21.168  0.00  0.00    +0.000 A 
ATOM     11  C   UNL     1      -0.144   9.493  22.516  0.00  0.00    +0.000 A 
ATOM     12  C   UNL     1      -0.964  10.373  23.229  0.00  0.00    +0.000 A 
ATOM     13  C   UNL     1      -1.528  11.481  22.590  0.00  0.00    +0.000 A 
ATOM     14 CL   UNL     1      -2.546  12.550  23.474  0.00  0.00    +0.000 Cl
ATOM     15  C   UNL     1      -1.284  11.727  21.237  0.00  0.00    +0.000 A 
ATOM     16  C   UNL     1      -0.451  10.865  20.517  0.00  0.00    +0.000 A 
ATOM     17  C   UNL     1      -0.234  11.040  19.032  0.00  0.00    +0.000 C 
ATOM     18  O   UNL     1       0.981  10.454  18.537  0.00  0.00    +0.000 OA
ENDROOT
BRANCH   1  20
ATOM     19  N   UNL     1       4.824   4.651  16.743  0.00  0.00    +0.000 N 
ATOM     20  C   UNL     1       4.505   4.866  18.068  0.00  0.00    +0.000 C 
ATOM     21  O   UNL     1       4.928   4.165  18.980  0.00  0.00    +0.000 OA
ATOM     22  H   UNL     1       4.679   5.396  16.074  0.00  0.00    +0.000 HD
BRANCH  19  23
ATOM     23  C   UNL     1       5.777   3.624  16.401  0.00  0.00    +0.000 C 
BRANCH  23  25
ATOM     24  C   UNL     1       5.517   4.342  14.009  0.00  0.00    +0.000 C 
ATOM     25  C   UNL     1       6.275   3.890  15.018  0.00  0.00    +0.000 C 
ENDBRANCH  23  25
ENDBRANCH  19  23
ENDBRANCH   1  20
TORSDOF 3
ENDMDL
MODEL 5
REMARK VINA RESULT:      -7.9      3.899      5.400
REMARK  Name = 
REMARK  3 active torsions:
REMARK  status: ('A' for Active; 'I' for Inactive)
REMARK    1  A    between atoms: C_2  and  C_3
REMARK    2  A    between atoms: C_3  and  N_4
REMARK    3  A    between atoms: C_5  and  C_7
REMARK                            x       y       z     vdW  Elec       q    Type
REMARK                         _______ _______ _______ _____ _____    ______ ____
ROOT
ATOM      1  C   UNL     1       3.160   6.231  18.901  0.00  0.00    +0.000 A 
ATOM      2  C   UNL     1       3.216   7.193  17.831  0.00  0.00    +0.000 A 
ATOM      3  C   UNL     1       2.530   8.421  17.832  0.00  0.00    +0.000 A 
ATOM      4  C   UNL     1       1.811   8.578  19.008  0.00  0.00    +0.000 A 
ATOM      5  C   UNL     1       1.015   9.649  19.301  0.00  0.00    +0.000 A 
ATOM      6  N   UNL     1       0.545   9.392  20.571  0.00  0.00    +0.000 N 
ATOM      7  N   UNL     1       0.963   8.207  21.087  0.00  0.00    +0.000 NA
ATOM      8  C   UNL     1       1.735   7.669  20.124  0.00  0.00    +0.000 A 
ATOM      9  C   UNL     1       2.422   6.438  20.094  0.00  0.00    +0.000 A 
ATOM     10  C   UNL     1      -0.279  10.305  21.259  0.00  0.00    +0.000 A 
ATOM     11  C   UNL     1      -0.604  10.156  22.609  0.00  0.00    +0.000 A 
ATOM     12  C   UNL     1      -1.405  11.124  23.221  0.00  0.00    +0.000 A 
ATOM     13  C   UNL     1      -1.881  12.212  22.482  0.00  0.00    +0.000 A 
ATOM     14 CL   UNL     1      -2.877  13.391  23.243  0.00  0.00    +0.000 Cl
ATOM     15  C   UNL     1      -1.567  12.348  21.129  0.00  0.00    +0.000 A 
ATOM     16  C   UNL     1      -0.752  11.396  20.508  0.00  0.00    +0.000 A 
ATOM     17  C   UNL     1      -0.463  11.454  19.026  0.00  0.00    +0.000 C 
ATOM     18  O   UNL     1       0.738  10.774  18.629  0.00  0.00    +0.000 OA
ENDROOT
BRANCH   1  20
ATOM     19  N   UNL     1       3.676   3.909  19.505  0.00  0.00    +0.000 N 
ATOM     20  C   UNL     1       3.973   4.995  18.707  0.00  0.00    +0.000 C 
ATOM     21  O   UNL     1       4.838   4.971  17.838  0.00  0.00    +0.000 OA
ATOM     22  H   UNL     1       2.797   3.891  20.005  0.00  0.00    +0.000 HD
BRANCH  19  23
ATOM     23  C   UNL     1       4.328   2.647  19.255  0.00  0.00    +0.000 C 
BRANCH  23  25
ATOM     24  C   UNL     1       2.135   2.120  18.152  0.00  0.00    +0.000 C 
ATOM     25  C   UNL     1       3.396   1.789  18.463  0.00  0.00    +0.000 C 
ENDBRANCH  23  25
ENDBRANCH  19  23
ENDBRANCH   1  20
TORSDOF 3
ENDMDL
MODEL 6
REMARK VINA RESULT:      -7.8      3.004      5.239
REMARK  Name = 
REMARK  3 active torsions:
REMARK  status: ('A' for Active; 'I' for Inactive)
REMARK    1  A    between atoms: C_2  and  C_3
REMARK    2  A    between atoms: C_3  and  N_4
REMARK    3  A    between atoms: C_5  and  C_7
REMARK                            x       y       z     vdW  Elec       q    Type
REMARK                         _______ _______ _______ _____ _____    ______ ____
ROOT
ATOM      1  C   UNL     1       2.978   6.707  18.773  0.00  0.00    +0.000 A 
ATOM      2  C   UNL     1       2.946   7.674  17.707  0.00  0.00    +0.000 A 
ATOM      3  C   UNL     1       2.204   8.869  17.744  0.00  0.00    +0.000 A 
ATOM      4  C   UNL     1       1.527   8.987  18.948  0.00  0.00    +0.000 A 
ATOM      5  C   UNL     1       0.695  10.019  19.280  0.00  0.00    +0.000 A 
ATOM      6  N   UNL     1       0.289   9.735  20.566  0.00  0.00    +0.000 N 
ATOM      7  N   UNL     1       0.782   8.568  21.058  0.00  0.00    +0.000 NA
ATOM      8  C   UNL     1       1.539   8.072  20.061  0.00  0.00    +0.000 A 
ATOM      9  C   UNL     1       2.280   6.874  19.997  0.00  0.00    +0.000 A 
ATOM     10  C   UNL     1      -0.548  10.606  21.292  0.00  0.00    +0.000 A 
ATOM     11  C   UNL     1      -0.811  10.437  22.654  0.00  0.00    +0.000 A 
ATOM     12  C   UNL     1      -1.630  11.364  23.304  0.00  0.00    +0.000 A 
ATOM     13  C   UNL     1      -2.186  12.431  22.590  0.00  0.00    +0.000 A 
ATOM     14 CL   UNL     1      -3.204  13.560  23.398  0.00  0.00    +0.000 Cl
ATOM     15  C   UNL     1      -1.934  12.587  21.226  0.00  0.00    +0.000 A 
ATOM     16  C   UNL     1      -1.101  11.677  20.568  0.00  0.00    +0.000 A 
ATOM     17  C   UNL     1      -0.876  11.754  19.076  0.00  0.00    +0.000 C 
ATOM     18  O   UNL     1       0.339  11.132  18.626  0.00  0.00    +0.000 OA
ENDROOT
BRANCH   1  20
ATOM     19  N   UNL     1       3.796   4.934  17.287  0.00  0.00    +0.000 N 
ATOM     20  C   UNL     1       3.839   5.511  18.540  0.00  0.00    +0.000 C 
ATOM     21  O   UNL     1       4.571   5.109  19.438  0.00  0.00    +0.000 OA
ATOM     22  H   UNL     1       3.393   5.453  16.519  0.00  0.00    +0.000 HD
BRANCH  19  23
ATOM     23  C   UNL     1       4.719   3.873  16.964  0.00  0.00    +0.000 C 
BRANCH  23  25
ATOM     24  C   UNL     1       5.503   5.436  15.162  0.00  0.00    +0.000 C 
ATOM     25  C   UNL     1       5.720   4.405  15.991  0.00  0.00    +0.000 C 
ENDBRANCH  23  25
ENDBRANCH  19  23
ENDBRANCH   1  20
TORSDOF 3
ENDMDL
MODEL 7
REMARK VINA RESULT:      -7.8      3.542      5.562
REMARK  Name = 
REMARK  3 active torsions:
REMARK  status: ('A' for Active; 'I' for Inactive)
REMARK    1  A    between atoms: C_2  and  C_3
REMARK    2  A    between atoms: C_3  and  N_4
REMARK    3  A    between atoms: C_5  and  C_7
REMARK                            x       y       z     vdW  Elec       q    Type
REMARK                         _______ _______ _______ _____ _____    ______ ____
ROOT
ATOM      1  C   UNL     1       3.031   6.615  18.867  0.00  0.00    +0.000 A 
ATOM      2  C   UNL     1       2.981   7.555  17.777  0.00  0.00    +0.000 A 
ATOM      3  C   UNL     1       2.222   8.740  17.786  0.00  0.00    +0.000 A 
ATOM      4  C   UNL     1       1.548   8.879  18.990  0.00  0.00    +0.000 A 
ATOM      5  C   UNL     1       0.703   9.907  19.298  0.00  0.00    +0.000 A 
ATOM      6  N   UNL     1       0.306   9.650  20.593  0.00  0.00    +0.000 N 
ATOM      7  N   UNL     1       0.817   8.504  21.112  0.00  0.00    +0.000 NA
ATOM      8  C   UNL     1       1.577   7.992  20.126  0.00  0.00    +0.000 A 
ATOM      9  C   UNL     1       2.335   6.804  20.088  0.00  0.00    +0.000 A 
ATOM     10  C   UNL     1      -0.541  10.528  21.300  0.00  0.00    +0.000 A 
ATOM     11  C   UNL     1      -0.796  10.389  22.667  0.00  0.00    +0.000 A 
ATOM     12  C   UNL     1      -1.626  11.321  23.296  0.00  0.00    +0.000 A 
ATOM     13  C   UNL     1      -2.200  12.362  22.558  0.00  0.00    +0.000 A 
ATOM     14 CL   UNL     1      -3.230  13.496  23.341  0.00  0.00    +0.000 Cl
ATOM     15  C   UNL     1      -1.954  12.487  21.190  0.00  0.00    +0.000 A 
ATOM     16  C   UNL     1      -1.112  11.572  20.551  0.00  0.00    +0.000 A 
ATOM     17  C   UNL     1      -0.893  11.614  19.057  0.00  0.00    +0.000 C 
ATOM     18  O   UNL     1       0.329  10.998  18.618  0.00  0.00    +0.000 OA
ENDROOT
BRANCH   1  20
ATOM     19  N   UNL     1       5.199   5.658  18.231  0.00  0.00    +0.000 N 
ATOM     20  C   UNL     1       3.908   5.426  18.660  0.00  0.00    +0.000 C 
ATOM     21  O   UNL     1       3.475   4.306  18.908  0.00  0.00    +0.000 OA
ATOM     22  H   UNL     1       5.581   6.591  18.301  0.00  0.00    +0.000 HD
BRANCH  19  23
ATOM     23  C   UNL     1       6.130   4.558  18.163  0.00  0.00    +0.000 C 
BRANCH  23  25
ATOM     24  C   UNL     1       7.811   6.394  18.492  0.00  0.00    +0.000 C 
ATOM     25  C   UNL     1       7.515   5.115  18.220  0.00  0.00    +0.000 C 
ENDBRANCH  23  25
ENDBRANCH  19  23
ENDBRANCH   1  20
TORSDOF 3
ENDMDL
MODEL 8
REMARK VINA RESULT:      -7.6      3.851      9.203
REMARK  Name = 
REMARK  3 active torsions:
REMARK  status: ('A' for Active; 'I' for Inactive)
REMARK    1  A    between atoms: C_2  and  C_3
REMARK    2  A    between atoms: C_3  and  N_4
REMARK    3  A    between atoms: C_5  and  C_7
REMARK                            x       y       z     vdW  Elec       q    Type
REMARK                         _______ _______ _______ _____ _____    ______ ____
ROOT
ATOM      1  C   UNL     1       0.249   9.991  20.371  0.00  0.00    +0.000 A 
ATOM      2  C   UNL     1       0.338   8.952  21.363  0.00  0.00    +0.000 A 
ATOM      3  C   UNL     1       1.087   7.771  21.209  0.00  0.00    +0.000 A 
ATOM      4  C   UNL     1       1.734   7.759  19.983  0.00  0.00    +0.000 A 
ATOM      5  C   UNL     1       2.513   6.738  19.519  0.00  0.00    +0.000 A 
ATOM      6  N   UNL     1       2.970   7.180  18.296  0.00  0.00    +0.000 N 
ATOM      7  N   UNL     1       2.498   8.402  17.937  0.00  0.00    +0.000 NA
ATOM      8  C   UNL     1       1.708   8.776  18.961  0.00  0.00    +0.000 A 
ATOM      9  C   UNL     1       0.940   9.945  19.133  0.00  0.00    +0.000 A 
ATOM     10  C   UNL     1       3.863   6.418  17.515  0.00  0.00    +0.000 A 
ATOM     11  C   UNL     1       4.487   6.928  16.374  0.00  0.00    +0.000 A 
ATOM     12  C   UNL     1       5.381   6.114  15.673  0.00  0.00    +0.000 A 
ATOM     13  C   UNL     1       5.629   4.807  16.106  0.00  0.00    +0.000 A 
ATOM     14 CL   UNL     1       6.723   3.809  15.229  0.00  0.00    +0.000 Cl
ATOM     15  C   UNL     1       4.991   4.297  17.239  0.00  0.00    +0.000 A 
ATOM     16  C   UNL     1       4.107   5.106  17.959  0.00  0.00    +0.000 A 
ATOM     17  C   UNL     1       3.326   4.567  19.134  0.00  0.00    +0.000 C 
ATOM     18  O   UNL     1       2.881   5.570  20.062  0.00  0.00    +0.000 OA
ENDROOT
BRANCH   1  20
ATOM     19  N   UNL     1      -0.999  11.272  22.051  0.00  0.00    +0.000 N 
ATOM     20  C   UNL     1      -0.590  11.170  20.738  0.00  0.00    +0.000 C 
ATOM     21  O   UNL     1      -0.852  12.012  19.887  0.00  0.00    +0.000 OA
ATOM     22  H   UNL     1      -0.540  10.710  22.756  0.00  0.00    +0.000 HD
BRANCH  19  23
ATOM     23  C   UNL     1      -1.681  12.466  22.490  0.00  0.00    +0.000 C 
BRANCH  23  25
ATOM     24  C   UNL     1      -3.859  12.792  23.695  0.00  0.00    +0.000 C 
ATOM     25  C   UNL     1      -2.764  12.063  23.436  0.00  0.00    +0.000 C 
ENDBRANCH  23  25
ENDBRANCH  19  23
ENDBRANCH   1  20
TORSDOF 3
ENDMDL
MODEL 9
REMARK VINA RESULT:      -7.5      4.759     10.417
REMARK  Name = 
REMARK  3 active torsions:
REMARK  status: ('A' for Active; 'I' for Inactive)
REMARK    1  A    between atoms: C_2  and  C_3
REMARK    2  A    between atoms: C_3  and  N_4
REMARK    3  A    between atoms: C_5  and  C_7
REMARK                            x       y       z     vdW  Elec       q    Type
REMARK                         _______ _______ _______ _____ _____    ______ ____
ROOT
ATOM      1  C   UNL     1      -0.679  11.707  22.035  0.00  0.00    +0.000 A 
ATOM      2  C   UNL     1      -0.529  12.177  20.683  0.00  0.00    +0.000 A 
ATOM      3  C   UNL     1       0.101  11.450  19.657  0.00  0.00    +0.000 A 
ATOM      4  C   UNL     1       0.538  10.220  20.126  0.00  0.00    +0.000 A 
ATOM      5  C   UNL     1       1.216   9.296  19.383  0.00  0.00    +0.000 A 
ATOM      6  N   UNL     1       1.403   8.233  20.241  0.00  0.00    +0.000 N 
ATOM      7  N   UNL     1       0.920   8.442  21.494  0.00  0.00    +0.000 NA
ATOM      8  C   UNL     1       0.396   9.681  21.455  0.00  0.00    +0.000 A 
ATOM      9  C   UNL     1      -0.228  10.434  22.470  0.00  0.00    +0.000 A 
ATOM     10  C   UNL     1       2.026   7.040  19.825  0.00  0.00    +0.000 A 
ATOM     11  C   UNL     1       2.051   5.888  20.615  0.00  0.00    +0.000 A 
ATOM     12  C   UNL     1       2.666   4.738  20.112  0.00  0.00    +0.000 A 
ATOM     13  C   UNL     1       3.259   4.755  18.846  0.00  0.00    +0.000 A 
ATOM     14 CL   UNL     1       4.025   3.337  18.242  0.00  0.00    +0.000 Cl
ATOM     15  C   UNL     1       3.246   5.913  18.066  0.00  0.00    +0.000 A 
ATOM     16  C   UNL     1       2.618   7.065  18.549  0.00  0.00    +0.000 A 
ATOM     17  C   UNL     1       2.661   8.365  17.780  0.00  0.00    +0.000 C 
ATOM     18  O   UNL     1       1.598   9.278  18.099  0.00  0.00    +0.000 OA
ENDROOT
BRANCH   1  20
ATOM     19  N   UNL     1      -2.752  12.459  23.112  0.00  0.00    +0.000 N 
ATOM     20  C   UNL     1      -1.390  12.628  22.969  0.00  0.00    +0.000 C 
ATOM     21  O   UNL     1      -0.750  13.466  23.595  0.00  0.00    +0.000 OA
ATOM     22  H   UNL     1      -3.178  11.600  22.789  0.00  0.00    +0.000 HD
BRANCH  19  23
ATOM     23  C   UNL     1      -3.459  13.221  24.112  0.00  0.00    +0.000 C 
BRANCH  23  25
ATOM     24  C   UNL     1      -5.882  12.590  24.308  0.00  0.00    +0.000 C 
ATOM     25  C   UNL     1      -4.593  12.389  24.616  0.00  0.00    +0.000 C 
ENDBRANCH  23  25
ENDBRANCH  19  23
ENDBRANCH   1  20
TORSDOF 3
ENDMDL
