MODEL 1
REMARK VINA RESULT:      -8.7      0.000      0.000
REMARK  Name = 
REMARK  7 active torsions:
REMARK  status: ('A' for Active; 'I' for Inactive)
REMARK    1  A    between atoms: C_1  and  O_2
REMARK    2  A    between atoms: O_2  and  C_3
REMARK    3  A    between atoms: C_8  and  C_9
REMARK    4  A    between atoms: C_9  and  C_11
REMARK    5  A    between atoms: N_15  and  C_16
REMARK    6  A    between atoms: C_20  and  C_21
REMARK    7  A    between atoms: C_21  and  C_22
REMARK                            x       y       z     vdW  Elec       q    Type
REMARK                         _______ _______ _______ _____ _____    ______ ____
ROOT
ATOM      1  C   UNL     1       3.258   4.543  19.244  0.00  0.00    +0.000 A 
ATOM      2  C   UNL     1       1.884   4.465  19.285  0.00  0.00    +0.000 A 
ATOM      3  N   UNL     1       1.345   5.627  19.768  0.00  0.00    +0.000 NA
ATOM      4  C   UNL     1       2.358   6.427  20.022  0.00  0.00    +0.000 A 
ATOM      5  N   UNL     1       2.390   7.715  20.426  0.00  0.00    +0.000 N 
ATOM      6  N   UNL     1       3.536   5.754  19.831  0.00  0.00    +0.000 N 
ATOM      7  H   UNL     1       3.273   8.207  20.483  0.00  0.00    +0.000 HD
ATOM      8  H   UNL     1       4.462   6.109  20.012  0.00  0.00    +0.000 HD
ENDROOT
BRANCH   5   9
ATOM      9  C   UNL     1       1.284   8.521  20.771  0.00  0.00    +0.000 A 
ATOM     10  C   UNL     1       0.617   8.433  21.996  0.00  0.00    +0.000 A 
ATOM     11  C   UNL     1      -0.393   9.333  22.340  0.00  0.00    +0.000 A 
ATOM     12  C   UNL     1      -0.764  10.337  21.451  0.00  0.00    +0.000 A 
ATOM     13  C   UNL     1      -0.148  10.432  20.199  0.00  0.00    +0.000 A 
ATOM     14  C   UNL     1       0.882   9.529  19.876  0.00  0.00    +0.000 A 
BRANCH  13  15
ATOM     15  C   UNL     1      -0.590  11.481  19.208  0.00  0.00    +0.000 C 
BRANCH  15  16
ATOM     16  C   UNL     1      -1.815  11.130  18.398  0.00  0.00    +0.000 A 
ATOM     17  C   UNL     1      -3.042  11.763  18.648  0.00  0.00    +0.000 A 
ATOM     18  C   UNL     1      -4.158  11.488  17.854  0.00  0.00    +0.000 A 
ATOM     19  C   UNL     1      -4.063  10.570  16.812  0.00  0.00    +0.000 A 
ATOM     20  C   UNL     1      -2.856   9.918  16.566  0.00  0.00    +0.000 A 
ATOM     21  C   UNL     1      -1.740  10.192  17.359  0.00  0.00    +0.000 A 
ENDBRANCH  15  16
ENDBRANCH  13  15
ENDBRANCH   5   9
BRANCH   1  22
ATOM     22  C   UNL     1       4.277   3.659  18.749  0.00  0.00    +0.000 C 
ATOM     23  O   UNL     1       4.448   2.555  19.267  0.00  0.00    +0.000 OA
BRANCH  22  29
ATOM     24  C   UNL     1       6.520   4.519  17.834  0.00  0.00    +0.000 A 
ATOM     25  C   UNL     1       7.320   4.787  16.714  0.00  0.00    +0.000 A 
ATOM     26  C   UNL     1       6.842   4.560  15.422  0.00  0.00    +0.000 A 
ATOM     27  C   UNL     1       5.552   4.080  15.232  0.00  0.00    +0.000 A 
ATOM     28  C   UNL     1       4.733   3.837  16.332  0.00  0.00    +0.000 A 
ATOM     29  C   UNL     1       5.200   4.061  17.641  0.00  0.00    +0.000 A 
BRANCH  24  31
ATOM     30  C   UNL     1       7.769   5.795  19.430  0.00  0.00    +0.000 C 
ATOM     31  O   UNL     1       6.974   4.659  19.116  0.00  0.00    +0.000 OA
ENDBRANCH  24  31
ENDBRANCH  22  29
ENDBRANCH   1  22
TORSDOF 6
ENDMDL
MODEL 2
REMARK VINA RESULT:      -8.7      1.061      1.171
REMARK  Name = 
REMARK  7 active torsions:
REMARK  status: ('A' for Active; 'I' for Inactive)
REMARK    1  A    between atoms: C_1  and  O_2
REMARK    2  A    between atoms: O_2  and  C_3
REMARK    3  A    between atoms: C_8  and  C_9
REMARK    4  A    between atoms: C_9  and  C_11
REMARK    5  A    between atoms: N_15  and  C_16
REMARK    6  A    between atoms: C_20  and  C_21
REMARK    7  A    between atoms: C_21  and  C_22
REMARK                            x       y       z     vdW  Elec       q    Type
REMARK                         _______ _______ _______ _____ _____    ______ ____
ROOT
ATOM      1  C   UNL     1       3.821   5.894  18.765  0.00  0.00    +0.000 A 
ATOM      2  C   UNL     1       3.270   6.908  18.015  0.00  0.00    +0.000 A 
ATOM      3  N   UNL     1       2.399   7.651  18.767  0.00  0.00    +0.000 NA
ATOM      4  C   UNL     1       2.404   7.121  19.970  0.00  0.00    +0.000 A 
ATOM      5  N   UNL     1       1.801   7.510  21.113  0.00  0.00    +0.000 N 
ATOM      6  N   UNL     1       3.162   5.979  19.968  0.00  0.00    +0.000 N 
ATOM      7  H   UNL     1       1.993   7.025  21.981  0.00  0.00    +0.000 HD
ATOM      8  H   UNL     1       3.287   5.343  20.741  0.00  0.00    +0.000 HD
ENDROOT
BRANCH   5   9
ATOM      9  C   UNL     1       0.906   8.591  21.272  0.00  0.00    +0.000 A 
ATOM     10  C   UNL     1       0.318   8.934  22.493  0.00  0.00    +0.000 A 
ATOM     11  C   UNL     1      -0.464  10.082  22.627  0.00  0.00    +0.000 A 
ATOM     12  C   UNL     1      -0.684  10.906  21.528  0.00  0.00    +0.000 A 
ATOM     13  C   UNL     1      -0.148  10.575  20.279  0.00  0.00    +0.000 A 
ATOM     14  C   UNL     1       0.655   9.424  20.167  0.00  0.00    +0.000 A 
BRANCH  13  15
ATOM     15  C   UNL     1      -0.434  11.433  19.072  0.00  0.00    +0.000 C 
BRANCH  15  16
ATOM     16  C   UNL     1      -1.703  11.096  18.326  0.00  0.00    +0.000 A 
ATOM     17  C   UNL     1      -2.903  11.764  18.616  0.00  0.00    +0.000 A 
ATOM     18  C   UNL     1      -4.059  11.499  17.879  0.00  0.00    +0.000 A 
ATOM     19  C   UNL     1      -4.033  10.557  16.854  0.00  0.00    +0.000 A 
ATOM     20  C   UNL     1      -2.854   9.871  16.569  0.00  0.00    +0.000 A 
ATOM     21  C   UNL     1      -1.697  10.134  17.305  0.00  0.00    +0.000 A 
ENDBRANCH  15  16
ENDBRANCH  13  15
ENDBRANCH   5   9
BRANCH   1  22
ATOM     22  C   UNL     1       4.833   4.911  18.492  0.00  0.00    +0.000 C 
ATOM     23  O   UNL     1       5.217   4.149  19.381  0.00  0.00    +0.000 OA
BRANCH  22  29
ATOM     24  C   UNL     1       6.809   5.264  16.885  0.00  0.00    +0.000 A 
ATOM     25  C   UNL     1       7.357   5.045  15.613  0.00  0.00    +0.000 A 
ATOM     26  C   UNL     1       6.644   4.349  14.636  0.00  0.00    +0.000 A 
ATOM     27  C   UNL     1       5.365   3.880  14.911  0.00  0.00    +0.000 A 
ATOM     28  C   UNL     1       4.793   4.115  16.159  0.00  0.00    +0.000 A 
ATOM     29  C   UNL     1       5.498   4.815  17.154  0.00  0.00    +0.000 A 
BRANCH  24  31
ATOM     30  C   UNL     1       7.665   7.289  17.836  0.00  0.00    +0.000 C 
ATOM     31  O   UNL     1       7.501   5.877  17.892  0.00  0.00    +0.000 OA
ENDBRANCH  24  31
ENDBRANCH  22  29
ENDBRANCH   1  22
TORSDOF 6
ENDMDL
MODEL 3
REMARK VINA RESULT:      -8.6      0.938      1.424
REMARK  Name = 
REMARK  7 active torsions:
REMARK  status: ('A' for Active; 'I' for Inactive)
REMARK    1  A    between atoms: C_1  and  O_2
REMARK    2  A    between atoms: O_2  and  C_3
REMARK    3  A    between atoms: C_8  and  C_9
REMARK    4  A    between atoms: C_9  and  C_11
REMARK    5  A    between atoms: N_15  and  C_16
REMARK    6  A    between atoms: C_20  and  C_21
REMARK    7  A    between atoms: C_21  and  C_22
REMARK                            x       y       z     vdW  Elec       q    Type
REMARK                         _______ _______ _______ _____ _____    ______ ____
ROOT
ATOM      1  C   UNL     1       3.366   5.932  18.948  0.00  0.00    +0.000 A 
ATOM      2  C   UNL     1       2.893   7.004  18.225  0.00  0.00    +0.000 A 
ATOM      3  N   UNL     1       2.081   7.791  18.996  0.00  0.00    +0.000 NA
ATOM      4  C   UNL     1       2.045   7.231  20.186  0.00  0.00    +0.000 A 
ATOM      5  N   UNL     1       1.472   7.636  21.339  0.00  0.00    +0.000 N 
ATOM      6  N   UNL     1       2.714   6.035  20.153  0.00  0.00    +0.000 N 
ATOM      7  H   UNL     1       1.627   7.115  22.194  0.00  0.00    +0.000 HD
ATOM      8  H   UNL     1       2.790   5.372  20.909  0.00  0.00    +0.000 HD
ENDROOT
BRANCH   5   9
ATOM      9  C   UNL     1       0.662   8.776  21.527  0.00  0.00    +0.000 A 
ATOM     10  C   UNL     1       0.148   9.163  22.769  0.00  0.00    +0.000 A 
ATOM     11  C   UNL     1      -0.547  10.363  22.926  0.00  0.00    +0.000 A 
ATOM     12  C   UNL     1      -0.751  11.198  21.833  0.00  0.00    +0.000 A 
ATOM     13  C   UNL     1      -0.288  10.827  20.566  0.00  0.00    +0.000 A 
ATOM     14  C   UNL     1       0.428   9.623  20.429  0.00  0.00    +0.000 A 
BRANCH  13  15
ATOM     15  C   UNL     1      -0.560  11.701  19.367  0.00  0.00    +0.000 C 
BRANCH  15  16
ATOM     16  C   UNL     1      -1.772  11.319  18.551  0.00  0.00    +0.000 A 
ATOM     17  C   UNL     1      -1.682  10.338  17.552  0.00  0.00    +0.000 A 
ATOM     18  C   UNL     1      -2.818   9.937  16.845  0.00  0.00    +0.000 A 
ATOM     19  C   UNL     1      -4.052  10.522  17.120  0.00  0.00    +0.000 A 
ATOM     20  C   UNL     1      -4.152  11.513  18.094  0.00  0.00    +0.000 A 
ATOM     21  C   UNL     1      -3.017  11.914  18.802  0.00  0.00    +0.000 A 
ENDBRANCH  15  16
ENDBRANCH  13  15
ENDBRANCH   5   9
BRANCH   1  22
ATOM     22  C   UNL     1       4.300   4.882  18.648  0.00  0.00    +0.000 C 
ATOM     23  O   UNL     1       4.442   3.935  19.422  0.00  0.00    +0.000 OA
BRANCH  22  29
ATOM     24  C   UNL     1       6.421   5.583  17.375  0.00  0.00    +0.000 A 
ATOM     25  C   UNL     1       7.189   5.486  16.206  0.00  0.00    +0.000 A 
ATOM     26  C   UNL     1       6.757   4.713  15.127  0.00  0.00    +0.000 A 
ATOM     27  C   UNL     1       5.542   4.041  15.195  0.00  0.00    +0.000 A 
ATOM     28  C   UNL     1       4.752   4.151  16.337  0.00  0.00    +0.000 A 
ATOM     29  C   UNL     1       5.173   4.927  17.432  0.00  0.00    +0.000 A 
BRANCH  24  31
ATOM     30  C   UNL     1       8.013   5.823  19.148  0.00  0.00    +0.000 C 
ATOM     31  O   UNL     1       6.841   6.270  18.479  0.00  0.00    +0.000 OA
ENDBRANCH  24  31
ENDBRANCH  22  29
ENDBRANCH   1  22
TORSDOF 6
ENDMDL
MODEL 4
REMARK VINA RESULT:      -8.5      3.414      9.494
REMARK  Name = 
REMARK  7 active torsions:
REMARK  status: ('A' for Active; 'I' for Inactive)
REMARK    1  A    between atoms: C_1  and  O_2
REMARK    2  A    between atoms: O_2  and  C_3
REMARK    3  A    between atoms: C_8  and  C_9
REMARK    4  A    between atoms: C_9  and  C_11
REMARK    5  A    between atoms: N_15  and  C_16
REMARK    6  A    between atoms: C_20  and  C_21
REMARK    7  A    between atoms: C_21  and  C_22
REMARK                            x       y       z     vdW  Elec       q    Type
REMARK                         _______ _______ _______ _____ _____    ______ ____
ROOT
ATOM      1  C   UNL     1       0.786  10.755  20.656  0.00  0.00    +0.000 A 
ATOM      2  C   UNL     1       0.855  10.326  19.350  0.00  0.00    +0.000 A 
ATOM      3  N   UNL     1       1.233   9.012  19.288  0.00  0.00    +0.000 NA
ATOM      4  C   UNL     1       1.393   8.615  20.531  0.00  0.00    +0.000 A 
ATOM      5  N   UNL     1       1.672   7.397  21.044  0.00  0.00    +0.000 N 
ATOM      6  N   UNL     1       1.250   9.683  21.378  0.00  0.00    +0.000 N 
ATOM      7  H   UNL     1       1.668   7.255  22.047  0.00  0.00    +0.000 HD
ATOM      8  H   UNL     1       1.382   9.673  22.378  0.00  0.00    +0.000 HD
ENDROOT
BRANCH   5   9
ATOM      9  C   UNL     1       1.954   6.219  20.320  0.00  0.00    +0.000 A 
ATOM     10  C   UNL     1       1.317   4.996  20.556  0.00  0.00    +0.000 A 
ATOM     11  C   UNL     1       1.541   3.890  19.736  0.00  0.00    +0.000 A 
ATOM     12  C   UNL     1       2.422   3.984  18.664  0.00  0.00    +0.000 A 
ATOM     13  C   UNL     1       3.110   5.178  18.420  0.00  0.00    +0.000 A 
ATOM     14  C   UNL     1       2.857   6.290  19.245  0.00  0.00    +0.000 A 
BRANCH  13  15
ATOM     15  C   UNL     1       4.112   5.267  17.295  0.00  0.00    +0.000 C 
BRANCH  15  16
ATOM     16  C   UNL     1       5.480   5.773  17.687  0.00  0.00    +0.000 A 
ATOM     17  C   UNL     1       6.029   6.904  17.064  0.00  0.00    +0.000 A 
ATOM     18  C   UNL     1       7.265   7.411  17.474  0.00  0.00    +0.000 A 
ATOM     19  C   UNL     1       7.968   6.787  18.501  0.00  0.00    +0.000 A 
ATOM     20  C   UNL     1       7.444   5.650  19.114  0.00  0.00    +0.000 A 
ATOM     21  C   UNL     1       6.210   5.142  18.705  0.00  0.00    +0.000 A 
ENDBRANCH  15  16
ENDBRANCH  13  15
ENDBRANCH   5   9
BRANCH   1  22
ATOM     22  C   UNL     1       0.363  11.987  21.263  0.00  0.00    +0.000 C 
ATOM     23  O   UNL     1       1.191  12.842  21.577  0.00  0.00    +0.000 OA
BRANCH  22  29
ATOM     24  C   UNL     1      -2.069  12.536  20.634  0.00  0.00    +0.000 A 
ATOM     25  C   UNL     1      -3.399  12.683  21.053  0.00  0.00    +0.000 A 
ATOM     26  C   UNL     1      -3.751  12.501  22.392  0.00  0.00    +0.000 A 
ATOM     27  C   UNL     1      -2.776  12.190  23.332  0.00  0.00    +0.000 A 
ATOM     28  C   UNL     1      -1.445  12.070  22.938  0.00  0.00    +0.000 A 
ATOM     29  C   UNL     1      -1.074  12.250  21.593  0.00  0.00    +0.000 A 
BRANCH  24  31
ATOM     30  C   UNL     1      -2.353  11.812  18.368  0.00  0.00    +0.000 C 
ATOM     31  O   UNL     1      -1.693  12.634  19.323  0.00  0.00    +0.000 OA
ENDBRANCH  24  31
ENDBRANCH  22  29
ENDBRANCH   1  22
TORSDOF 6
ENDMDL
MODEL 5
REMARK VINA RESULT:      -8.5      5.548      8.778
REMARK  Name = 
REMARK  7 active torsions:
REMARK  status: ('A' for Active; 'I' for Inactive)
REMARK    1  A    between atoms: C_1  and  O_2
REMARK    2  A    between atoms: O_2  and  C_3
REMARK    3  A    between atoms: C_8  and  C_9
REMARK    4  A    between atoms: C_9  and  C_11
REMARK    5  A    between atoms: N_15  and  C_16
REMARK    6  A    between atoms: C_20  and  C_21
REMARK    7  A    between atoms: C_21  and  C_22
REMARK                            x       y       z     vdW  Elec       q    Type
REMARK                         _______ _______ _______ _____ _____    ______ ____
ROOT
ATOM      1  C   UNL     1       9.067   9.991  18.737  0.00  0.00    +0.000 A 
ATOM      2  C   UNL     1       8.189  10.100  17.682  0.00  0.00    +0.000 A 
ATOM      3  N   UNL     1       7.587   8.897  17.425  0.00  0.00    +0.000 NA
ATOM      4  C   UNL     1       8.070   8.046  18.304  0.00  0.00    +0.000 A 
ATOM      5  N   UNL     1       7.756   6.758  18.555  0.00  0.00    +0.000 N 
ATOM      6  N   UNL     1       9.061   8.650  19.033  0.00  0.00    +0.000 N 
ATOM      7  H   UNL     1       8.172   6.277  19.343  0.00  0.00    +0.000 HD
ATOM      8  H   UNL     1       9.641   8.209  19.731  0.00  0.00    +0.000 HD
ENDROOT
BRANCH   5   9
ATOM      9  C   UNL     1       6.844   5.954  17.837  0.00  0.00    +0.000 A 
ATOM     10  C   UNL     1       7.232   4.889  17.018  0.00  0.00    +0.000 A 
ATOM     11  C   UNL     1       6.291   4.047  16.425  0.00  0.00    +0.000 A 
ATOM     12  C   UNL     1       4.933   4.265  16.632  0.00  0.00    +0.000 A 
ATOM     13  C   UNL     1       4.503   5.344  17.413  0.00  0.00    +0.000 A 
ATOM     14  C   UNL     1       5.467   6.171  18.019  0.00  0.00    +0.000 A 
BRANCH  13  15
ATOM     15  C   UNL     1       3.031   5.620  17.591  0.00  0.00    +0.000 C 
BRANCH  15  16
ATOM     16  C   UNL     1       2.319   4.720  18.572  0.00  0.00    +0.000 A 
ATOM     17  C   UNL     1       1.650   3.568  18.131  0.00  0.00    +0.000 A 
ATOM     18  C   UNL     1       1.050   2.700  19.046  0.00  0.00    +0.000 A 
ATOM     19  C   UNL     1       1.101   2.980  20.409  0.00  0.00    +0.000 A 
ATOM     20  C   UNL     1       1.743   4.132  20.860  0.00  0.00    +0.000 A 
ATOM     21  C   UNL     1       2.343   5.001  19.946  0.00  0.00    +0.000 A 
ENDBRANCH  15  16
ENDBRANCH  13  15
ENDBRANCH   5   9
BRANCH   1  22
ATOM     22  C   UNL     1       9.867  10.949  19.450  0.00  0.00    +0.000 C 
ATOM     23  O   UNL     1      11.082  11.008  19.262  0.00  0.00    +0.000 OA
BRANCH  22  29
ATOM     24  C   UNL     1       8.890  13.193  20.238  0.00  0.00    +0.000 A 
ATOM     25  C   UNL     1       8.268  13.922  21.261  0.00  0.00    +0.000 A 
ATOM     26  C   UNL     1       7.982  13.328  22.492  0.00  0.00    +0.000 A 
ATOM     27  C   UNL     1       8.333  12.003  22.723  0.00  0.00    +0.000 A 
ATOM     28  C   UNL     1       8.979  11.273  21.728  0.00  0.00    +0.000 A 
ATOM     29  C   UNL     1       9.274  11.857  20.482  0.00  0.00    +0.000 A 
BRANCH  24  31
ATOM     30  C   UNL     1       8.023  13.850  18.104  0.00  0.00    +0.000 C 
ATOM     31  O   UNL     1       9.122  13.714  18.996  0.00  0.00    +0.000 OA
ENDBRANCH  24  31
ENDBRANCH  22  29
ENDBRANCH   1  22
TORSDOF 6
ENDMDL
MODEL 6
REMARK VINA RESULT:      -8.4      6.186      8.246
REMARK  Name = 
REMARK  7 active torsions:
REMARK  status: ('A' for Active; 'I' for Inactive)
REMARK    1  A    between atoms: C_1  and  O_2
REMARK    2  A    between atoms: O_2  and  C_3
REMARK    3  A    between atoms: C_8  and  C_9
REMARK    4  A    between atoms: C_9  and  C_11
REMARK    5  A    between atoms: N_15  and  C_16
REMARK    6  A    between atoms: C_20  and  C_21
REMARK    7  A    between atoms: C_21  and  C_22
REMARK                            x       y       z     vdW  Elec       q    Type
REMARK                         _______ _______ _______ _____ _____    ______ ____
ROOT
ATOM      1  C   UNL     1       7.416   6.455  17.761  0.00  0.00    +0.000 A 
ATOM      2  C   UNL     1       7.000   7.560  17.053  0.00  0.00    +0.000 A 
ATOM      3  N   UNL     1       7.588   8.698  17.538  0.00  0.00    +0.000 NA
ATOM      4  C   UNL     1       8.365   8.318  18.529  0.00  0.00    +0.000 A 
ATOM      5  N   UNL     1       9.235   9.016  19.291  0.00  0.00    +0.000 N 
ATOM      6  N   UNL     1       8.187   6.981  18.769  0.00  0.00    +0.000 N 
ATOM      7  H   UNL     1       9.825   8.535  19.958  0.00  0.00    +0.000 HD
ATOM      8  H   UNL     1       8.611   6.445  19.511  0.00  0.00    +0.000 HD
ENDROOT
BRANCH   5   9
ATOM      9  C   UNL     1       9.463  10.408  19.255  0.00  0.00    +0.000 A 
ATOM     10  C   UNL     1       9.689  11.123  18.074  0.00  0.00    +0.000 A 
ATOM     11  C   UNL     1       9.789  12.515  18.074  0.00  0.00    +0.000 A 
ATOM     12  C   UNL     1       9.676  13.221  19.268  0.00  0.00    +0.000 A 
ATOM     13  C   UNL     1       9.490  12.539  20.475  0.00  0.00    +0.000 A 
ATOM     14  C   UNL     1       9.371  11.137  20.454  0.00  0.00    +0.000 A 
BRANCH  13  15
ATOM     15  C   UNL     1       9.427  13.296  21.778  0.00  0.00    +0.000 C 
BRANCH  15  16
ATOM     16  C   UNL     1       8.290  12.912  22.696  0.00  0.00    +0.000 A 
ATOM     17  C   UNL     1       8.519  12.101  23.817  0.00  0.00    +0.000 A 
ATOM     18  C   UNL     1       7.481  11.802  24.702  0.00  0.00    +0.000 A 
ATOM     19  C   UNL     1       6.202  12.299  24.469  0.00  0.00    +0.000 A 
ATOM     20  C   UNL     1       5.955  13.089  23.347  0.00  0.00    +0.000 A 
ATOM     21  C   UNL     1       6.992  13.388  22.462  0.00  0.00    +0.000 A 
ENDBRANCH  15  16
ENDBRANCH  13  15
ENDBRANCH   5   9
BRANCH   1  22
ATOM     22  C   UNL     1       7.178   5.046  17.608  0.00  0.00    +0.000 C 
ATOM     23  O   UNL     1       8.109   4.282  17.350  0.00  0.00    +0.000 OA
BRANCH  22  29
ATOM     24  C   UNL     1       4.938   4.305  16.586  0.00  0.00    +0.000 A 
ATOM     25  C   UNL     1       3.701   3.671  16.773  0.00  0.00    +0.000 A 
ATOM     26  C   UNL     1       3.341   3.157  18.019  0.00  0.00    +0.000 A 
ATOM     27  C   UNL     1       4.203   3.287  19.102  0.00  0.00    +0.000 A 
ATOM     28  C   UNL     1       5.422   3.941  18.941  0.00  0.00    +0.000 A 
ATOM     29  C   UNL     1       5.800   4.465  17.691  0.00  0.00    +0.000 A 
BRANCH  24  31
ATOM     30  C   UNL     1       6.011   3.843  14.496  0.00  0.00    +0.000 C 
ATOM     31  O   UNL     1       5.359   4.758  15.368  0.00  0.00    +0.000 OA
ENDBRANCH  24  31
ENDBRANCH  22  29
ENDBRANCH   1  22
TORSDOF 6
ENDMDL
MODEL 7
REMARK VINA RESULT:      -8.4      3.462      9.343
REMARK  Name = 
REMARK  7 active torsions:
REMARK  status: ('A' for Active; 'I' for Inactive)
REMARK    1  A    between atoms: C_1  and  O_2
REMARK    2  A    between atoms: O_2  and  C_3
REMARK    3  A    between atoms: C_8  and  C_9
REMARK    4  A    between atoms: C_9  and  C_11
REMARK    5  A    between atoms: N_15  and  C_16
REMARK    6  A    between atoms: C_20  and  C_21
REMARK    7  A    between atoms: C_21  and  C_22
REMARK                            x       y       z     vdW  Elec       q    Type
REMARK                         _______ _______ _______ _____ _____    ______ ____
ROOT
ATOM      1  C   UNL     1       0.774  10.691  20.007  0.00  0.00    +0.000 A 
ATOM      2  C   UNL     1       0.868  10.131  18.753  0.00  0.00    +0.000 A 
ATOM      3  N   UNL     1       1.279   8.827  18.832  0.00  0.00    +0.000 NA
ATOM      4  C   UNL     1       1.434   8.566  20.111  0.00  0.00    +0.000 A 
ATOM      5  N   UNL     1       1.736   7.415  20.750  0.00  0.00    +0.000 N 
ATOM      6  N   UNL     1       1.255   9.712  20.841  0.00  0.00    +0.000 N 
ATOM      7  H   UNL     1       1.724   7.378  21.762  0.00  0.00    +0.000 HD
ATOM      8  H   UNL     1       1.376   9.810  21.838  0.00  0.00    +0.000 HD
ENDROOT
BRANCH   5   9
ATOM      9  C   UNL     1       2.055   6.176  20.155  0.00  0.00    +0.000 A 
ATOM     10  C   UNL     1       1.370   4.988  20.431  0.00  0.00    +0.000 A 
ATOM     11  C   UNL     1       1.641   3.813  19.729  0.00  0.00    +0.000 A 
ATOM     12  C   UNL     1       2.620   3.802  18.740  0.00  0.00    +0.000 A 
ATOM     13  C   UNL     1       3.355   4.960  18.464  0.00  0.00    +0.000 A 
ATOM     14  C   UNL     1       3.055   6.141  19.167  0.00  0.00    +0.000 A 
BRANCH  13  15
ATOM     15  C   UNL     1       4.458   4.937  17.435  0.00  0.00    +0.000 C 
BRANCH  15  16
ATOM     16  C   UNL     1       5.715   5.681  17.818  0.00  0.00    +0.000 A 
ATOM     17  C   UNL     1       6.530   5.219  18.862  0.00  0.00    +0.000 A 
ATOM     18  C   UNL     1       7.727   5.869  19.171  0.00  0.00    +0.000 A 
ATOM     19  C   UNL     1       8.116   6.994  18.448  0.00  0.00    +0.000 A 
ATOM     20  C   UNL     1       7.306   7.476  17.421  0.00  0.00    +0.000 A 
ATOM     21  C   UNL     1       6.109   6.827  17.112  0.00  0.00    +0.000 A 
ENDBRANCH  15  16
ENDBRANCH  13  15
ENDBRANCH   5   9
BRANCH   1  22
ATOM     22  C   UNL     1       0.314  11.968  20.479  0.00  0.00    +0.000 C 
ATOM     23  O   UNL     1       1.033  12.963  20.383  0.00  0.00    +0.000 OA
BRANCH  22  29
ATOM     24  C   UNL     1      -1.290  11.702  22.471  0.00  0.00    +0.000 A 
ATOM     25  C   UNL     1      -2.546  11.981  23.028  0.00  0.00    +0.000 A 
ATOM     26  C   UNL     1      -3.499  12.712  22.316  0.00  0.00    +0.000 A 
ATOM     27  C   UNL     1      -3.215  13.158  21.030  0.00  0.00    +0.000 A 
ATOM     28  C   UNL     1      -1.984  12.864  20.450  0.00  0.00    +0.000 A 
ATOM     29  C   UNL     1      -1.013  12.128  21.154  0.00  0.00    +0.000 A 
BRANCH  24  31
ATOM     30  C   UNL     1      -0.465   9.663  23.417  0.00  0.00    +0.000 C 
ATOM     31  O   UNL     1      -0.305  11.052  23.160  0.00  0.00    +0.000 OA
ENDBRANCH  24  31
ENDBRANCH  22  29
ENDBRANCH   1  22
TORSDOF 6
ENDMDL
MODEL 8
REMARK VINA RESULT:      -8.4      0.716      1.207
REMARK  Name = 
REMARK  7 active torsions:
REMARK  status: ('A' for Active; 'I' for Inactive)
REMARK    1  A    between atoms: C_1  and  O_2
REMARK    2  A    between atoms: O_2  and  C_3
REMARK    3  A    between atoms: C_8  and  C_9
REMARK    4  A    between atoms: C_9  and  C_11
REMARK    5  A    between atoms: N_15  and  C_16
REMARK    6  A    between atoms: C_20  and  C_21
REMARK    7  A    between atoms: C_21  and  C_22
REMARK                            x       y       z     vdW  Elec       q    Type
REMARK                         _______ _______ _______ _____ _____    ______ ____
ROOT
ATOM      1  C   UNL     1       3.381   4.711  19.088  0.00  0.00    +0.000 A 
ATOM      2  C   UNL     1       2.480   4.567  20.119  0.00  0.00    +0.000 A 
ATOM      3  N   UNL     1       1.881   5.763  20.412  0.00  0.00    +0.000 NA
ATOM      4  C   UNL     1       2.389   6.645  19.579  0.00  0.00    +0.000 A 
ATOM      5  N   UNL     1       2.089   7.945  19.373  0.00  0.00    +0.000 N 
ATOM      6  N   UNL     1       3.391   6.063  18.846  0.00  0.00    +0.000 N 
ATOM      7  H   UNL     1       2.526   8.453  18.614  0.00  0.00    +0.000 HD
ATOM      8  H   UNL     1       3.988   6.527  18.179  0.00  0.00    +0.000 HD
ENDROOT
BRANCH   5   9
ATOM      9  C   UNL     1       1.168   8.727  20.104  0.00  0.00    +0.000 A 
ATOM     10  C   UNL     1       0.825   8.472  21.435  0.00  0.00    +0.000 A 
ATOM     11  C   UNL     1       0.004   9.342  22.153  0.00  0.00    +0.000 A 
ATOM     12  C   UNL     1      -0.503  10.485  21.543  0.00  0.00    +0.000 A 
ATOM     13  C   UNL     1      -0.216  10.753  20.200  0.00  0.00    +0.000 A 
ATOM     14  C   UNL     1       0.630   9.875  19.497  0.00  0.00    +0.000 A 
BRANCH  13  15
ATOM     15  C   UNL     1      -0.812  11.959  19.518  0.00  0.00    +0.000 C 
BRANCH  15  16
ATOM     16  C   UNL     1      -2.223  11.781  19.008  0.00  0.00    +0.000 A 
ATOM     17  C   UNL     1      -2.481  10.996  17.874  0.00  0.00    +0.000 A 
ATOM     18  C   UNL     1      -3.792  10.777  17.445  0.00  0.00    +0.000 A 
ATOM     19  C   UNL     1      -4.856  11.350  18.135  0.00  0.00    +0.000 A 
ATOM     20  C   UNL     1      -4.614  12.149  19.251  0.00  0.00    +0.000 A 
ATOM     21  C   UNL     1      -3.304  12.369  19.682  0.00  0.00    +0.000 A 
ENDBRANCH  15  16
ENDBRANCH  13  15
ENDBRANCH   5   9
BRANCH   1  22
ATOM     22  C   UNL     1       4.188   3.776  18.353  0.00  0.00    +0.000 C 
ATOM     23  O   UNL     1       4.114   2.570  18.589  0.00  0.00    +0.000 OA
BRANCH  22  29
ATOM     24  C   UNL     1       6.527   4.555  17.620  0.00  0.00    +0.000 A 
ATOM     25  C   UNL     1       7.390   4.886  16.566  0.00  0.00    +0.000 A 
ATOM     26  C   UNL     1       6.951   4.848  15.241  0.00  0.00    +0.000 A 
ATOM     27  C   UNL     1       5.637   4.497  14.954  0.00  0.00    +0.000 A 
ATOM     28  C   UNL     1       4.757   4.195  15.991  0.00  0.00    +0.000 A 
ATOM     29  C   UNL     1       5.184   4.229  17.331  0.00  0.00    +0.000 A 
BRANCH  24  31
ATOM     30  C   UNL     1       7.498   5.684  19.495  0.00  0.00    +0.000 C 
ATOM     31  O   UNL     1       6.936   4.510  18.923  0.00  0.00    +0.000 OA
ENDBRANCH  24  31
ENDBRANCH  22  29
ENDBRANCH   1  22
TORSDOF 6
ENDMDL
MODEL 9
REMARK VINA RESULT:      -8.3      6.169      9.234
REMARK  Name = 
REMARK  7 active torsions:
REMARK  status: ('A' for Active; 'I' for Inactive)
REMARK    1  A    between atoms: C_1  and  O_2
REMARK    2  A    between atoms: O_2  and  C_3
REMARK    3  A    between atoms: C_8  and  C_9
REMARK    4  A    between atoms: C_9  and  C_11
REMARK    5  A    between atoms: N_15  and  C_16
REMARK    6  A    between atoms: C_20  and  C_21
REMARK    7  A    between atoms: C_21  and  C_22
REMARK                            x       y       z     vdW  Elec       q    Type
REMARK                         _______ _______ _______ _____ _____    ______ ____
ROOT
ATOM      1  C   UNL     1       6.931   6.202  17.528  0.00  0.00    +0.000 A 
ATOM      2  C   UNL     1       7.788   6.134  18.603  0.00  0.00    +0.000 A 
ATOM      3  N   UNL     1       8.390   7.344  18.824  0.00  0.00    +0.000 NA
ATOM      4  C   UNL     1       7.917   8.163  17.910  0.00  0.00    +0.000 A 
ATOM      5  N   UNL     1       8.103   9.488  17.725  0.00  0.00    +0.000 N 
ATOM      6  N   UNL     1       7.125   7.469  17.033  0.00  0.00    +0.000 N 
ATOM      7  H   UNL     1       7.579   9.981  17.013  0.00  0.00    +0.000 HD
ATOM      8  H   UNL     1       6.686   7.839  16.204  0.00  0.00    +0.000 HD
ENDROOT
BRANCH   5   9
ATOM      9  C   UNL     1       8.963  10.332  18.461  0.00  0.00    +0.000 A 
ATOM     10  C   UNL     1       9.020  10.347  19.859  0.00  0.00    +0.000 A 
ATOM     11  C   UNL     1       9.970  11.109  20.539  0.00  0.00    +0.000 A 
ATOM     12  C   UNL     1      10.879  11.886  19.829  0.00  0.00    +0.000 A 
ATOM     13  C   UNL     1      10.828  11.929  18.431  0.00  0.00    +0.000 A 
ATOM     14  C   UNL     1       9.876  11.139  17.760  0.00  0.00    +0.000 A 
BRANCH  13  15
ATOM     15  C   UNL     1      11.772  12.817  17.659  0.00  0.00    +0.000 C 
BRANCH  15  16
ATOM     16  C   UNL     1      11.354  14.264  17.549  0.00  0.00    +0.000 A 
ATOM     17  C   UNL     1      10.010  14.634  17.703  0.00  0.00    +0.000 A 
ATOM     18  C   UNL     1       9.634  15.979  17.670  0.00  0.00    +0.000 A 
ATOM     19  C   UNL     1      10.596  16.966  17.469  0.00  0.00    +0.000 A 
ATOM     20  C   UNL     1      11.932  16.612  17.294  0.00  0.00    +0.000 A 
ATOM     21  C   UNL     1      12.309  15.268  17.327  0.00  0.00    +0.000 A 
ENDBRANCH  15  16
ENDBRANCH  13  15
ENDBRANCH   5   9
BRANCH   1  22
ATOM     22  C   UNL     1       6.010   5.265  16.946  0.00  0.00    +0.000 C 
ATOM     23  O   UNL     1       6.215   4.807  15.821  0.00  0.00    +0.000 OA
BRANCH  22  29
ATOM     24  C   UNL     1       3.610   5.682  17.767  0.00  0.00    +0.000 A 
ATOM     25  C   UNL     1       2.456   5.163  18.373  0.00  0.00    +0.000 A 
ATOM     26  C   UNL     1       2.410   3.837  18.808  0.00  0.00    +0.000 A 
ATOM     27  C   UNL     1       3.523   3.018  18.661  0.00  0.00    +0.000 A 
ATOM     28  C   UNL     1       4.688   3.526  18.090  0.00  0.00    +0.000 A 
ATOM     29  C   UNL     1       4.750   4.860  17.646  0.00  0.00    +0.000 A 
BRANCH  24  31
ATOM     30  C   UNL     1       2.958   7.980  17.936  0.00  0.00    +0.000 C 
ATOM     31  O   UNL     1       3.672   6.950  17.263  0.00  0.00    +0.000 OA
ENDBRANCH  24  31
ENDBRANCH  22  29
ENDBRANCH   1  22
TORSDOF 6
ENDMDL
