MODEL 1
REMARK VINA RESULT:      -7.5      0.000      0.000
REMARK  Name = 
REMARK  11 active torsions:
REMARK  status: ('A' for Active; 'I' for Inactive)
REMARK    1  A    between atoms: C_1  and  O_2
REMARK    2  A    between atoms: O_2  and  C_3
REMARK    3  A    between atoms: C_6  and  C_7
REMARK    4  A    between atoms: C_7  and  O_9
REMARK    5  A    between atoms: O_9  and  C_10
REMARK    6  A    between atoms: C_10  and  C_11
REMARK    7  A    between atoms: C_13  and  C_14
REMARK    8  A    between atoms: C_15  and  C_16
REMARK    9  A    between atoms: C_18  and  C_19
REMARK   10  A    between atoms: C_21  and  O_22
REMARK   11  A    between atoms: O_22  and  C_23
REMARK                            x       y       z     vdW  Elec       q    Type
REMARK                         _______ _______ _______ _____ _____    ______ ____
ROOT
ATOM      1  C   UNL     1       4.427   3.071  18.610  0.00  0.00    +0.000 C 
ATOM      2  O   UNL     1       4.730   2.458  19.625  0.00  0.00    +0.000 OA
ENDROOT
BRANCH   1   6
ATOM      3  C   UNL     1       6.930   6.265  17.208  0.00  0.00    +0.000 A 
ATOM      4  C   UNL     1       6.648   6.105  18.576  0.00  0.00    +0.000 A 
ATOM      5  C   UNL     1       5.808   5.084  19.021  0.00  0.00    +0.000 A 
ATOM      6  C   UNL     1       5.195   4.236  18.098  0.00  0.00    +0.000 A 
ATOM      7  C   UNL     1       5.391   4.463  16.730  0.00  0.00    +0.000 A 
ATOM      8  C   UNL     1       6.247   5.475  16.271  0.00  0.00    +0.000 A 
BRANCH   3  10
ATOM      9  C   UNL     1       8.019   8.313  17.655  0.00  0.00    +0.000 C 
ATOM     10  O   UNL     1       7.851   7.186  16.790  0.00  0.00    +0.000 OA
ENDBRANCH   3  10
BRANCH   8  11
ATOM     11  O   UNL     1       6.306   5.508  14.902  0.00  0.00    +0.000 OA
ATOM     12  C   UNL     1       6.408   4.296  14.177  0.00  0.00    +0.000 C 
ENDBRANCH   8  11
ENDBRANCH   1   6
BRANCH   1  13
ATOM     13  O   UNL     1       3.432   2.742  17.755  0.00  0.00    +0.000 OA
BRANCH  13  14
ATOM     14  C   UNL     1       2.108   2.931  18.283  0.00  0.00    +0.000 C 
BRANCH  14  15
ATOM     15  C   UNL     1       1.984   4.279  18.967  0.00  0.00    +0.000 A 
ATOM     16  N   UNL     1       2.241   5.389  18.221  0.00  0.00    +0.000 NA
ATOM     17  C   UNL     1       2.129   6.598  18.824  0.00  0.00    +0.000 A 
ATOM     18  C   UNL     1       2.376   7.787  17.950  0.00  0.00    +0.000 C 
ATOM     19  C   UNL     1       1.791   6.702  20.171  0.00  0.00    +0.000 A 
ATOM     20  C   UNL     1       1.668   8.009  20.892  0.00  0.00    +0.000 C 
ATOM     21  N   UNL     1       1.542   5.598  20.923  0.00  0.00    +0.000 NA
ATOM     22  C   UNL     1       1.628   4.388  20.311  0.00  0.00    +0.000 A 
ATOM     23  C   UNL     1       1.325   3.195  21.164  0.00  0.00    +0.000 C 
ENDBRANCH  14  15
ENDBRANCH  13  14
ENDBRANCH   1  13
TORSDOF 6
ENDMDL
MODEL 2
REMARK VINA RESULT:      -7.2      1.890      3.547
REMARK  Name = 
REMARK  11 active torsions:
REMARK  status: ('A' for Active; 'I' for Inactive)
REMARK    1  A    between atoms: C_1  and  O_2
REMARK    2  A    between atoms: O_2  and  C_3
REMARK    3  A    between atoms: C_6  and  C_7
REMARK    4  A    between atoms: C_7  and  O_9
REMARK    5  A    between atoms: O_9  and  C_10
REMARK    6  A    between atoms: C_10  and  C_11
REMARK    7  A    between atoms: C_13  and  C_14
REMARK    8  A    between atoms: C_15  and  C_16
REMARK    9  A    between atoms: C_18  and  C_19
REMARK   10  A    between atoms: C_21  and  O_22
REMARK   11  A    between atoms: O_22  and  C_23
REMARK                            x       y       z     vdW  Elec       q    Type
REMARK                         _______ _______ _______ _____ _____    ______ ____
ROOT
ATOM      1  C   UNL     1       3.027   3.836  19.023  0.00  0.00    +0.000 C 
ATOM      2  O   UNL     1       2.744   2.740  19.486  0.00  0.00    +0.000 OA
ENDROOT
BRANCH   1   6
ATOM      3  C   UNL     1       6.291   4.842  16.421  0.00  0.00    +0.000 A 
ATOM      4  C   UNL     1       5.005   4.586  15.914  0.00  0.00    +0.000 A 
ATOM      5  C   UNL     1       3.957   4.228  16.763  0.00  0.00    +0.000 A 
ATOM      6  C   UNL     1       4.191   4.072  18.129  0.00  0.00    +0.000 A 
ATOM      7  C   UNL     1       5.495   4.222  18.618  0.00  0.00    +0.000 A 
ATOM      8  C   UNL     1       6.553   4.599  17.778  0.00  0.00    +0.000 A 
BRANCH   3  10
ATOM      9  C   UNL     1       7.171   4.925  14.231  0.00  0.00    +0.000 C 
ATOM     10  O   UNL     1       7.280   5.313  15.603  0.00  0.00    +0.000 OA
ENDBRANCH   3  10
BRANCH   8  11
ATOM     11  O   UNL     1       7.734   4.706  18.465  0.00  0.00    +0.000 OA
ATOM     12  C   UNL     1       7.989   5.865  19.238  0.00  0.00    +0.000 C 
ENDBRANCH   8  11
ENDBRANCH   1   6
BRANCH   1  13
ATOM     13  O   UNL     1       2.295   4.966  19.160  0.00  0.00    +0.000 OA
BRANCH  13  14
ATOM     14  C   UNL     1       2.924   5.991  19.947  0.00  0.00    +0.000 C 
BRANCH  14  15
ATOM     15  C   UNL     1       2.138   7.285  19.881  0.00  0.00    +0.000 A 
ATOM     16  N   UNL     1       1.358   7.603  20.951  0.00  0.00    +0.000 NA
ATOM     17  C   UNL     1       0.654   8.761  20.902  0.00  0.00    +0.000 A 
ATOM     18  C   UNL     1      -0.150   9.087  22.122  0.00  0.00    +0.000 C 
ATOM     19  C   UNL     1       0.703   9.586  19.781  0.00  0.00    +0.000 A 
ATOM     20  C   UNL     1      -0.065  10.867  19.665  0.00  0.00    +0.000 C 
ATOM     21  N   UNL     1       1.472   9.270  18.706  0.00  0.00    +0.000 NA
ATOM     22  C   UNL     1       2.198   8.123  18.768  0.00  0.00    +0.000 A 
ATOM     23  C   UNL     1       3.051   7.818  17.575  0.00  0.00    +0.000 C 
ENDBRANCH  14  15
ENDBRANCH  13  14
ENDBRANCH   1  13
TORSDOF 6
ENDMDL
MODEL 3
REMARK VINA RESULT:      -7.2      2.465      5.526
REMARK  Name = 
REMARK  11 active torsions:
REMARK  status: ('A' for Active; 'I' for Inactive)
REMARK    1  A    between atoms: C_1  and  O_2
REMARK    2  A    between atoms: O_2  and  C_3
REMARK    3  A    between atoms: C_6  and  C_7
REMARK    4  A    between atoms: C_7  and  O_9
REMARK    5  A    between atoms: O_9  and  C_10
REMARK    6  A    between atoms: C_10  and  C_11
REMARK    7  A    between atoms: C_13  and  C_14
REMARK    8  A    between atoms: C_15  and  C_16
REMARK    9  A    between atoms: C_18  and  C_19
REMARK   10  A    between atoms: C_21  and  O_22
REMARK   11  A    between atoms: O_22  and  C_23
REMARK                            x       y       z     vdW  Elec       q    Type
REMARK                         _______ _______ _______ _____ _____    ______ ____
ROOT
ATOM      1  C   UNL     1       2.967   3.531  18.185  0.00  0.00    +0.000 C 
ATOM      2  O   UNL     1       2.903   2.435  18.726  0.00  0.00    +0.000 OA
ENDROOT
BRANCH   1   6
ATOM      3  C   UNL     1       1.871   7.137  20.240  0.00  0.00    +0.000 A 
ATOM      4  C   UNL     1       1.546   5.873  20.761  0.00  0.00    +0.000 A 
ATOM      5  C   UNL     1       1.877   4.706  20.071  0.00  0.00    +0.000 A 
ATOM      6  C   UNL     1       2.495   4.787  18.823  0.00  0.00    +0.000 A 
ATOM      7  C   UNL     1       2.721   6.048  18.257  0.00  0.00    +0.000 A 
ATOM      8  C   UNL     1       2.409   7.228  18.947  0.00  0.00    +0.000 A 
BRANCH   3  10
ATOM      9  C   UNL     1       0.292   8.522  21.322  0.00  0.00    +0.000 C 
ATOM     10  O   UNL     1       1.657   8.270  20.977  0.00  0.00    +0.000 OA
ENDBRANCH   3  10
BRANCH   8  11
ATOM     11  O   UNL     1       2.729   8.344  18.218  0.00  0.00    +0.000 OA
ATOM     12  C   UNL     1       1.699   9.217  17.789  0.00  0.00    +0.000 C 
ENDBRANCH   8  11
ENDBRANCH   1   6
BRANCH   1  13
ATOM     13  O   UNL     1       3.550   3.791  16.992  0.00  0.00    +0.000 OA
BRANCH  13  14
ATOM     14  C   UNL     1       4.943   3.444  16.923  0.00  0.00    +0.000 C 
BRANCH  14  15
ATOM     15  C   UNL     1       5.817   4.647  17.219  0.00  0.00    +0.000 A 
ATOM     16  N   UNL     1       6.518   4.642  18.386  0.00  0.00    +0.000 NA
ATOM     17  C   UNL     1       7.306   5.712  18.657  0.00  0.00    +0.000 A 
ATOM     18  C   UNL     1       8.092   5.638  19.929  0.00  0.00    +0.000 C 
ATOM     19  C   UNL     1       7.372   6.796  17.784  0.00  0.00    +0.000 A 
ATOM     20  C   UNL     1       8.212   8.010  18.040  0.00  0.00    +0.000 C 
ATOM     21  N   UNL     1       6.668   6.811  16.623  0.00  0.00    +0.000 NA
ATOM     22  C   UNL     1       5.900   5.726  16.340  0.00  0.00    +0.000 A 
ATOM     23  C   UNL     1       5.156   5.767  15.041  0.00  0.00    +0.000 C 
ENDBRANCH  14  15
ENDBRANCH  13  14
ENDBRANCH   1  13
TORSDOF 6
ENDMDL
MODEL 4
REMARK VINA RESULT:      -7.2      2.681      6.207
REMARK  Name = 
REMARK  11 active torsions:
REMARK  status: ('A' for Active; 'I' for Inactive)
REMARK    1  A    between atoms: C_1  and  O_2
REMARK    2  A    between atoms: O_2  and  C_3
REMARK    3  A    between atoms: C_6  and  C_7
REMARK    4  A    between atoms: C_7  and  O_9
REMARK    5  A    between atoms: O_9  and  C_10
REMARK    6  A    between atoms: C_10  and  C_11
REMARK    7  A    between atoms: C_13  and  C_14
REMARK    8  A    between atoms: C_15  and  C_16
REMARK    9  A    between atoms: C_18  and  C_19
REMARK   10  A    between atoms: C_21  and  O_22
REMARK   11  A    between atoms: O_22  and  C_23
REMARK                            x       y       z     vdW  Elec       q    Type
REMARK                         _______ _______ _______ _____ _____    ______ ____
ROOT
ATOM      1  C   UNL     1       2.968   3.701  18.461  0.00  0.00    +0.000 C 
ATOM      2  O   UNL     1       2.800   2.603  18.974  0.00  0.00    +0.000 OA
ENDROOT
BRANCH   1   6
ATOM      3  C   UNL     1       1.746   7.342  20.380  0.00  0.00    +0.000 A 
ATOM      4  C   UNL     1       1.427   6.086  20.926  0.00  0.00    +0.000 A 
ATOM      5  C   UNL     1       1.800   4.907  20.279  0.00  0.00    +0.000 A 
ATOM      6  C   UNL     1       2.455   4.965  19.049  0.00  0.00    +0.000 A 
ATOM      7  C   UNL     1       2.676   6.214  18.455  0.00  0.00    +0.000 A 
ATOM      8  C   UNL     1       2.323   7.407  19.102  0.00  0.00    +0.000 A 
BRANCH   3  10
ATOM      9  C   UNL     1       0.111   8.864  21.149  0.00  0.00    +0.000 C 
ATOM     10  O   UNL     1       1.490   8.489  21.079  0.00  0.00    +0.000 OA
ENDBRANCH   3  10
BRANCH   8  11
ATOM     11  O   UNL     1       2.646   8.508  18.353  0.00  0.00    +0.000 OA
ATOM     12  C   UNL     1       1.613   9.301  17.795  0.00  0.00    +0.000 C 
ENDBRANCH   8  11
ENDBRANCH   1   6
BRANCH   1  13
ATOM     13  O   UNL     1       3.709   3.954  17.358  0.00  0.00    +0.000 OA
BRANCH  13  14
ATOM     14  C   UNL     1       5.113   4.128  17.612  0.00  0.00    +0.000 C 
BRANCH  14  15
ATOM     15  C   UNL     1       5.857   4.468  16.335  0.00  0.00    +0.000 A 
ATOM     16  N   UNL     1       5.461   3.844  15.192  0.00  0.00    +0.000 NA
ATOM     17  C   UNL     1       6.118   4.146  14.044  0.00  0.00    +0.000 A 
ATOM     18  C   UNL     1       5.614   3.469  12.808  0.00  0.00    +0.000 C 
ATOM     19  C   UNL     1       7.183   5.043  14.040  0.00  0.00    +0.000 A 
ATOM     20  C   UNL     1       7.955   5.401  12.806  0.00  0.00    +0.000 C 
ATOM     21  N   UNL     1       7.589   5.662  15.179  0.00  0.00    +0.000 NA
ATOM     22  C   UNL     1       6.912   5.379  16.323  0.00  0.00    +0.000 A 
ATOM     23  C   UNL     1       7.372   6.097  17.555  0.00  0.00    +0.000 C 
ENDBRANCH  14  15
ENDBRANCH  13  14
ENDBRANCH   1  13
TORSDOF 6
ENDMDL
MODEL 5
REMARK VINA RESULT:      -7.1      2.884      5.837
REMARK  Name = 
REMARK  11 active torsions:
REMARK  status: ('A' for Active; 'I' for Inactive)
REMARK    1  A    between atoms: C_1  and  O_2
REMARK    2  A    between atoms: O_2  and  C_3
REMARK    3  A    between atoms: C_6  and  C_7
REMARK    4  A    between atoms: C_7  and  O_9
REMARK    5  A    between atoms: O_9  and  C_10
REMARK    6  A    between atoms: C_10  and  C_11
REMARK    7  A    between atoms: C_13  and  C_14
REMARK    8  A    between atoms: C_15  and  C_16
REMARK    9  A    between atoms: C_18  and  C_19
REMARK   10  A    between atoms: C_21  and  O_22
REMARK   11  A    between atoms: O_22  and  C_23
REMARK                            x       y       z     vdW  Elec       q    Type
REMARK                         _______ _______ _______ _____ _____    ______ ____
ROOT
ATOM      1  C   UNL     1       1.892   4.560  20.206  0.00  0.00    +0.000 C 
ATOM      2  O   UNL     1       0.906   3.860  20.021  0.00  0.00    +0.000 OA
ENDROOT
BRANCH   1   6
ATOM      3  C   UNL     1       1.647   8.764  19.372  0.00  0.00    +0.000 A 
ATOM      4  C   UNL     1       2.144   7.858  18.418  0.00  0.00    +0.000 A 
ATOM      5  C   UNL     1       2.250   6.498  18.708  0.00  0.00    +0.000 A 
ATOM      6  C   UNL     1       1.909   6.028  19.977  0.00  0.00    +0.000 A 
ATOM      7  C   UNL     1       1.516   6.946  20.959  0.00  0.00    +0.000 A 
ATOM      8  C   UNL     1       1.388   8.313  20.675  0.00  0.00    +0.000 A 
BRANCH   3  10
ATOM      9  C   UNL     1       2.177  10.550  17.919  0.00  0.00    +0.000 C 
ATOM     10  O   UNL     1       1.427  10.073  19.039  0.00  0.00    +0.000 OA
ENDBRANCH   3  10
BRANCH   8  11
ATOM     11  O   UNL     1       0.974   9.025  21.771  0.00  0.00    +0.000 OA
ATOM     12  C   UNL     1      -0.390   8.992  22.151  0.00  0.00    +0.000 C 
ENDBRANCH   8  11
ENDBRANCH   1   6
BRANCH   1  13
ATOM     13  O   UNL     1       3.070   4.146  20.727  0.00  0.00    +0.000 OA
BRANCH  13  14
ATOM     14  C   UNL     1       3.685   3.058  20.016  0.00  0.00    +0.000 C 
BRANCH  14  15
ATOM     15  C   UNL     1       4.496   3.569  18.841  0.00  0.00    +0.000 A 
ATOM     16  N   UNL     1       5.672   4.198  19.116  0.00  0.00    +0.000 NA
ATOM     17  C   UNL     1       6.406   4.655  18.071  0.00  0.00    +0.000 A 
ATOM     18  C   UNL     1       7.711   5.298  18.422  0.00  0.00    +0.000 C 
ATOM     19  C   UNL     1       5.958   4.511  16.760  0.00  0.00    +0.000 A 
ATOM     20  C   UNL     1       6.719   5.009  15.569  0.00  0.00    +0.000 C 
ATOM     21  N   UNL     1       4.782   3.892  16.480  0.00  0.00    +0.000 NA
ATOM     22  C   UNL     1       4.061   3.411  17.526  0.00  0.00    +0.000 A 
ATOM     23  C   UNL     1       2.781   2.715  17.180  0.00  0.00    +0.000 C 
ENDBRANCH  14  15
ENDBRANCH  13  14
ENDBRANCH   1  13
TORSDOF 6
ENDMDL
MODEL 6
REMARK VINA RESULT:      -7.1      3.293      6.835
REMARK  Name = 
REMARK  11 active torsions:
REMARK  status: ('A' for Active; 'I' for Inactive)
REMARK    1  A    between atoms: C_1  and  O_2
REMARK    2  A    between atoms: O_2  and  C_3
REMARK    3  A    between atoms: C_6  and  C_7
REMARK    4  A    between atoms: C_7  and  O_9
REMARK    5  A    between atoms: O_9  and  C_10
REMARK    6  A    between atoms: C_10  and  C_11
REMARK    7  A    between atoms: C_13  and  C_14
REMARK    8  A    between atoms: C_15  and  C_16
REMARK    9  A    between atoms: C_18  and  C_19
REMARK   10  A    between atoms: C_21  and  O_22
REMARK   11  A    between atoms: O_22  and  C_23
REMARK                            x       y       z     vdW  Elec       q    Type
REMARK                         _______ _______ _______ _____ _____    ______ ____
ROOT
ATOM      1  C   UNL     1       3.080   5.676  18.803  0.00  0.00    +0.000 C 
ATOM      2  O   UNL     1       2.482   4.650  19.095  0.00  0.00    +0.000 OA
ENDROOT
BRANCH   1   6
ATOM      3  C   UNL     1       1.128   9.485  19.144  0.00  0.00    +0.000 A 
ATOM      4  C   UNL     1       1.721   9.073  17.937  0.00  0.00    +0.000 A 
ATOM      5  C   UNL     1       2.381   7.848  17.844  0.00  0.00    +0.000 A 
ATOM      6  C   UNL     1       2.503   7.035  18.971  0.00  0.00    +0.000 A 
ATOM      7  C   UNL     1       2.007   7.494  20.197  0.00  0.00    +0.000 A 
ATOM      8  C   UNL     1       1.326   8.716  20.301  0.00  0.00    +0.000 A 
BRANCH   3  10
ATOM      9  C   UNL     1      -0.847  10.583  18.456  0.00  0.00    +0.000 C 
ATOM     10  O   UNL     1       0.376  10.626  19.196  0.00  0.00    +0.000 OA
ENDBRANCH   3  10
BRANCH   8  11
ATOM     11  O   UNL     1       0.910   8.960  21.585  0.00  0.00    +0.000 OA
ATOM     12  C   UNL     1      -0.435   8.697  21.944  0.00  0.00    +0.000 C 
ENDBRANCH   8  11
ENDBRANCH   1   6
BRANCH   1  13
ATOM     13  O   UNL     1       4.364   5.751  18.384  0.00  0.00    +0.000 OA
BRANCH  13  14
ATOM     14  C   UNL     1       4.914   4.504  17.926  0.00  0.00    +0.000 C 
BRANCH  14  15
ATOM     15  C   UNL     1       5.690   4.694  16.637  0.00  0.00    +0.000 A 
ATOM     16  N   UNL     1       5.185   4.121  15.510  0.00  0.00    +0.000 NA
ATOM     17  C   UNL     1       5.870   4.289  14.352  0.00  0.00    +0.000 A 
ATOM     18  C   UNL     1       5.250   3.678  13.133  0.00  0.00    +0.000 C 
ATOM     19  C   UNL     1       7.067   5.001  14.320  0.00  0.00    +0.000 A 
ATOM     20  C   UNL     1       7.873   5.205  13.074  0.00  0.00    +0.000 C 
ATOM     21  N   UNL     1       7.580   5.568  15.443  0.00  0.00    +0.000 NA
ATOM     22  C   UNL     1       6.878   5.422  16.597  0.00  0.00    +0.000 A 
ATOM     23  C   UNL     1       7.461   6.079  17.810  0.00  0.00    +0.000 C 
ENDBRANCH  14  15
ENDBRANCH  13  14
ENDBRANCH   1  13
TORSDOF 6
ENDMDL
MODEL 7
REMARK VINA RESULT:      -7.0      2.278      4.084
REMARK  Name = 
REMARK  11 active torsions:
REMARK  status: ('A' for Active; 'I' for Inactive)
REMARK    1  A    between atoms: C_1  and  O_2
REMARK    2  A    between atoms: O_2  and  C_3
REMARK    3  A    between atoms: C_6  and  C_7
REMARK    4  A    between atoms: C_7  and  O_9
REMARK    5  A    between atoms: O_9  and  C_10
REMARK    6  A    between atoms: C_10  and  C_11
REMARK    7  A    between atoms: C_13  and  C_14
REMARK    8  A    between atoms: C_15  and  C_16
REMARK    9  A    between atoms: C_18  and  C_19
REMARK   10  A    between atoms: C_21  and  O_22
REMARK   11  A    between atoms: O_22  and  C_23
REMARK                            x       y       z     vdW  Elec       q    Type
REMARK                         _______ _______ _______ _____ _____    ______ ____
ROOT
ATOM      1  C   UNL     1       2.818   4.609  19.936  0.00  0.00    +0.000 C 
ATOM      2  O   UNL     1       2.655   3.857  20.886  0.00  0.00    +0.000 OA
ENDROOT
BRANCH   1   6
ATOM      3  C   UNL     1       5.713   4.284  16.782  0.00  0.00    +0.000 A 
ATOM      4  C   UNL     1       4.348   4.047  16.547  0.00  0.00    +0.000 A 
ATOM      5  C   UNL     1       3.417   4.124  17.584  0.00  0.00    +0.000 A 
ATOM      6  C   UNL     1       3.845   4.389  18.885  0.00  0.00    +0.000 A 
ATOM      7  C   UNL     1       5.217   4.517  19.137  0.00  0.00    +0.000 A 
ATOM      8  C   UNL     1       6.161   4.460  18.101  0.00  0.00    +0.000 A 
BRANCH   3  10
ATOM      9  C   UNL     1       6.047   4.037  14.457  0.00  0.00    +0.000 C 
ATOM     10  O   UNL     1       6.601   4.331  15.742  0.00  0.00    +0.000 OA
ENDBRANCH   3  10
BRANCH   8  11
ATOM     11  O   UNL     1       7.439   4.628  18.566  0.00  0.00    +0.000 OA
ATOM     12  C   UNL     1       7.780   5.818  19.254  0.00  0.00    +0.000 C 
ENDBRANCH   8  11
ENDBRANCH   1   6
BRANCH   1  13
ATOM     13  O   UNL     1       2.051   5.682  19.635  0.00  0.00    +0.000 OA
BRANCH  13  14
ATOM     14  C   UNL     1       2.746   6.940  19.676  0.00  0.00    +0.000 C 
BRANCH  14  15
ATOM     15  C   UNL     1       1.789   8.079  19.970  0.00  0.00    +0.000 A 
ATOM     16  N   UNL     1       1.254   8.143  21.220  0.00  0.00    +0.000 NA
ATOM     17  C   UNL     1       0.400   9.161  21.493  0.00  0.00    +0.000 A 
ATOM     18  C   UNL     1      -0.124   9.214  22.894  0.00  0.00    +0.000 C 
ATOM     19  C   UNL     1       0.058  10.094  20.517  0.00  0.00    +0.000 A 
ATOM     20  C   UNL     1      -0.892  11.228  20.758  0.00  0.00    +0.000 C 
ATOM     21  N   UNL     1       0.580  10.030  19.265  0.00  0.00    +0.000 NA
ATOM     22  C   UNL     1       1.457   9.025  19.001  0.00  0.00    +0.000 A 
ATOM     23  C   UNL     1       2.031   8.999  17.618  0.00  0.00    +0.000 C 
ENDBRANCH  14  15
ENDBRANCH  13  14
ENDBRANCH   1  13
TORSDOF 6
ENDMDL
MODEL 8
REMARK VINA RESULT:      -6.9      1.717      3.442
REMARK  Name = 
REMARK  11 active torsions:
REMARK  status: ('A' for Active; 'I' for Inactive)
REMARK    1  A    between atoms: C_1  and  O_2
REMARK    2  A    between atoms: O_2  and  C_3
REMARK    3  A    between atoms: C_6  and  C_7
REMARK    4  A    between atoms: C_7  and  O_9
REMARK    5  A    between atoms: O_9  and  C_10
REMARK    6  A    between atoms: C_10  and  C_11
REMARK    7  A    between atoms: C_13  and  C_14
REMARK    8  A    between atoms: C_15  and  C_16
REMARK    9  A    between atoms: C_18  and  C_19
REMARK   10  A    between atoms: C_21  and  O_22
REMARK   11  A    between atoms: O_22  and  C_23
REMARK                            x       y       z     vdW  Elec       q    Type
REMARK                         _______ _______ _______ _____ _____    ______ ____
ROOT
ATOM      1  C   UNL     1       3.991   4.272  19.514  0.00  0.00    +0.000 C 
ATOM      2  O   UNL     1       3.538   3.165  19.771  0.00  0.00    +0.000 OA
ENDROOT
BRANCH   1   6
ATOM      3  C   UNL     1       6.721   5.171  16.325  0.00  0.00    +0.000 A 
ATOM      4  C   UNL     1       5.726   4.188  16.179  0.00  0.00    +0.000 A 
ATOM      5  C   UNL     1       4.864   3.880  17.232  0.00  0.00    +0.000 A 
ATOM      6  C   UNL     1       5.015   4.514  18.465  0.00  0.00    +0.000 A 
ATOM      7  C   UNL     1       6.074   5.414  18.641  0.00  0.00    +0.000 A 
ATOM      8  C   UNL     1       6.937   5.746  17.587  0.00  0.00    +0.000 A 
BRANCH   3  10
ATOM      9  C   UNL     1       7.167   4.904  14.021  0.00  0.00    +0.000 C 
ATOM     10  O   UNL     1       7.480   5.557  15.254  0.00  0.00    +0.000 OA
ENDBRANCH   3  10
BRANCH   8  11
ATOM     11  O   UNL     1       7.886   6.656  17.973  0.00  0.00    +0.000 OA
ATOM     12  C   UNL     1       7.730   8.019  17.622  0.00  0.00    +0.000 C 
ENDBRANCH   8  11
ENDBRANCH   1   6
BRANCH   1  13
ATOM     13  O   UNL     1       3.578   5.441  20.056  0.00  0.00    +0.000 OA
BRANCH  13  14
ATOM     14  C   UNL     1       2.151   5.607  20.097  0.00  0.00    +0.000 C 
BRANCH  14  15
ATOM     15  C   UNL     1       1.776   7.076  20.127  0.00  0.00    +0.000 A 
ATOM     16  N   UNL     1       1.194   7.553  21.262  0.00  0.00    +0.000 NA
ATOM     17  C   UNL     1       0.860   8.866  21.299  0.00  0.00    +0.000 A 
ATOM     18  C   UNL     1       0.266   9.352  22.584  0.00  0.00    +0.000 C 
ATOM     19  C   UNL     1       1.077   9.695  20.200  0.00  0.00    +0.000 A 
ATOM     20  C   UNL     1       0.713  11.148  20.179  0.00  0.00    +0.000 C 
ATOM     21  N   UNL     1       1.648   9.223  19.062  0.00  0.00    +0.000 NA
ATOM     22  C   UNL     1       2.008   7.913  19.037  0.00  0.00    +0.000 A 
ATOM     23  C   UNL     1       2.656   7.432  17.775  0.00  0.00    +0.000 C 
ENDBRANCH  14  15
ENDBRANCH  13  14
ENDBRANCH   1  13
TORSDOF 6
ENDMDL
MODEL 9
REMARK VINA RESULT:      -6.8      4.380      7.548
REMARK  Name = 
REMARK  11 active torsions:
REMARK  status: ('A' for Active; 'I' for Inactive)
REMARK    1  A    between atoms: C_1  and  O_2
REMARK    2  A    between atoms: O_2  and  C_3
REMARK    3  A    between atoms: C_6  and  C_7
REMARK    4  A    between atoms: C_7  and  O_9
REMARK    5  A    between atoms: O_9  and  C_10
REMARK    6  A    between atoms: C_10  and  C_11
REMARK    7  A    between atoms: C_13  and  C_14
REMARK    8  A    between atoms: C_15  and  C_16
REMARK    9  A    between atoms: C_18  and  C_19
REMARK   10  A    between atoms: C_21  and  O_22
REMARK   11  A    between atoms: O_22  and  C_23
REMARK                            x       y       z     vdW  Elec       q    Type
REMARK                         _______ _______ _______ _____ _____    ______ ____
ROOT
ATOM      1  C   UNL     1       1.774   8.994  18.481  0.00  0.00    +0.000 C 
ATOM      2  O   UNL     1       1.883   9.512  17.378  0.00  0.00    +0.000 OA
ENDROOT
BRANCH   1   6
ATOM      3  C   UNL     1      -0.062  10.834  21.899  0.00  0.00    +0.000 A 
ATOM      4  C   UNL     1       0.277   9.469  21.898  0.00  0.00    +0.000 A 
ATOM      5  C   UNL     1       0.843   8.872  20.772  0.00  0.00    +0.000 A 
ATOM      6  C   UNL     1       1.035   9.619  19.609  0.00  0.00    +0.000 A 
ATOM      7  C   UNL     1       0.599  10.949  19.576  0.00  0.00    +0.000 A 
ATOM      8  C   UNL     1       0.044  11.566  20.707  0.00  0.00    +0.000 A 
BRANCH   3  10
ATOM      9  C   UNL     1      -1.919  11.546  23.173  0.00  0.00    +0.000 C 
ATOM     10  O   UNL     1      -0.499  11.441  23.044  0.00  0.00    +0.000 OA
ENDBRANCH   3  10
BRANCH   8  11
ATOM     11  O   UNL     1      -0.295  12.872  20.460  0.00  0.00    +0.000 OA
ATOM     12  C   UNL     1      -0.704  13.252  19.158  0.00  0.00    +0.000 C 
ENDBRANCH   8  11
ENDBRANCH   1   6
BRANCH   1  13
ATOM     13  O   UNL     1       2.209   7.759  18.822  0.00  0.00    +0.000 OA
BRANCH  13  14
ATOM     14  C   UNL     1       3.189   7.207  17.927  0.00  0.00    +0.000 C 
BRANCH  14  15
ATOM     15  C   UNL     1       3.242   5.696  18.047  0.00  0.00    +0.000 A 
ATOM     16  N   UNL     1       2.383   5.105  18.922  0.00  0.00    +0.000 NA
ATOM     17  C   UNL     1       2.420   3.754  19.033  0.00  0.00    +0.000 A 
ATOM     18  C   UNL     1       1.425   3.149  19.974  0.00  0.00    +0.000 C 
ATOM     19  C   UNL     1       3.328   2.996  18.297  0.00  0.00    +0.000 A 
ATOM     20  C   UNL     1       3.424   1.504  18.391  0.00  0.00    +0.000 C 
ATOM     21  N   UNL     1       4.194   3.581  17.428  0.00  0.00    +0.000 NA
ATOM     22  C   UNL     1       4.136   4.932  17.298  0.00  0.00    +0.000 A 
ATOM     23  C   UNL     1       5.089   5.541  16.315  0.00  0.00    +0.000 C 
ENDBRANCH  14  15
ENDBRANCH  13  14
ENDBRANCH   1  13
TORSDOF 6
ENDMDL
