MODEL 1
REMARK VINA RESULT:      -7.2      0.000      0.000
REMARK  Name = 
REMARK  7 active torsions:
REMARK  status: ('A' for Active; 'I' for Inactive)
REMARK    1  A    between atoms: C_2  and  C_13
REMARK    2  A    between atoms: N_3  and  C_4
REMARK    3  A    between atoms: C_4  and  C_5
REMARK    4  A    between atoms: C_8  and  O_9
REMARK    5  A    between atoms: C_10  and  O_11
REMARK    6  A    between atoms: C_16  and  O_17
REMARK    7  A    between atoms: C_19  and  O_20
REMARK                            x       y       z     vdW  Elec       q    Type
REMARK                         _______ _______ _______ _____ _____    ______ ____
ROOT
ATOM      1  O   UNL     1       4.656   6.077  18.350  0.00  0.00    +0.000 OA
ATOM      2  C   UNL     1       4.914   4.968  18.818  0.00  0.00    +0.000 C 
ATOM      3  N   UNL     1       6.091   4.311  18.562  0.00  0.00    +0.000 N 
ATOM      4  H   UNL     1       6.238   3.404  18.996  0.00  0.00    +0.000 HD
ENDROOT
BRANCH   2   5
ATOM      5  C   UNL     1       3.912   4.285  19.696  0.00  0.00    +0.000 A 
ATOM      6  C   UNL     1       2.812   5.056  20.118  0.00  0.00    +0.000 A 
ATOM      7  C   UNL     1       1.812   4.508  20.923  0.00  0.00    +0.000 A 
ATOM      8  C   UNL     1       1.909   3.178  21.309  0.00  0.00    +0.000 A 
ATOM      9  C   UNL     1       2.985   2.393  20.911  0.00  0.00    +0.000 A 
ATOM     10  C   UNL     1       3.991   2.945  20.109  0.00  0.00    +0.000 A 
BRANCH   8  11
ATOM     11  O   UNL     1       0.954   2.596  22.090  0.00  0.00    +0.000 OA
ATOM     12  H   UNL     1       1.014   2.969  22.986  0.00  0.00    +0.000 HD
ENDBRANCH   8  11
BRANCH  10  13
ATOM     13  O   UNL     1       5.050   2.155  19.744  0.00  0.00    +0.000 OA
ATOM     14  H   UNL     1       4.955   1.920  18.804  0.00  0.00    +0.000 HD
ENDBRANCH  10  13
ENDBRANCH   2   5
BRANCH   3  15
ATOM     15  C   UNL     1       7.114   4.858  17.705  0.00  0.00    +0.000 C 
BRANCH  15  16
ATOM     16  C   UNL     1       6.844   4.557  16.253  0.00  0.00    +0.000 A 
ATOM     17  C   UNL     1       5.846   3.632  15.894  0.00  0.00    +0.000 A 
ATOM     18  C   UNL     1       5.566   3.359  14.550  0.00  0.00    +0.000 A 
ATOM     19  C   UNL     1       6.296   4.009  13.563  0.00  0.00    +0.000 A 
ATOM     20  C   UNL     1       7.297   4.914  13.909  0.00  0.00    +0.000 A 
ATOM     21  C   UNL     1       7.581   5.189  15.241  0.00  0.00    +0.000 A 
BRANCH  19  22
ATOM     22  O   UNL     1       6.068   3.791  12.232  0.00  0.00    +0.000 OA
ATOM     23  H   UNL     1       6.801   4.190  11.733  0.00  0.00    +0.000 HD
ENDBRANCH  19  22
BRANCH  20  24
ATOM     24  O   UNL     1       8.007   5.548  12.930  0.00  0.00    +0.000 OA
ATOM     25  H   UNL     1       7.339   6.079  12.453  0.00  0.00    +0.000 HD
ENDBRANCH  20  24
ENDBRANCH  15  16
ENDBRANCH   3  15
TORSDOF 7
ENDMDL
MODEL 2
REMARK VINA RESULT:      -7.2      4.557      6.505
REMARK  Name = 
REMARK  7 active torsions:
REMARK  status: ('A' for Active; 'I' for Inactive)
REMARK    1  A    between atoms: C_2  and  C_13
REMARK    2  A    between atoms: N_3  and  C_4
REMARK    3  A    between atoms: C_4  and  C_5
REMARK    4  A    between atoms: C_8  and  O_9
REMARK    5  A    between atoms: C_10  and  O_11
REMARK    6  A    between atoms: C_16  and  O_17
REMARK    7  A    between atoms: C_19  and  O_20
REMARK                            x       y       z     vdW  Elec       q    Type
REMARK                         _______ _______ _______ _____ _____    ______ ____
ROOT
ATOM      1  O   UNL     1       1.891   9.524  17.940  0.00  0.00    +0.000 OA
ATOM      2  C   UNL     1       1.737   8.845  18.954  0.00  0.00    +0.000 C 
ATOM      3  N   UNL     1       2.244   7.576  19.081  0.00  0.00    +0.000 N 
ATOM      4  H   UNL     1       2.088   7.083  19.956  0.00  0.00    +0.000 HD
ENDROOT
BRANCH   2   5
ATOM      5  C   UNL     1       0.960   9.403  20.106  0.00  0.00    +0.000 A 
ATOM      6  C   UNL     1       1.067   8.717  21.331  0.00  0.00    +0.000 A 
ATOM      7  C   UNL     1       0.398   9.167  22.471  0.00  0.00    +0.000 A 
ATOM      8  C   UNL     1      -0.383  10.311  22.389  0.00  0.00    +0.000 A 
ATOM      9  C   UNL     1      -0.510  11.008  21.192  0.00  0.00    +0.000 A 
ATOM     10  C   UNL     1       0.156  10.552  20.048  0.00  0.00    +0.000 A 
BRANCH   8  11
ATOM     11  O   UNL     1      -1.051  10.792  23.476  0.00  0.00    +0.000 OA
ATOM     12  H   UNL     1      -1.322  11.708  23.296  0.00  0.00    +0.000 HD
ENDBRANCH   8  11
BRANCH  10  13
ATOM     13  O   UNL     1       0.001  11.247  18.876  0.00  0.00    +0.000 OA
ATOM     14  H   UNL     1       0.195  10.650  18.131  0.00  0.00    +0.000 HD
ENDBRANCH  10  13
ENDBRANCH   2   5
BRANCH   3  15
ATOM     15  C   UNL     1       2.980   6.926  18.026  0.00  0.00    +0.000 C 
BRANCH  15  16
ATOM     16  C   UNL     1       2.985   5.428  18.190  0.00  0.00    +0.000 A 
ATOM     17  C   UNL     1       1.871   4.667  17.788  0.00  0.00    +0.000 A 
ATOM     18  C   UNL     1       1.868   3.273  17.910  0.00  0.00    +0.000 A 
ATOM     19  C   UNL     1       2.983   2.640  18.447  0.00  0.00    +0.000 A 
ATOM     20  C   UNL     1       4.083   3.387  18.863  0.00  0.00    +0.000 A 
ATOM     21  C   UNL     1       4.092   4.771  18.745  0.00  0.00    +0.000 A 
BRANCH  19  22
ATOM     22  O   UNL     1       3.045   1.281  18.588  0.00  0.00    +0.000 OA
ATOM     23  H   UNL     1       2.262   0.899  18.155  0.00  0.00    +0.000 HD
ENDBRANCH  19  22
BRANCH  20  24
ATOM     24  O   UNL     1       5.173   2.754  19.387  0.00  0.00    +0.000 OA
ATOM     25  H   UNL     1       5.080   1.826  19.090  0.00  0.00    +0.000 HD
ENDBRANCH  20  24
ENDBRANCH  15  16
ENDBRANCH   3  15
TORSDOF 7
ENDMDL
MODEL 3
REMARK VINA RESULT:      -7.1      4.700      7.115
REMARK  Name = 
REMARK  7 active torsions:
REMARK  status: ('A' for Active; 'I' for Inactive)
REMARK    1  A    between atoms: C_2  and  C_13
REMARK    2  A    between atoms: N_3  and  C_4
REMARK    3  A    between atoms: C_4  and  C_5
REMARK    4  A    between atoms: C_8  and  O_9
REMARK    5  A    between atoms: C_10  and  O_11
REMARK    6  A    between atoms: C_16  and  O_17
REMARK    7  A    between atoms: C_19  and  O_20
REMARK                            x       y       z     vdW  Elec       q    Type
REMARK                         _______ _______ _______ _____ _____    ______ ____
ROOT
ATOM      1  O   UNL     1       1.423   9.076  17.903  0.00  0.00    +0.000 OA
ATOM      2  C   UNL     1       1.538   8.697  19.068  0.00  0.00    +0.000 C 
ATOM      3  N   UNL     1       2.276   7.595  19.419  0.00  0.00    +0.000 N 
ATOM      4  H   UNL     1       2.336   7.351  20.404  0.00  0.00    +0.000 HD
ENDROOT
BRANCH   2   5
ATOM      5  C   UNL     1       0.844   9.447  20.162  0.00  0.00    +0.000 A 
ATOM      6  C   UNL     1       0.450   8.700  21.288  0.00  0.00    +0.000 A 
ATOM      7  C   UNL     1      -0.186   9.309  22.372  0.00  0.00    +0.000 A 
ATOM      8  C   UNL     1      -0.430  10.675  22.332  0.00  0.00    +0.000 A 
ATOM      9  C   UNL     1      -0.056  11.438  21.231  0.00  0.00    +0.000 A 
ATOM     10  C   UNL     1       0.576  10.825  20.142  0.00  0.00    +0.000 A 
BRANCH   8  11
ATOM     11  O   UNL     1      -1.043  11.315  23.368  0.00  0.00    +0.000 OA
ATOM     12  H   UNL     1      -0.808  12.258  23.336  0.00  0.00    +0.000 HD
ENDBRANCH   8  11
BRANCH  10  13
ATOM     13  O   UNL     1       0.920  11.596  19.062  0.00  0.00    +0.000 OA
ATOM     14  H   UNL     1       0.982  11.023  18.276  0.00  0.00    +0.000 HD
ENDBRANCH  10  13
ENDBRANCH   2   5
BRANCH   3  15
ATOM     15  C   UNL     1       2.960   6.778  18.447  0.00  0.00    +0.000 C 
BRANCH  15  16
ATOM     16  C   UNL     1       2.522   5.338  18.522  0.00  0.00    +0.000 A 
ATOM     17  C   UNL     1       2.869   4.437  17.498  0.00  0.00    +0.000 A 
ATOM     18  C   UNL     1       2.491   3.091  17.563  0.00  0.00    +0.000 A 
ATOM     19  C   UNL     1       1.753   2.649  18.654  0.00  0.00    +0.000 A 
ATOM     20  C   UNL     1       1.390   3.538  19.664  0.00  0.00    +0.000 A 
ATOM     21  C   UNL     1       1.761   4.876  19.606  0.00  0.00    +0.000 A 
BRANCH  19  22
ATOM     22  O   UNL     1       1.358   1.346  18.781  0.00  0.00    +0.000 OA
ATOM     23  H   UNL     1       2.119   0.780  18.565  0.00  0.00    +0.000 HD
ENDBRANCH  19  22
BRANCH  20  24
ATOM     24  O   UNL     1       0.666   3.092  20.732  0.00  0.00    +0.000 OA
ATOM     25  H   UNL     1       1.248   3.251  21.502  0.00  0.00    +0.000 HD
ENDBRANCH  20  24
ENDBRANCH  15  16
ENDBRANCH   3  15
TORSDOF 7
ENDMDL
MODEL 4
REMARK VINA RESULT:      -7.1      3.515      4.704
REMARK  Name = 
REMARK  7 active torsions:
REMARK  status: ('A' for Active; 'I' for Inactive)
REMARK    1  A    between atoms: C_2  and  C_13
REMARK    2  A    between atoms: N_3  and  C_4
REMARK    3  A    between atoms: C_4  and  C_5
REMARK    4  A    between atoms: C_8  and  O_9
REMARK    5  A    between atoms: C_10  and  O_11
REMARK    6  A    between atoms: C_16  and  O_17
REMARK    7  A    between atoms: C_19  and  O_20
REMARK                            x       y       z     vdW  Elec       q    Type
REMARK                         _______ _______ _______ _____ _____    ______ ____
ROOT
ATOM      1  O   UNL     1       2.135   5.909  17.868  0.00  0.00    +0.000 OA
ATOM      2  C   UNL     1       2.598   6.573  18.794  0.00  0.00    +0.000 C 
ATOM      3  N   UNL     1       3.685   6.167  19.527  0.00  0.00    +0.000 N 
ATOM      4  H   UNL     1       4.019   6.777  20.268  0.00  0.00    +0.000 HD
ENDROOT
BRANCH   2   5
ATOM      5  C   UNL     1       1.961   7.878  19.160  0.00  0.00    +0.000 A 
ATOM      6  C   UNL     1       1.784   8.807  18.118  0.00  0.00    +0.000 A 
ATOM      7  C   UNL     1       1.182  10.046  18.349  0.00  0.00    +0.000 A 
ATOM      8  C   UNL     1       0.750  10.358  19.631  0.00  0.00    +0.000 A 
ATOM      9  C   UNL     1       0.914   9.460  20.680  0.00  0.00    +0.000 A 
ATOM     10  C   UNL     1       1.524   8.222  20.449  0.00  0.00    +0.000 A 
BRANCH   8  11
ATOM     11  O   UNL     1       0.151  11.552  19.905  0.00  0.00    +0.000 OA
ATOM     12  H   UNL     1      -0.683  11.605  19.408  0.00  0.00    +0.000 HD
ENDBRANCH   8  11
BRANCH  10  13
ATOM     13  O   UNL     1       1.690   7.362  21.504  0.00  0.00    +0.000 OA
ATOM     14  H   UNL     1       0.968   6.709  21.491  0.00  0.00    +0.000 HD
ENDBRANCH  10  13
ENDBRANCH   2   5
BRANCH   3  15
ATOM     15  C   UNL     1       4.358   4.914  19.286  0.00  0.00    +0.000 C 
BRANCH  15  16
ATOM     16  C   UNL     1       5.240   4.981  18.065  0.00  0.00    +0.000 A 
ATOM     17  C   UNL     1       5.134   4.003  17.060  0.00  0.00    +0.000 A 
ATOM     18  C   UNL     1       5.927   4.064  15.908  0.00  0.00    +0.000 A 
ATOM     19  C   UNL     1       6.838   5.104  15.770  0.00  0.00    +0.000 A 
ATOM     20  C   UNL     1       6.961   6.068  16.768  0.00  0.00    +0.000 A 
ATOM     21  C   UNL     1       6.177   6.013  17.915  0.00  0.00    +0.000 A 
BRANCH  19  22
ATOM     22  O   UNL     1       7.638   5.224  14.668  0.00  0.00    +0.000 OA
ATOM     23  H   UNL     1       7.975   6.136  14.640  0.00  0.00    +0.000 HD
ENDBRANCH  19  22
BRANCH  20  24
ATOM     24  O   UNL     1       7.858   7.087  16.621  0.00  0.00    +0.000 OA
ATOM     25  H   UNL     1       7.388   7.873  16.963  0.00  0.00    +0.000 HD
ENDBRANCH  20  24
ENDBRANCH  15  16
ENDBRANCH   3  15
TORSDOF 7
ENDMDL
MODEL 5
REMARK VINA RESULT:      -7.1      3.312      4.619
REMARK  Name = 
REMARK  7 active torsions:
REMARK  status: ('A' for Active; 'I' for Inactive)
REMARK    1  A    between atoms: C_2  and  C_13
REMARK    2  A    between atoms: N_3  and  C_4
REMARK    3  A    between atoms: C_4  and  C_5
REMARK    4  A    between atoms: C_8  and  O_9
REMARK    5  A    between atoms: C_10  and  O_11
REMARK    6  A    between atoms: C_16  and  O_17
REMARK    7  A    between atoms: C_19  and  O_20
REMARK                            x       y       z     vdW  Elec       q    Type
REMARK                         _______ _______ _______ _____ _____    ______ ____
ROOT
ATOM      1  O   UNL     1       2.196   5.829  17.966  0.00  0.00    +0.000 OA
ATOM      2  C   UNL     1       2.637   6.398  18.964  0.00  0.00    +0.000 C 
ATOM      3  N   UNL     1       3.707   5.920  19.679  0.00  0.00    +0.000 N 
ATOM      4  H   UNL     1       4.023   6.454  20.484  0.00  0.00    +0.000 HD
ENDROOT
BRANCH   2   5
ATOM      5  C   UNL     1       1.989   7.661  19.442  0.00  0.00    +0.000 A 
ATOM      6  C   UNL     1       1.572   7.686  20.786  0.00  0.00    +0.000 A 
ATOM      7  C   UNL     1       0.975   8.823  21.335  0.00  0.00    +0.000 A 
ATOM      8  C   UNL     1       0.795   9.944  20.536  0.00  0.00    +0.000 A 
ATOM      9  C   UNL     1       1.195   9.947  19.205  0.00  0.00    +0.000 A 
ATOM     10  C   UNL     1       1.787   8.805  18.654  0.00  0.00    +0.000 A 
BRANCH   8  11
ATOM     11  O   UNL     1       0.222  11.079  21.028  0.00  0.00    +0.000 OA
ATOM     12  H   UNL     1       0.673  11.850  20.644  0.00  0.00    +0.000 HD
ENDBRANCH   8  11
BRANCH  10  13
ATOM     13  O   UNL     1       2.157   8.827  17.333  0.00  0.00    +0.000 OA
ATOM     14  H   UNL     1       1.724   8.084  16.875  0.00  0.00    +0.000 HD
ENDBRANCH  10  13
ENDBRANCH   2   5
BRANCH   3  15
ATOM     15  C   UNL     1       4.388   4.698  19.331  0.00  0.00    +0.000 C 
BRANCH  15  16
ATOM     16  C   UNL     1       5.247   4.867  18.104  0.00  0.00    +0.000 A 
ATOM     17  C   UNL     1       5.142   3.960  17.034  0.00  0.00    +0.000 A 
ATOM     18  C   UNL     1       5.914   4.116  15.877  0.00  0.00    +0.000 A 
ATOM     19  C   UNL     1       6.803   5.182  15.798  0.00  0.00    +0.000 A 
ATOM     20  C   UNL     1       6.925   6.075  16.860  0.00  0.00    +0.000 A 
ATOM     21  C   UNL     1       6.162   5.925  18.012  0.00  0.00    +0.000 A 
BRANCH  19  22
ATOM     22  O   UNL     1       7.582   5.394  14.694  0.00  0.00    +0.000 OA
ATOM     23  H   UNL     1       7.815   6.338  14.670  0.00  0.00    +0.000 HD
ENDBRANCH  19  22
BRANCH  20  24
ATOM     24  O   UNL     1       7.801   7.120  16.770  0.00  0.00    +0.000 OA
ATOM     25  H   UNL     1       7.400   7.819  17.324  0.00  0.00    +0.000 HD
ENDBRANCH  20  24
ENDBRANCH  15  16
ENDBRANCH   3  15
TORSDOF 7
ENDMDL
MODEL 6
REMARK VINA RESULT:      -7.1      5.255      7.745
REMARK  Name = 
REMARK  7 active torsions:
REMARK  status: ('A' for Active; 'I' for Inactive)
REMARK    1  A    between atoms: C_2  and  C_13
REMARK    2  A    between atoms: N_3  and  C_4
REMARK    3  A    between atoms: C_4  and  C_5
REMARK    4  A    between atoms: C_8  and  O_9
REMARK    5  A    between atoms: C_10  and  O_11
REMARK    6  A    between atoms: C_16  and  O_17
REMARK    7  A    between atoms: C_19  and  O_20
REMARK                            x       y       z     vdW  Elec       q    Type
REMARK                         _______ _______ _______ _____ _____    ______ ____
ROOT
ATOM      1  O   UNL     1       2.060   8.978  17.456  0.00  0.00    +0.000 OA
ATOM      2  C   UNL     1       1.432   8.971  18.514  0.00  0.00    +0.000 C 
ATOM      3  N   UNL     1       1.725   8.114  19.545  0.00  0.00    +0.000 N 
ATOM      4  H   UNL     1       1.170   8.178  20.394  0.00  0.00    +0.000 HD
ENDROOT
BRANCH   2   5
ATOM      5  C   UNL     1       0.291   9.923  18.702  0.00  0.00    +0.000 A 
ATOM      6  C   UNL     1      -0.686   9.944  17.689  0.00  0.00    +0.000 A 
ATOM      7  C   UNL     1      -1.801  10.781  17.779  0.00  0.00    +0.000 A 
ATOM      8  C   UNL     1      -1.942  11.602  18.889  0.00  0.00    +0.000 A 
ATOM      9  C   UNL     1      -0.991  11.604  19.903  0.00  0.00    +0.000 A 
ATOM     10  C   UNL     1       0.129  10.770  19.810  0.00  0.00    +0.000 A 
BRANCH   8  11
ATOM     11  O   UNL     1      -3.015  12.432  19.024  0.00  0.00    +0.000 OA
ATOM     12  H   UNL     1      -3.189  12.859  18.168  0.00  0.00    +0.000 HD
ENDBRANCH   8  11
BRANCH  10  13
ATOM     13  O   UNL     1       1.061  10.804  20.815  0.00  0.00    +0.000 OA
ATOM     14  H   UNL     1       1.824  10.258  20.552  0.00  0.00    +0.000 HD
ENDBRANCH  10  13
ENDBRANCH   2   5
BRANCH   3  15
ATOM     15  C   UNL     1       2.780   7.135  19.464  0.00  0.00    +0.000 C 
BRANCH  15  16
ATOM     16  C   UNL     1       2.237   5.750  19.221  0.00  0.00    +0.000 A 
ATOM     17  C   UNL     1       2.216   5.214  17.920  0.00  0.00    +0.000 A 
ATOM     18  C   UNL     1       1.739   3.920  17.681  0.00  0.00    +0.000 A 
ATOM     19  C   UNL     1       1.271   3.165  18.749  0.00  0.00    +0.000 A 
ATOM     20  C   UNL     1       1.272   3.694  20.038  0.00  0.00    +0.000 A 
ATOM     21  C   UNL     1       1.744   4.978  20.283  0.00  0.00    +0.000 A 
BRANCH  19  22
ATOM     22  O   UNL     1       0.797   1.893  18.583  0.00  0.00    +0.000 OA
ATOM     23  H   UNL     1       0.004   1.940  18.021  0.00  0.00    +0.000 HD
ENDBRANCH  19  22
BRANCH  20  24
ATOM     24  O   UNL     1       0.811   2.942  21.081  0.00  0.00    +0.000 OA
ATOM     25  H   UNL     1       0.598   2.076  20.678  0.00  0.00    +0.000 HD
ENDBRANCH  20  24
ENDBRANCH  15  16
ENDBRANCH   3  15
TORSDOF 7
ENDMDL
MODEL 7
REMARK VINA RESULT:      -7.0      4.108      8.044
REMARK  Name = 
REMARK  7 active torsions:
REMARK  status: ('A' for Active; 'I' for Inactive)
REMARK    1  A    between atoms: C_2  and  C_13
REMARK    2  A    between atoms: N_3  and  C_4
REMARK    3  A    between atoms: C_4  and  C_5
REMARK    4  A    between atoms: C_8  and  O_9
REMARK    5  A    between atoms: C_10  and  O_11
REMARK    6  A    between atoms: C_16  and  O_17
REMARK    7  A    between atoms: C_19  and  O_20
REMARK                            x       y       z     vdW  Elec       q    Type
REMARK                         _______ _______ _______ _____ _____    ______ ____
ROOT
ATOM      1  O   UNL     1       2.701   4.352  19.454  0.00  0.00    +0.000 OA
ATOM      2  C   UNL     1       3.270   5.410  19.186  0.00  0.00    +0.000 C 
ATOM      3  N   UNL     1       2.897   6.612  19.734  0.00  0.00    +0.000 N 
ATOM      4  H   UNL     1       3.425   7.441  19.476  0.00  0.00    +0.000 HD
ENDROOT
BRANCH   2   5
ATOM      5  C   UNL     1       4.412   5.411  18.218  0.00  0.00    +0.000 A 
ATOM      6  C   UNL     1       4.399   6.411  17.227  0.00  0.00    +0.000 A 
ATOM      7  C   UNL     1       5.428   6.511  16.289  0.00  0.00    +0.000 A 
ATOM      8  C   UNL     1       6.480   5.607  16.341  0.00  0.00    +0.000 A 
ATOM      9  C   UNL     1       6.519   4.608  17.307  0.00  0.00    +0.000 A 
ATOM     10  C   UNL     1       5.483   4.504  18.243  0.00  0.00    +0.000 A 
BRANCH   8  11
ATOM     11  O   UNL     1       7.510   5.668  15.450  0.00  0.00    +0.000 OA
ATOM     12  H   UNL     1       7.568   4.819  14.981  0.00  0.00    +0.000 HD
ENDBRANCH   8  11
BRANCH  10  13
ATOM     13  O   UNL     1       5.536   3.499  19.174  0.00  0.00    +0.000 OA
ATOM     14  H   UNL     1       5.944   2.714  18.765  0.00  0.00    +0.000 HD
ENDBRANCH  10  13
ENDBRANCH   2   5
BRANCH   3  15
ATOM     15  C   UNL     1       1.792   6.736  20.652  0.00  0.00    +0.000 C 
BRANCH  15  16
ATOM     16  C   UNL     1       1.311   8.160  20.757  0.00  0.00    +0.000 A 
ATOM     17  C   UNL     1       1.327   8.999  19.627  0.00  0.00    +0.000 A 
ATOM     18  C   UNL     1       0.861  10.316  19.700  0.00  0.00    +0.000 A 
ATOM     19  C   UNL     1       0.386  10.798  20.914  0.00  0.00    +0.000 A 
ATOM     20  C   UNL     1       0.383   9.980  22.042  0.00  0.00    +0.000 A 
ATOM     21  C   UNL     1       0.845   8.671  21.977  0.00  0.00    +0.000 A 
BRANCH  19  22
ATOM     22  O   UNL     1      -0.088  12.073  21.051  0.00  0.00    +0.000 OA
ATOM     23  H   UNL     1       0.514  12.554  21.646  0.00  0.00    +0.000 HD
ENDBRANCH  19  22
BRANCH  20  24
ATOM     24  O   UNL     1      -0.087  10.464  23.230  0.00  0.00    +0.000 OA
ATOM     25  H   UNL     1      -0.922   9.975  23.376  0.00  0.00    +0.000 HD
ENDBRANCH  20  24
ENDBRANCH  15  16
ENDBRANCH   3  15
TORSDOF 7
ENDMDL
MODEL 8
REMARK VINA RESULT:      -7.0      3.733      5.084
REMARK  Name = 
REMARK  7 active torsions:
REMARK  status: ('A' for Active; 'I' for Inactive)
REMARK    1  A    between atoms: C_2  and  C_13
REMARK    2  A    between atoms: N_3  and  C_4
REMARK    3  A    between atoms: C_4  and  C_5
REMARK    4  A    between atoms: C_8  and  O_9
REMARK    5  A    between atoms: C_10  and  O_11
REMARK    6  A    between atoms: C_16  and  O_17
REMARK    7  A    between atoms: C_19  and  O_20
REMARK                            x       y       z     vdW  Elec       q    Type
REMARK                         _______ _______ _______ _____ _____    ______ ____
ROOT
ATOM      1  O   UNL     1       1.622   5.702  20.849  0.00  0.00    +0.000 OA
ATOM      2  C   UNL     1       2.140   6.650  20.261  0.00  0.00    +0.000 C 
ATOM      3  N   UNL     1       3.291   6.527  19.524  0.00  0.00    +0.000 N 
ATOM      4  H   UNL     1       3.651   7.353  19.054  0.00  0.00    +0.000 HD
ENDROOT
BRANCH   2   5
ATOM      5  C   UNL     1       1.511   8.006  20.347  0.00  0.00    +0.000 A 
ATOM      6  C   UNL     1       0.898   8.341  21.569  0.00  0.00    +0.000 A 
ATOM      7  C   UNL     1       0.299   9.588  21.759  0.00  0.00    +0.000 A 
ATOM      8  C   UNL     1       0.315  10.510  20.721  0.00  0.00    +0.000 A 
ATOM      9  C   UNL     1       0.910  10.206  19.502  0.00  0.00    +0.000 A 
ATOM     10  C   UNL     1       1.503   8.953  19.310  0.00  0.00    +0.000 A 
BRANCH   8  11
ATOM     11  O   UNL     1      -0.252  11.742  20.860  0.00  0.00    +0.000 OA
ATOM     12  H   UNL     1       0.408  12.417  20.630  0.00  0.00    +0.000 HD
ENDBRANCH   8  11
BRANCH  10  13
ATOM     13  O   UNL     1       2.069   8.671  18.093  0.00  0.00    +0.000 OA
ATOM     14  H   UNL     1       1.384   8.297  17.510  0.00  0.00    +0.000 HD
ENDBRANCH  10  13
ENDBRANCH   2   5
BRANCH   3  15
ATOM     15  C   UNL     1       4.001   5.278  19.398  0.00  0.00    +0.000 C 
BRANCH  15  16
ATOM     16  C   UNL     1       4.942   5.288  18.220  0.00  0.00    +0.000 A 
ATOM     17  C   UNL     1       4.581   5.945  17.029  0.00  0.00    +0.000 A 
ATOM     18  C   UNL     1       5.452   5.985  15.935  0.00  0.00    +0.000 A 
ATOM     19  C   UNL     1       6.687   5.354  16.032  0.00  0.00    +0.000 A 
ATOM     20  C   UNL     1       7.045   4.687  17.201  0.00  0.00    +0.000 A 
ATOM     21  C   UNL     1       6.185   4.642  18.291  0.00  0.00    +0.000 A 
BRANCH  19  22
ATOM     22  O   UNL     1       7.585   5.361  15.001  0.00  0.00    +0.000 OA
ATOM     23  H   UNL     1       7.274   4.731  14.329  0.00  0.00    +0.000 HD
ENDBRANCH  19  22
BRANCH  20  24
ATOM     24  O   UNL     1       8.262   4.071  17.285  0.00  0.00    +0.000 OA
ATOM     25  H   UNL     1       8.388   3.916  18.242  0.00  0.00    +0.000 HD
ENDBRANCH  20  24
ENDBRANCH  15  16
ENDBRANCH   3  15
TORSDOF 7
ENDMDL
MODEL 9
REMARK VINA RESULT:      -7.0      4.656      6.552
REMARK  Name = 
REMARK  7 active torsions:
REMARK  status: ('A' for Active; 'I' for Inactive)
REMARK    1  A    between atoms: C_2  and  C_13
REMARK    2  A    between atoms: N_3  and  C_4
REMARK    3  A    between atoms: C_4  and  C_5
REMARK    4  A    between atoms: C_8  and  O_9
REMARK    5  A    between atoms: C_10  and  O_11
REMARK    6  A    between atoms: C_16  and  O_17
REMARK    7  A    between atoms: C_19  and  O_20
REMARK                            x       y       z     vdW  Elec       q    Type
REMARK                         _______ _______ _______ _____ _____    ______ ____
ROOT
ATOM      1  O   UNL     1       1.405   9.562  17.778  0.00  0.00    +0.000 OA
ATOM      2  C   UNL     1       1.496   9.028  18.883  0.00  0.00    +0.000 C 
ATOM      3  N   UNL     1       2.236   7.893  19.099  0.00  0.00    +0.000 N 
ATOM      4  H   UNL     1       2.275   7.518  20.042  0.00  0.00    +0.000 HD
ENDROOT
BRANCH   2   5
ATOM      5  C   UNL     1       0.769   9.618  20.051  0.00  0.00    +0.000 A 
ATOM      6  C   UNL     1       0.715   8.836  21.220  0.00  0.00    +0.000 A 
ATOM      7  C   UNL     1       0.078   9.303  22.372  0.00  0.00    +0.000 A 
ATOM      8  C   UNL     1      -0.507  10.562  22.358  0.00  0.00    +0.000 A 
ATOM      9  C   UNL     1      -0.472  11.355  21.216  0.00  0.00    +0.000 A 
ATOM     10  C   UNL     1       0.160  10.883  20.060  0.00  0.00    +0.000 A 
BRANCH   8  11
ATOM     11  O   UNL     1      -1.135  11.063  23.459  0.00  0.00    +0.000 OA
ATOM     12  H   UNL     1      -1.904  11.584  23.170  0.00  0.00    +0.000 HD
ENDBRANCH   8  11
BRANCH  10  13
ATOM     13  O   UNL     1       0.166  11.677  18.942  0.00  0.00    +0.000 OA
ATOM     14  H   UNL     1      -0.361  11.243  18.248  0.00  0.00    +0.000 HD
ENDBRANCH  10  13
ENDBRANCH   2   5
BRANCH   3  15
ATOM     15  C   UNL     1       2.950   7.220  18.042  0.00  0.00    +0.000 C 
BRANCH  15  16
ATOM     16  C   UNL     1       3.521   5.904  18.504  0.00  0.00    +0.000 A 
ATOM     17  C   UNL     1       2.711   4.982  19.193  0.00  0.00    +0.000 A 
ATOM     18  C   UNL     1       3.217   3.745  19.607  0.00  0.00    +0.000 A 
ATOM     19  C   UNL     1       4.545   3.436  19.339  0.00  0.00    +0.000 A 
ATOM     20  C   UNL     1       5.359   4.349  18.673  0.00  0.00    +0.000 A 
ATOM     21  C   UNL     1       4.863   5.580  18.259  0.00  0.00    +0.000 A 
BRANCH  19  22
ATOM     22  O   UNL     1       5.100   2.243  19.713  0.00  0.00    +0.000 OA
ATOM     23  H   UNL     1       5.914   2.434  20.210  0.00  0.00    +0.000 HD
ENDBRANCH  19  22
BRANCH  20  24
ATOM     24  O   UNL     1       6.663   4.034  18.414  0.00  0.00    +0.000 OA
ATOM     25  H   UNL     1       7.148   4.350  19.203  0.00  0.00    +0.000 HD
ENDBRANCH  20  24
ENDBRANCH  15  16
ENDBRANCH   3  15
TORSDOF 7
ENDMDL
