MODEL 1
REMARK VINA RESULT:      -7.5      0.000      0.000
REMARK  Name = 
REMARK  11 active torsions:
REMARK  status: ('A' for Active; 'I' for Inactive)
REMARK    1  A    between atoms: C_1  and  O_2
REMARK    2  A    between atoms: O_2  and  C_3
REMARK    3  A    between atoms: C_5  and  O_6
REMARK    4  A    between atoms: O_6  and  C_7
REMARK    5  A    between atoms: C_8  and  O_9
REMARK    6  A    between atoms: O_9  and  C_10
REMARK    7  A    between atoms: C_12  and  C_13
REMARK    8  A    between atoms: C_13  and  N_14
REMARK    9  A    between atoms: N_14  and  C_15
REMARK   10  A    between atoms: C_15  and  C_16
REMARK   11  A    between atoms: C_16  and  C_17
REMARK                            x       y       z     vdW  Elec       q    Type
REMARK                         _______ _______ _______ _____ _____    ______ ____
ROOT
ATOM      1  C   UNL     1       7.530   6.603  18.008  0.00  0.00    +0.000 C 
ENDROOT
BRANCH   1   7
ATOM      2  C   UNL     1       5.776   5.366  16.559  0.00  0.00    +0.000 A 
ATOM      3  C   UNL     1       4.515   4.754  16.503  0.00  0.00    +0.000 A 
ATOM      4  C   UNL     1       3.774   4.488  17.663  0.00  0.00    +0.000 A 
ATOM      5  C   UNL     1       4.338   4.753  18.910  0.00  0.00    +0.000 A 
ATOM      6  C   UNL     1       5.569   5.411  18.962  0.00  0.00    +0.000 A 
ATOM      7  C   UNL     1       6.297   5.752  17.798  0.00  0.00    +0.000 A 
BRANCH   2   9
ATOM      8  C   UNL     1       7.111   4.788  14.668  0.00  0.00    +0.000 C 
ATOM      9  O   UNL     1       6.276   5.727  15.339  0.00  0.00    +0.000 OA
ENDBRANCH   2   9
BRANCH   4  10
ATOM     10  O   UNL     1       2.530   3.954  17.431  0.00  0.00    +0.000 OA
ATOM     11  C   UNL     1       2.438   2.535  17.556  0.00  0.00    +0.000 C 
ENDBRANCH   4  10
BRANCH   5  12
ATOM     12  O   UNL     1       3.654   4.409  20.045  0.00  0.00    +0.000 OA
ATOM     13  C   UNL     1       2.562   5.264  20.377  0.00  0.00    +0.000 C 
ENDBRANCH   5  12
ENDBRANCH   1   7
BRANCH   1  14
ATOM     14  N   UNL     1       7.504   7.749  17.083  0.00  0.00    +0.000 NA
ATOM     15  H   UNL     1       6.584   7.771  16.645  0.00  0.00    +0.000 HD
BRANCH  14  16
ATOM     16  C   UNL     1       7.720   9.020  17.768  0.00  0.00    +0.000 C 
BRANCH  16  17
ATOM     17  C   UNL     1       8.837   9.015  18.842  0.00  0.00    +0.000 C 
BRANCH  17  18
ATOM     18  C   UNL     1       9.207  10.463  19.099  0.00  0.00    +0.000 A 
ATOM     19  C   UNL     1       9.542  10.883  20.411  0.00  0.00    +0.000 A 
ATOM     20  C   UNL     1      10.372  11.989  20.608  0.00  0.00    +0.000 A 
ATOM     21  C   UNL     1      10.873  12.595  19.478  0.00  0.00    +0.000 A 
ATOM     22  C   UNL     1      10.436  12.265  18.212  0.00  0.00    +0.000 A 
ATOM     23  C   UNL     1       9.544  11.249  17.989  0.00  0.00    +0.000 A 
ATOM     24  O   UNL     1      11.181  12.868  17.240  0.00  0.00    +0.000 OA
ATOM     25  C   UNL     1      12.328  13.204  18.045  0.00  0.00    +0.000 C 
ATOM     26  O   UNL     1      11.964  13.414  19.427  0.00  0.00    +0.000 OA
ENDBRANCH  17  18
ENDBRANCH  16  17
ENDBRANCH  14  16
ENDBRANCH   1  14
TORSDOF 8
ENDMDL
MODEL 2
REMARK VINA RESULT:      -7.4      1.463      2.035
REMARK  Name = 
REMARK  11 active torsions:
REMARK  status: ('A' for Active; 'I' for Inactive)
REMARK    1  A    between atoms: C_1  and  O_2
REMARK    2  A    between atoms: O_2  and  C_3
REMARK    3  A    between atoms: C_5  and  O_6
REMARK    4  A    between atoms: O_6  and  C_7
REMARK    5  A    between atoms: C_8  and  O_9
REMARK    6  A    between atoms: O_9  and  C_10
REMARK    7  A    between atoms: C_12  and  C_13
REMARK    8  A    between atoms: C_13  and  N_14
REMARK    9  A    between atoms: N_14  and  C_15
REMARK   10  A    between atoms: C_15  and  C_16
REMARK   11  A    between atoms: C_16  and  C_17
REMARK                            x       y       z     vdW  Elec       q    Type
REMARK                         _______ _______ _______ _____ _____    ______ ____
ROOT
ATOM      1  C   UNL     1       7.793   6.666  18.327  0.00  0.00    +0.000 C 
ENDROOT
BRANCH   1   7
ATOM      2  C   UNL     1       6.615   4.775  17.008  0.00  0.00    +0.000 A 
ATOM      3  C   UNL     1       5.456   4.003  16.837  0.00  0.00    +0.000 A 
ATOM      4  C   UNL     1       4.405   4.037  17.765  0.00  0.00    +0.000 A 
ATOM      5  C   UNL     1       4.550   4.784  18.934  0.00  0.00    +0.000 A 
ATOM      6  C   UNL     1       5.680   5.592  19.076  0.00  0.00    +0.000 A 
ATOM      7  C   UNL     1       6.716   5.625  18.113  0.00  0.00    +0.000 A 
BRANCH   2   9
ATOM      8  C   UNL     1       6.855   4.665  14.637  0.00  0.00    +0.000 C 
ATOM      9  O   UNL     1       7.450   4.773  15.926  0.00  0.00    +0.000 OA
ENDBRANCH   2   9
BRANCH   4  10
ATOM     10  O   UNL     1       3.313   3.282  17.414  0.00  0.00    +0.000 OA
ATOM     11  C   UNL     1       3.298   1.950  17.926  0.00  0.00    +0.000 C 
ENDBRANCH   4  10
BRANCH   5  12
ATOM     12  O   UNL     1       3.565   4.745  19.883  0.00  0.00    +0.000 OA
ATOM     13  C   UNL     1       2.518   5.698  19.710  0.00  0.00    +0.000 C 
ENDBRANCH   5  12
ENDBRANCH   1   7
BRANCH   1  14
ATOM     14  N   UNL     1       7.708   7.689  17.272  0.00  0.00    +0.000 NA
ATOM     15  H   UNL     1       6.759   7.672  16.900  0.00  0.00    +0.000 HD
BRANCH  14  16
ATOM     16  C   UNL     1       7.982   9.032  17.776  0.00  0.00    +0.000 C 
BRANCH  16  17
ATOM     17  C   UNL     1       8.910   9.100  19.015  0.00  0.00    +0.000 C 
BRANCH  17  18
ATOM     18  C   UNL     1       9.392  10.533  19.126  0.00  0.00    +0.000 A 
ATOM     19  C   UNL     1       9.485  11.339  17.963  0.00  0.00    +0.000 A 
ATOM     20  C   UNL     1       9.393  12.729  18.057  0.00  0.00    +0.000 A 
ATOM     21  C   UNL     1       9.159  13.249  19.309  0.00  0.00    +0.000 A 
ATOM     22  C   UNL     1       9.204  12.473  20.449  0.00  0.00    +0.000 A 
ATOM     23  C   UNL     1       9.393  11.117  20.401  0.00  0.00    +0.000 A 
ATOM     24  O   UNL     1       8.781  13.157  21.552  0.00  0.00    +0.000 OA
ATOM     25  C   UNL     1       8.087  14.222  20.874  0.00  0.00    +0.000 C 
ATOM     26  O   UNL     1       8.667  14.494  19.579  0.00  0.00    +0.000 OA
ENDBRANCH  17  18
ENDBRANCH  16  17
ENDBRANCH  14  16
ENDBRANCH   1  14
TORSDOF 8
ENDMDL
MODEL 3
REMARK VINA RESULT:      -7.1      3.781      7.464
REMARK  Name = 
REMARK  11 active torsions:
REMARK  status: ('A' for Active; 'I' for Inactive)
REMARK    1  A    between atoms: C_1  and  O_2
REMARK    2  A    between atoms: O_2  and  C_3
REMARK    3  A    between atoms: C_5  and  O_6
REMARK    4  A    between atoms: O_6  and  C_7
REMARK    5  A    between atoms: C_8  and  O_9
REMARK    6  A    between atoms: O_9  and  C_10
REMARK    7  A    between atoms: C_12  and  C_13
REMARK    8  A    between atoms: C_13  and  N_14
REMARK    9  A    between atoms: N_14  and  C_15
REMARK   10  A    between atoms: C_15  and  C_16
REMARK   11  A    between atoms: C_16  and  C_17
REMARK                            x       y       z     vdW  Elec       q    Type
REMARK                         _______ _______ _______ _____ _____    ______ ____
ROOT
ATOM      1  C   UNL     1       4.554   5.030  19.700  0.00  0.00    +0.000 C 
ENDROOT
BRANCH   1   7
ATOM      2  C   UNL     1       4.930   4.037  17.338  0.00  0.00    +0.000 A 
ATOM      3  C   UNL     1       5.705   4.042  16.168  0.00  0.00    +0.000 A 
ATOM      4  C   UNL     1       6.675   5.026  15.930  0.00  0.00    +0.000 A 
ATOM      5  C   UNL     1       6.813   6.080  16.833  0.00  0.00    +0.000 A 
ATOM      6  C   UNL     1       6.080   6.045  18.021  0.00  0.00    +0.000 A 
ATOM      7  C   UNL     1       5.150   5.019  18.309  0.00  0.00    +0.000 A 
BRANCH   2   9
ATOM      8  C   UNL     1       2.887   2.889  16.891  0.00  0.00    +0.000 C 
ATOM      9  O   UNL     1       4.174   2.911  17.502  0.00  0.00    +0.000 OA
ENDBRANCH   2   9
BRANCH   4  10
ATOM     10  O   UNL     1       7.396   4.845  14.776  0.00  0.00    +0.000 OA
ATOM     11  C   UNL     1       6.661   4.325  13.669  0.00  0.00    +0.000 C 
ENDBRANCH   4  10
BRANCH   5  12
ATOM     12  O   UNL     1       7.694   7.091  16.557  0.00  0.00    +0.000 OA
ATOM     13  C   UNL     1       7.843   8.064  17.589  0.00  0.00    +0.000 C 
ENDBRANCH   5  12
ENDBRANCH   1   7
BRANCH   1  14
ATOM     14  N   UNL     1       3.247   4.353  19.683  0.00  0.00    +0.000 NA
ATOM     15  H   UNL     1       3.125   3.892  20.584  0.00  0.00    +0.000 HD
BRANCH  14  16
ATOM     16  C   UNL     1       2.140   5.287  19.490  0.00  0.00    +0.000 C 
BRANCH  16  17
ATOM     17  C   UNL     1       1.849   6.228  20.686  0.00  0.00    +0.000 C 
BRANCH  17  18
ATOM     18  C   UNL     1       1.839   7.643  20.140  0.00  0.00    +0.000 A 
ATOM     19  C   UNL     1       2.208   7.882  18.793  0.00  0.00    +0.000 A 
ATOM     20  C   UNL     1       1.721   9.001  18.114  0.00  0.00    +0.000 A 
ATOM     21  C   UNL     1       0.841   9.806  18.802  0.00  0.00    +0.000 A 
ATOM     22  C   UNL     1       0.594   9.642  20.149  0.00  0.00    +0.000 A 
ATOM     23  C   UNL     1       1.135   8.611  20.870  0.00  0.00    +0.000 A 
ATOM     24  O   UNL     1      -0.428  10.437  20.582  0.00  0.00    +0.000 OA
ATOM     25  C   UNL     1      -1.015  10.727  19.300  0.00  0.00    +0.000 C 
ATOM     26  O   UNL     1      -0.028  10.699  18.245  0.00  0.00    +0.000 OA
ENDBRANCH  17  18
ENDBRANCH  16  17
ENDBRANCH  14  16
ENDBRANCH   1  14
TORSDOF 8
ENDMDL
MODEL 4
REMARK VINA RESULT:      -7.1      1.297      1.915
REMARK  Name = 
REMARK  11 active torsions:
REMARK  status: ('A' for Active; 'I' for Inactive)
REMARK    1  A    between atoms: C_1  and  O_2
REMARK    2  A    between atoms: O_2  and  C_3
REMARK    3  A    between atoms: C_5  and  O_6
REMARK    4  A    between atoms: O_6  and  C_7
REMARK    5  A    between atoms: C_8  and  O_9
REMARK    6  A    between atoms: O_9  and  C_10
REMARK    7  A    between atoms: C_12  and  C_13
REMARK    8  A    between atoms: C_13  and  N_14
REMARK    9  A    between atoms: N_14  and  C_15
REMARK   10  A    between atoms: C_15  and  C_16
REMARK   11  A    between atoms: C_16  and  C_17
REMARK                            x       y       z     vdW  Elec       q    Type
REMARK                         _______ _______ _______ _____ _____    ______ ____
ROOT
ATOM      1  C   UNL     1       6.240   7.444  17.005  0.00  0.00    +0.000 C 
ENDROOT
BRANCH   1   7
ATOM      2  C   UNL     1       5.842   4.911  16.644  0.00  0.00    +0.000 A 
ATOM      3  C   UNL     1       4.945   3.835  16.733  0.00  0.00    +0.000 A 
ATOM      4  C   UNL     1       3.713   3.955  17.391  0.00  0.00    +0.000 A 
ATOM      5  C   UNL     1       3.406   5.143  18.055  0.00  0.00    +0.000 A 
ATOM      6  C   UNL     1       4.275   6.228  17.920  0.00  0.00    +0.000 A 
ATOM      7  C   UNL     1       5.488   6.145  17.197  0.00  0.00    +0.000 A 
BRANCH   2   9
ATOM      8  C   UNL     1       6.630   4.583  14.417  0.00  0.00    +0.000 C 
ATOM      9  O   UNL     1       6.902   4.687  15.811  0.00  0.00    +0.000 OA
ENDBRANCH   2   9
BRANCH   4  10
ATOM     10  O   UNL     1       2.922   2.835  17.324  0.00  0.00    +0.000 OA
ATOM     11  C   UNL     1       3.309   1.758  18.176  0.00  0.00    +0.000 C 
ENDBRANCH   4  10
BRANCH   5  12
ATOM     12  O   UNL     1       2.246   5.231  18.775  0.00  0.00    +0.000 OA
ATOM     13  C   UNL     1       2.268   6.168  19.849  0.00  0.00    +0.000 C 
ENDBRANCH   5  12
ENDBRANCH   1   7
BRANCH   1  14
ATOM     14  N   UNL     1       7.677   7.222  17.239  0.00  0.00    +0.000 NA
ATOM     15  H   UNL     1       8.162   7.378  16.357  0.00  0.00    +0.000 HD
BRANCH  14  16
ATOM     16  C   UNL     1       8.225   8.140  18.235  0.00  0.00    +0.000 C 
BRANCH  16  17
ATOM     17  C   UNL     1       8.138   9.643  17.872  0.00  0.00    +0.000 C 
BRANCH  17  18
ATOM     18  C   UNL     1       9.298  10.332  18.565  0.00  0.00    +0.000 A 
ATOM     19  C   UNL     1      10.212  11.107  17.809  0.00  0.00    +0.000 A 
ATOM     20  C   UNL     1      10.924  12.147  18.412  0.00  0.00    +0.000 A 
ATOM     21  C   UNL     1      10.649  12.397  19.737  0.00  0.00    +0.000 A 
ATOM     22  C   UNL     1       9.862  11.556  20.496  0.00  0.00    +0.000 A 
ATOM     23  C   UNL     1       9.227  10.468  19.959  0.00  0.00    +0.000 A 
ATOM     24  O   UNL     1       9.589  12.082  21.726  0.00  0.00    +0.000 OA
ATOM     25  C   UNL     1       9.912  13.455  21.434  0.00  0.00    +0.000 C 
ATOM     26  O   UNL     1      10.921  13.556  20.405  0.00  0.00    +0.000 OA
ENDBRANCH  17  18
ENDBRANCH  16  17
ENDBRANCH  14  16
ENDBRANCH   1  14
TORSDOF 8
ENDMDL
MODEL 5
REMARK VINA RESULT:      -7.1      4.300      7.230
REMARK  Name = 
REMARK  11 active torsions:
REMARK  status: ('A' for Active; 'I' for Inactive)
REMARK    1  A    between atoms: C_1  and  O_2
REMARK    2  A    between atoms: O_2  and  C_3
REMARK    3  A    between atoms: C_5  and  O_6
REMARK    4  A    between atoms: O_6  and  C_7
REMARK    5  A    between atoms: C_8  and  O_9
REMARK    6  A    between atoms: O_9  and  C_10
REMARK    7  A    between atoms: C_12  and  C_13
REMARK    8  A    between atoms: C_13  and  N_14
REMARK    9  A    between atoms: N_14  and  C_15
REMARK   10  A    between atoms: C_15  and  C_16
REMARK   11  A    between atoms: C_16  and  C_17
REMARK                            x       y       z     vdW  Elec       q    Type
REMARK                         _______ _______ _______ _____ _____    ______ ____
ROOT
ATOM      1  C   UNL     1       4.572   3.177  20.176  0.00  0.00    +0.000 C 
ENDROOT
BRANCH   1   7
ATOM      2  C   UNL     1       4.244   3.513  17.630  0.00  0.00    +0.000 A 
ATOM      3  C   UNL     1       4.795   3.964  16.420  0.00  0.00    +0.000 A 
ATOM      4  C   UNL     1       5.992   4.693  16.383  0.00  0.00    +0.000 A 
ATOM      5  C   UNL     1       6.605   5.062  17.580  0.00  0.00    +0.000 A 
ATOM      6  C   UNL     1       6.085   4.568  18.778  0.00  0.00    +0.000 A 
ATOM      7  C   UNL     1       4.918   3.769  18.827  0.00  0.00    +0.000 A 
BRANCH   2   9
ATOM      8  C   UNL     1       1.901   3.236  17.276  0.00  0.00    +0.000 C 
ATOM      9  O   UNL     1       3.188   2.659  17.478  0.00  0.00    +0.000 OA
ENDBRANCH   2   9
BRANCH   4  10
ATOM     10  O   UNL     1       6.434   4.994  15.118  0.00  0.00    +0.000 OA
ATOM     11  C   UNL     1       6.176   4.001  14.126  0.00  0.00    +0.000 C 
ENDBRANCH   4  10
BRANCH   5  12
ATOM     12  O   UNL     1       7.722   5.852  17.548  0.00  0.00    +0.000 OA
ATOM     13  C   UNL     1       7.472   7.256  17.557  0.00  0.00    +0.000 C 
ENDBRANCH   5  12
ENDBRANCH   1   7
BRANCH   1  14
ATOM     14  N   UNL     1       3.111   3.189  20.360  0.00  0.00    +0.000 NA
ATOM     15  H   UNL     1       2.856   2.343  20.869  0.00  0.00    +0.000 HD
BRANCH  14  16
ATOM     16  C   UNL     1       2.657   4.343  21.131  0.00  0.00    +0.000 C 
BRANCH  16  17
ATOM     17  C   UNL     1       1.455   5.113  20.529  0.00  0.00    +0.000 C 
BRANCH  17  18
ATOM     18  C   UNL     1       1.988   6.439  20.025  0.00  0.00    +0.000 A 
ATOM     19  C   UNL     1       2.637   6.507  18.767  0.00  0.00    +0.000 A 
ATOM     20  C   UNL     1       2.654   7.702  18.044  0.00  0.00    +0.000 A 
ATOM     21  C   UNL     1       1.974   8.765  18.592  0.00  0.00    +0.000 A 
ATOM     22  C   UNL     1       1.463   8.730  19.874  0.00  0.00    +0.000 A 
ATOM     23  C   UNL     1       1.518   7.603  20.650  0.00  0.00    +0.000 A 
ATOM     24  O   UNL     1       0.691   9.822  20.147  0.00  0.00    +0.000 OA
ATOM     25  C   UNL     1       0.453  10.245  18.791  0.00  0.00    +0.000 C 
ATOM     26  O   UNL     1       1.543   9.872  17.918  0.00  0.00    +0.000 OA
ENDBRANCH  17  18
ENDBRANCH  16  17
ENDBRANCH  14  16
ENDBRANCH   1  14
TORSDOF 8
ENDMDL
MODEL 6
REMARK VINA RESULT:      -7.1      4.228      6.703
REMARK  Name = 
REMARK  11 active torsions:
REMARK  status: ('A' for Active; 'I' for Inactive)
REMARK    1  A    between atoms: C_1  and  O_2
REMARK    2  A    between atoms: O_2  and  C_3
REMARK    3  A    between atoms: C_5  and  O_6
REMARK    4  A    between atoms: O_6  and  C_7
REMARK    5  A    between atoms: C_8  and  O_9
REMARK    6  A    between atoms: O_9  and  C_10
REMARK    7  A    between atoms: C_12  and  C_13
REMARK    8  A    between atoms: C_13  and  N_14
REMARK    9  A    between atoms: N_14  and  C_15
REMARK   10  A    between atoms: C_15  and  C_16
REMARK   11  A    between atoms: C_16  and  C_17
REMARK                            x       y       z     vdW  Elec       q    Type
REMARK                         _______ _______ _______ _____ _____    ______ ____
ROOT
ATOM      1  C   UNL     1       4.126   5.287  19.530  0.00  0.00    +0.000 C 
ENDROOT
BRANCH   1   7
ATOM      2  C   UNL     1       4.309   4.592  17.042  0.00  0.00    +0.000 A 
ATOM      3  C   UNL     1       5.085   4.592  15.873  0.00  0.00    +0.000 A 
ATOM      4  C   UNL     1       6.256   5.355  15.766  0.00  0.00    +0.000 A 
ATOM      5  C   UNL     1       6.613   6.208  16.810  0.00  0.00    +0.000 A 
ATOM      6  C   UNL     1       5.870   6.166  17.992  0.00  0.00    +0.000 A 
ATOM      7  C   UNL     1       4.728   5.346  18.142  0.00  0.00    +0.000 A 
BRANCH   2   9
ATOM      8  C   UNL     1       3.598   2.404  17.673  0.00  0.00    +0.000 C 
ATOM      9  O   UNL     1       3.315   3.654  17.052  0.00  0.00    +0.000 OA
ENDBRANCH   2   9
BRANCH   4  10
ATOM     10  O   UNL     1       6.937   5.186  14.586  0.00  0.00    +0.000 OA
ATOM     11  C   UNL     1       6.553   4.050  13.813  0.00  0.00    +0.000 C 
ENDBRANCH   4  10
BRANCH   5  12
ATOM     12  O   UNL     1       7.704   7.022  16.671  0.00  0.00    +0.000 OA
ATOM     13  C   UNL     1       7.798   8.079  17.624  0.00  0.00    +0.000 C 
ENDBRANCH   5  12
ENDBRANCH   1   7
BRANCH   1  14
ATOM     14  N   UNL     1       2.687   5.591  19.458  0.00  0.00    +0.000 NA
ATOM     15  H   UNL     1       2.220   5.045  20.181  0.00  0.00    +0.000 HD
BRANCH  14  16
ATOM     16  C   UNL     1       2.405   7.004  19.693  0.00  0.00    +0.000 C 
BRANCH  16  17
ATOM     17  C   UNL     1       2.287   7.879  18.420  0.00  0.00    +0.000 C 
BRANCH  17  18
ATOM     18  C   UNL     1       1.503   9.118  18.807  0.00  0.00    +0.000 A 
ATOM     19  C   UNL     1       0.850   9.175  20.064  0.00  0.00    +0.000 A 
ATOM     20  C   UNL     1       0.598  10.406  20.674  0.00  0.00    +0.000 A 
ATOM     21  C   UNL     1       1.060  11.525  20.020  0.00  0.00    +0.000 A 
ATOM     22  C   UNL     1       1.572  11.471  18.740  0.00  0.00    +0.000 A 
ATOM     23  C   UNL     1       1.740  10.287  18.071  0.00  0.00    +0.000 A 
ATOM     24  O   UNL     1       2.118  12.661  18.356  0.00  0.00    +0.000 OA
ATOM     25  C   UNL     1       2.265  13.247  19.663  0.00  0.00    +0.000 C 
ATOM     26  O   UNL     1       1.266  12.752  20.583  0.00  0.00    +0.000 OA
ENDBRANCH  17  18
ENDBRANCH  16  17
ENDBRANCH  14  16
ENDBRANCH   1  14
TORSDOF 8
ENDMDL
MODEL 7
REMARK VINA RESULT:      -7.1      5.691      8.517
REMARK  Name = 
REMARK  11 active torsions:
REMARK  status: ('A' for Active; 'I' for Inactive)
REMARK    1  A    between atoms: C_1  and  O_2
REMARK    2  A    between atoms: O_2  and  C_3
REMARK    3  A    between atoms: C_5  and  O_6
REMARK    4  A    between atoms: O_6  and  C_7
REMARK    5  A    between atoms: C_8  and  O_9
REMARK    6  A    between atoms: O_9  and  C_10
REMARK    7  A    between atoms: C_12  and  C_13
REMARK    8  A    between atoms: C_13  and  N_14
REMARK    9  A    between atoms: N_14  and  C_15
REMARK   10  A    between atoms: C_15  and  C_16
REMARK   11  A    between atoms: C_16  and  C_17
REMARK                            x       y       z     vdW  Elec       q    Type
REMARK                         _______ _______ _______ _____ _____    ______ ____
ROOT
ATOM      1  C   UNL     1       3.312   7.837  17.806  0.00  0.00    +0.000 C 
ENDROOT
BRANCH   1   7
ATOM      2  C   UNL     1       4.351   5.524  17.283  0.00  0.00    +0.000 A 
ATOM      3  C   UNL     1       4.163   4.135  17.222  0.00  0.00    +0.000 A 
ATOM      4  C   UNL     1       3.016   3.523  17.746  0.00  0.00    +0.000 A 
ATOM      5  C   UNL     1       2.080   4.299  18.429  0.00  0.00    +0.000 A 
ATOM      6  C   UNL     1       2.242   5.686  18.442  0.00  0.00    +0.000 A 
ATOM      7  C   UNL     1       3.357   6.325  17.853  0.00  0.00    +0.000 A 
BRANCH   2   9
ATOM      8  C   UNL     1       5.529   5.541  15.208  0.00  0.00    +0.000 C 
ATOM      9  O   UNL     1       5.420   5.975  16.561  0.00  0.00    +0.000 OA
ENDBRANCH   2   9
BRANCH   4  10
ATOM     10  O   UNL     1       2.951   2.167  17.539  0.00  0.00    +0.000 OA
ATOM     11  C   UNL     1       3.655   1.367  18.488  0.00  0.00    +0.000 C 
ENDBRANCH   4  10
BRANCH   5  12
ATOM     12  O   UNL     1       1.006   3.691  19.021  0.00  0.00    +0.000 OA
ATOM     13  C   UNL     1       1.033   3.667  20.447  0.00  0.00    +0.000 C 
ENDBRANCH   5  12
ENDBRANCH   1   7
BRANCH   1  14
ATOM     14  N   UNL     1       2.099   8.317  18.490  0.00  0.00    +0.000 NA
ATOM     15  H   UNL     1       2.360   8.568  19.442  0.00  0.00    +0.000 HD
BRANCH  14  16
ATOM     16  C   UNL     1       1.526   9.494  17.843  0.00  0.00    +0.000 C 
BRANCH  16  17
ATOM     17  C   UNL     1       0.922  10.550  18.802  0.00  0.00    +0.000 C 
BRANCH  17  18
ATOM     18  C   UNL     1      -0.583  10.499  18.623  0.00  0.00    +0.000 A 
ATOM     19  C   UNL     1      -1.400  11.483  19.234  0.00  0.00    +0.000 A 
ATOM     20  C   UNL     1      -2.648  11.800  18.694  0.00  0.00    +0.000 A 
ATOM     21  C   UNL     1      -3.001  11.152  17.531  0.00  0.00    +0.000 A 
ATOM     22  C   UNL     1      -2.263  10.105  17.020  0.00  0.00    +0.000 A 
ATOM     23  C   UNL     1      -1.082   9.701  17.584  0.00  0.00    +0.000 A 
ATOM     24  O   UNL     1      -2.700   9.726  15.784  0.00  0.00    +0.000 OA
ATOM     25  C   UNL     1      -3.444  10.916  15.460  0.00  0.00    +0.000 C 
ATOM     26  O   UNL     1      -3.957  11.561  16.646  0.00  0.00    +0.000 OA
ENDBRANCH  17  18
ENDBRANCH  16  17
ENDBRANCH  14  16
ENDBRANCH   1  14
TORSDOF 8
ENDMDL
MODEL 8
REMARK VINA RESULT:      -7.0      1.579      2.114
REMARK  Name = 
REMARK  11 active torsions:
REMARK  status: ('A' for Active; 'I' for Inactive)
REMARK    1  A    between atoms: C_1  and  O_2
REMARK    2  A    between atoms: O_2  and  C_3
REMARK    3  A    between atoms: C_5  and  O_6
REMARK    4  A    between atoms: O_6  and  C_7
REMARK    5  A    between atoms: C_8  and  O_9
REMARK    6  A    between atoms: O_9  and  C_10
REMARK    7  A    between atoms: C_12  and  C_13
REMARK    8  A    between atoms: C_13  and  N_14
REMARK    9  A    between atoms: N_14  and  C_15
REMARK   10  A    between atoms: C_15  and  C_16
REMARK   11  A    between atoms: C_16  and  C_17
REMARK                            x       y       z     vdW  Elec       q    Type
REMARK                         _______ _______ _______ _____ _____    ______ ____
ROOT
ATOM      1  C   UNL     1       7.542   6.641  18.024  0.00  0.00    +0.000 C 
ENDROOT
BRANCH   1   7
ATOM      2  C   UNL     1       6.038   5.203  16.483  0.00  0.00    +0.000 A 
ATOM      3  C   UNL     1       4.907   4.381  16.375  0.00  0.00    +0.000 A 
ATOM      4  C   UNL     1       4.221   3.918  17.507  0.00  0.00    +0.000 A 
ATOM      5  C   UNL     1       4.727   4.204  18.775  0.00  0.00    +0.000 A 
ATOM      6  C   UNL     1       5.821   5.065  18.881  0.00  0.00    +0.000 A 
ATOM      7  C   UNL     1       6.479   5.600  17.749  0.00  0.00    +0.000 A 
BRANCH   2   9
ATOM      8  C   UNL     1       6.702   4.805  14.226  0.00  0.00    +0.000 C 
ATOM      9  O   UNL     1       6.469   5.719  15.293  0.00  0.00    +0.000 OA
ENDBRANCH   2   9
BRANCH   4  10
ATOM     10  O   UNL     1       3.093   3.188  17.229  0.00  0.00    +0.000 OA
ATOM     11  C   UNL     1       1.856   3.826  17.542  0.00  0.00    +0.000 C 
ENDBRANCH   4  10
BRANCH   5  12
ATOM     12  O   UNL     1       4.113   3.676  19.879  0.00  0.00    +0.000 OA
ATOM     13  C   UNL     1       4.453   2.323  20.174  0.00  0.00    +0.000 C 
ENDBRANCH   5  12
ENDBRANCH   1   7
BRANCH   1  14
ATOM     14  N   UNL     1       7.208   7.887  17.314  0.00  0.00    +0.000 NA
ATOM     15  H   UNL     1       6.333   8.238  17.700  0.00  0.00    +0.000 HD
BRANCH  14  16
ATOM     16  C   UNL     1       8.232   8.915  17.484  0.00  0.00    +0.000 C 
BRANCH  16  17
ATOM     17  C   UNL     1       8.797   9.059  18.920  0.00  0.00    +0.000 C 
BRANCH  17  18
ATOM     18  C   UNL     1       9.286  10.487  19.060  0.00  0.00    +0.000 A 
ATOM     19  C   UNL     1       9.008  11.431  18.040  0.00  0.00    +0.000 A 
ATOM     20  C   UNL     1       8.946  12.794  18.337  0.00  0.00    +0.000 A 
ATOM     21  C   UNL     1       9.115  13.147  19.657  0.00  0.00    +0.000 A 
ATOM     22  C   UNL     1       9.517  12.240  20.615  0.00  0.00    +0.000 A 
ATOM     23  C   UNL     1       9.685  10.910  20.336  0.00  0.00    +0.000 A 
ATOM     24  O   UNL     1       9.460  12.766  21.874  0.00  0.00    +0.000 OA
ATOM     25  C   UNL     1       8.586  13.875  21.589  0.00  0.00    +0.000 C 
ATOM     26  O   UNL     1       8.729  14.328  20.224  0.00  0.00    +0.000 OA
ENDBRANCH  17  18
ENDBRANCH  16  17
ENDBRANCH  14  16
ENDBRANCH   1  14
TORSDOF 8
ENDMDL
MODEL 9
REMARK VINA RESULT:      -7.0      5.588      8.272
REMARK  Name = 
REMARK  11 active torsions:
REMARK  status: ('A' for Active; 'I' for Inactive)
REMARK    1  A    between atoms: C_1  and  O_2
REMARK    2  A    between atoms: O_2  and  C_3
REMARK    3  A    between atoms: C_5  and  O_6
REMARK    4  A    between atoms: O_6  and  C_7
REMARK    5  A    between atoms: C_8  and  O_9
REMARK    6  A    between atoms: O_9  and  C_10
REMARK    7  A    between atoms: C_12  and  C_13
REMARK    8  A    between atoms: C_13  and  N_14
REMARK    9  A    between atoms: N_14  and  C_15
REMARK   10  A    between atoms: C_15  and  C_16
REMARK   11  A    between atoms: C_16  and  C_17
REMARK                            x       y       z     vdW  Elec       q    Type
REMARK                         _______ _______ _______ _____ _____    ______ ____
ROOT
ATOM      1  C   UNL     1       1.121   7.469  21.203  0.00  0.00    +0.000 C 
ENDROOT
BRANCH   1   7
ATOM      2  C   UNL     1       0.810   9.620  19.795  0.00  0.00    +0.000 A 
ATOM      3  C   UNL     1       0.536  10.997  19.791  0.00  0.00    +0.000 A 
ATOM      4  C   UNL     1       0.093  11.663  20.942  0.00  0.00    +0.000 A 
ATOM      5  C   UNL     1      -0.172  10.927  22.097  0.00  0.00    +0.000 A 
ATOM      6  C   UNL     1       0.151   9.569  22.115  0.00  0.00    +0.000 A 
ATOM      7  C   UNL     1       0.669   8.897  20.983  0.00  0.00    +0.000 A 
BRANCH   2   9
ATOM      8  C   UNL     1       2.023  10.136  17.806  0.00  0.00    +0.000 C 
ATOM      9  O   UNL     1       1.412   9.168  18.654  0.00  0.00    +0.000 OA
ENDBRANCH   2   9
BRANCH   4  10
ATOM     10  O   UNL     1      -0.057  13.019  20.791  0.00  0.00    +0.000 OA
ATOM     11  C   UNL     1      -1.119  13.427  19.929  0.00  0.00    +0.000 C 
ENDBRANCH   4  10
BRANCH   5  12
ATOM     12  O   UNL     1      -0.692  11.560  23.194  0.00  0.00    +0.000 OA
ATOM     13  C   UNL     1      -2.110  11.717  23.188  0.00  0.00    +0.000 C 
ENDBRANCH   5  12
ENDBRANCH   1   7
BRANCH   1  14
ATOM     14  N   UNL     1       2.357   7.220  20.443  0.00  0.00    +0.000 NA
ATOM     15  H   UNL     1       3.140   7.298  21.092  0.00  0.00    +0.000 HD
BRANCH  14  16
ATOM     16  C   UNL     1       2.385   5.887  19.848  0.00  0.00    +0.000 C 
BRANCH  16  17
ATOM     17  C   UNL     1       2.618   5.848  18.317  0.00  0.00    +0.000 C 
BRANCH  17  18
ATOM     18  C   UNL     1       4.114   5.954  18.096  0.00  0.00    +0.000 A 
ATOM     19  C   UNL     1       5.007   5.302  18.983  0.00  0.00    +0.000 A 
ATOM     20  C   UNL     1       6.279   4.921  18.553  0.00  0.00    +0.000 A 
ATOM     21  C   UNL     1       6.583   5.165  17.233  0.00  0.00    +0.000 A 
ATOM     22  C   UNL     1       5.765   5.918  16.416  0.00  0.00    +0.000 A 
ATOM     23  C   UNL     1       4.551   6.394  16.839  0.00  0.00    +0.000 A 
ATOM     24  O   UNL     1       6.175   5.892  15.115  0.00  0.00    +0.000 OA
ATOM     25  C   UNL     1       7.017   4.725  15.193  0.00  0.00    +0.000 C 
ATOM     26  O   UNL     1       7.575   4.560  16.516  0.00  0.00    +0.000 OA
ENDBRANCH  17  18
ENDBRANCH  16  17
ENDBRANCH  14  16
ENDBRANCH   1  14
TORSDOF 8
ENDMDL
