MODEL 1
REMARK VINA RESULT:      -7.1      0.000      0.000
REMARK  Name = 
REMARK  9 active torsions:
REMARK  status: ('A' for Active; 'I' for Inactive)
REMARK    1  A    between atoms: C_1  and  C_2
REMARK    2  A    between atoms: C_2  and  C_3
REMARK    3  A    between atoms: C_2  and  C_4
REMARK    4  A    between atoms: C_6  and  C_7
REMARK    5  A    between atoms: C_12  and  C_14
REMARK    6  A    between atoms: N_19  and  C_20
REMARK    7  A    between atoms: N_27  and  C_28
REMARK    8  A    between atoms: C_30  and  O_31
REMARK    9  A    between atoms: C_33  and  O_34
REMARK                            x       y       z     vdW  Elec       q    Type
REMARK                         _______ _______ _______ _____ _____    ______ ____
ROOT
ATOM      1  C   UNL     1      -5.613  13.976  21.747  0.00  0.00    +0.000 A 
ATOM      2  N   UNL     1      -6.346  14.912  22.332  0.00  0.00    +0.000 NA
ATOM      3  N   UNL     1      -5.617  15.481  23.335  0.00  0.00    +0.000 NA
ATOM      4  C   UNL     1      -4.404  14.981  23.316  0.00  0.00    +0.000 A 
ATOM      5  N   UNL     1      -3.428  15.358  24.202  0.00  0.00    +0.000 N 
ATOM      6  C   UNL     1      -2.217  15.854  23.783  0.00  0.00    +0.000 C 
ATOM      7  O   UNL     1      -1.870  15.935  22.583  0.00  0.00    +0.000 OA
ATOM      8  N   UNL     1      -4.316  13.995  22.329  0.00  0.00    +0.000 N 
ATOM      9  H   UNL     1      -3.770  15.786  25.058  0.00  0.00    +0.000 HD
ENDROOT
BRANCH   8  10
ATOM     10  C   UNL     1      -3.219  13.113  22.078  0.00  0.00    +0.000 A 
ATOM     11  C   UNL     1      -2.994  12.116  22.993  0.00  0.00    +0.000 A 
ATOM     12  C   UNL     1      -1.740  11.557  23.076  0.00  0.00    +0.000 A 
ATOM     13  C   UNL     1      -1.244  11.217  21.841  0.00  0.00    +0.000 A 
ATOM     14  C   UNL     1      -1.656  11.911  20.706  0.00  0.00    +0.000 A 
ATOM     15  C   UNL     1      -1.104  11.200  19.611  0.00  0.00    +0.000 A 
ATOM     16  C   UNL     1      -0.350  10.151  20.115  0.00  0.00    +0.000 A 
ATOM     17  N   UNL     1      -0.290  10.308  21.471  0.00  0.00    +0.000 N 
ATOM     18  C   UNL     1       0.518   9.556  22.404  0.00  0.00    +0.000 C 
ATOM     19  C   UNL     1      -2.467  13.061  20.895  0.00  0.00    +0.000 A 
ENDBRANCH   8  10
BRANCH   1  22
ATOM     20  C   UNL     1      -6.090  11.374  19.011  0.00  0.00    +0.000 A 
ATOM     21  C   UNL     1      -5.831  12.616  19.623  0.00  0.00    +0.000 A 
ATOM     22  C   UNL     1      -6.238  12.908  20.927  0.00  0.00    +0.000 A 
ATOM     23  C   UNL     1      -7.231  12.076  21.467  0.00  0.00    +0.000 A 
ATOM     24  C   UNL     1      -7.580  10.872  20.853  0.00  0.00    +0.000 A 
ATOM     25  C   UNL     1      -6.950  10.496  19.670  0.00  0.00    +0.000 A 
BRANCH  20  27
ATOM     26  C   UNL     1      -5.369  12.273  16.719  0.00  0.00    +0.000 C 
ATOM     27  C   UNL     1      -5.426  11.069  17.675  0.00  0.00    +0.000 C 
ATOM     28  C   UNL     1      -4.044  10.476  17.895  0.00  0.00    +0.000 C 
ENDBRANCH  20  27
BRANCH  23  29
ATOM     29  O   UNL     1      -7.916  12.392  22.611  0.00  0.00    +0.000 OA
ATOM     30  H   UNL     1      -7.631  11.771  23.313  0.00  0.00    +0.000 HD
ENDBRANCH  23  29
BRANCH  25  31
ATOM     31  O   UNL     1      -7.200   9.267  19.133  0.00  0.00    +0.000 OA
ATOM     32  H   UNL     1      -6.419   8.984  18.627  0.00  0.00    +0.000 HD
ENDBRANCH  25  31
ENDBRANCH   1  22
BRANCH   6  33
ATOM     33  C   UNL     1      -1.384  16.308  24.868  0.00  0.00    +0.000 A 
ATOM     34  C   UNL     1      -1.094  15.788  26.127  0.00  0.00    +0.000 A 
ATOM     35  C   UNL     1      -0.215  16.704  26.763  0.00  0.00    +0.000 A 
ATOM     36  C   UNL     1      -0.019  17.740  25.862  0.00  0.00    +0.000 A 
ATOM     37  O   UNL     1      -0.709  17.503  24.719  0.00  0.00    +0.000 OA
ENDBRANCH   6  33
TORSDOF 6
ENDMDL
MODEL 2
REMARK VINA RESULT:      -6.5      0.590      1.293
REMARK  Name = 
REMARK  9 active torsions:
REMARK  status: ('A' for Active; 'I' for Inactive)
REMARK    1  A    between atoms: C_1  and  C_2
REMARK    2  A    between atoms: C_2  and  C_3
REMARK    3  A    between atoms: C_2  and  C_4
REMARK    4  A    between atoms: C_6  and  C_7
REMARK    5  A    between atoms: C_12  and  C_14
REMARK    6  A    between atoms: N_19  and  C_20
REMARK    7  A    between atoms: N_27  and  C_28
REMARK    8  A    between atoms: C_30  and  O_31
REMARK    9  A    between atoms: C_33  and  O_34
REMARK                            x       y       z     vdW  Elec       q    Type
REMARK                         _______ _______ _______ _____ _____    ______ ____
ROOT
ATOM      1  C   UNL     1      -5.400  13.843  21.611  0.00  0.00    +0.000 A 
ATOM      2  N   UNL     1      -6.082  14.804  22.217  0.00  0.00    +0.000 NA
ATOM      3  N   UNL     1      -5.329  15.306  23.236  0.00  0.00    +0.000 NA
ATOM      4  C   UNL     1      -4.145  14.740  23.209  0.00  0.00    +0.000 A 
ATOM      5  N   UNL     1      -3.155  15.040  24.108  0.00  0.00    +0.000 N 
ATOM      6  C   UNL     1      -1.915  15.478  23.706  0.00  0.00    +0.000 C 
ATOM      7  O   UNL     1      -1.558  15.569  22.510  0.00  0.00    +0.000 OA
ATOM      8  N   UNL     1      -4.107  13.776  22.198  0.00  0.00    +0.000 N 
ATOM      9  H   UNL     1      -3.477  15.466  24.973  0.00  0.00    +0.000 HD
ENDROOT
BRANCH   8  10
ATOM     10  C   UNL     1      -3.060  12.840  21.929  0.00  0.00    +0.000 A 
ATOM     11  C   UNL     1      -2.260  13.089  20.843  0.00  0.00    +0.000 A 
ATOM     12  C   UNL     1      -1.578  12.045  20.263  0.00  0.00    +0.000 A 
ATOM     13  C   UNL     1      -0.923  11.277  21.194  0.00  0.00    +0.000 A 
ATOM     14  C   UNL     1      -1.405  11.194  22.498  0.00  0.00    +0.000 A 
ATOM     15  C   UNL     1      -0.413  10.484  23.221  0.00  0.00    +0.000 A 
ATOM     16  C   UNL     1       0.591  10.126  22.335  0.00  0.00    +0.000 A 
ATOM     17  N   UNL     1       0.159  10.445  21.079  0.00  0.00    +0.000 N 
ATOM     18  C   UNL     1       0.791  10.107  19.824  0.00  0.00    +0.000 C 
ATOM     19  C   UNL     1      -2.662  11.794  22.774  0.00  0.00    +0.000 A 
ENDBRANCH   8  10
BRANCH   1  22
ATOM     20  C   UNL     1      -5.966  11.252  18.882  0.00  0.00    +0.000 A 
ATOM     21  C   UNL     1      -5.617  12.471  19.495  0.00  0.00    +0.000 A 
ATOM     22  C   UNL     1      -6.079  12.832  20.762  0.00  0.00    +0.000 A 
ATOM     23  C   UNL     1      -7.192  12.123  21.241  0.00  0.00    +0.000 A 
ATOM     24  C   UNL     1      -7.626  10.951  20.619  0.00  0.00    +0.000 A 
ATOM     25  C   UNL     1      -6.961  10.485  19.489  0.00  0.00    +0.000 A 
BRANCH  20  27
ATOM     26  C   UNL     1      -5.040  12.011  16.613  0.00  0.00    +0.000 C 
ATOM     27  C   UNL     1      -5.248  10.850  17.601  0.00  0.00    +0.000 C 
ATOM     28  C   UNL     1      -3.932  10.163  17.926  0.00  0.00    +0.000 C 
ENDBRANCH  20  27
BRANCH  23  29
ATOM     29  O   UNL     1      -7.916  12.534  22.330  0.00  0.00    +0.000 OA
ATOM     30  H   UNL     1      -7.508  13.359  22.667  0.00  0.00    +0.000 HD
ENDBRANCH  23  29
BRANCH  25  31
ATOM     31  O   UNL     1      -7.305   9.280  18.951  0.00  0.00    +0.000 OA
ATOM     32  H   UNL     1      -7.441   9.393  17.995  0.00  0.00    +0.000 HD
ENDBRANCH  25  31
ENDBRANCH   1  22
BRANCH   6  33
ATOM     33  C   UNL     1      -1.064  15.859  24.805  0.00  0.00    +0.000 A 
ATOM     34  C   UNL     1      -1.170  15.709  26.186  0.00  0.00    +0.000 A 
ATOM     35  C   UNL     1      -0.018  16.311  26.759  0.00  0.00    +0.000 A 
ATOM     36  C   UNL     1       0.728  16.804  25.698  0.00  0.00    +0.000 A 
ATOM     37  O   UNL     1       0.110  16.526  24.523  0.00  0.00    +0.000 OA
ENDBRANCH   6  33
TORSDOF 6
ENDMDL
MODEL 3
REMARK VINA RESULT:      -6.4      3.876      6.104
REMARK  Name = 
REMARK  9 active torsions:
REMARK  status: ('A' for Active; 'I' for Inactive)
REMARK    1  A    between atoms: C_1  and  C_2
REMARK    2  A    between atoms: C_2  and  C_3
REMARK    3  A    between atoms: C_2  and  C_4
REMARK    4  A    between atoms: C_6  and  C_7
REMARK    5  A    between atoms: C_12  and  C_14
REMARK    6  A    between atoms: N_19  and  C_20
REMARK    7  A    between atoms: N_27  and  C_28
REMARK    8  A    between atoms: C_30  and  O_31
REMARK    9  A    between atoms: C_33  and  O_34
REMARK                            x       y       z     vdW  Elec       q    Type
REMARK                         _______ _______ _______ _____ _____    ______ ____
ROOT
ATOM      1  C   UNL     1      -1.235  11.452  19.031  0.00  0.00    +0.000 A 
ATOM      2  N   UNL     1      -0.417  10.419  18.887  0.00  0.00    +0.000 NA
ATOM      3  N   UNL     1       0.868  10.847  19.046  0.00  0.00    +0.000 NA
ATOM      4  C   UNL     1       0.855  12.114  19.389  0.00  0.00    +0.000 A 
ATOM      5  N   UNL     1       1.997  12.833  19.628  0.00  0.00    +0.000 N 
ATOM      6  C   UNL     1       2.211  13.484  20.819  0.00  0.00    +0.000 C 
ATOM      7  O   UNL     1       1.373  13.543  21.746  0.00  0.00    +0.000 OA
ATOM      8  N   UNL     1      -0.460  12.587  19.393  0.00  0.00    +0.000 N 
ATOM      9  H   UNL     1       2.842  12.443  19.219  0.00  0.00    +0.000 HD
ENDROOT
BRANCH   8  10
ATOM     10  C   UNL     1      -0.897  13.938  19.571  0.00  0.00    +0.000 A 
ATOM     11  C   UNL     1      -1.632  14.216  20.695  0.00  0.00    +0.000 A 
ATOM     12  C   UNL     1      -2.455  15.318  20.698  0.00  0.00    +0.000 A 
ATOM     13  C   UNL     1      -1.815  16.441  20.234  0.00  0.00    +0.000 A 
ATOM     14  C   UNL     1      -0.763  16.324  19.330  0.00  0.00    +0.000 A 
ATOM     15  C   UNL     1      -0.227  17.631  19.205  0.00  0.00    +0.000 A 
ATOM     16  C   UNL     1      -0.992  18.485  19.985  0.00  0.00    +0.000 A 
ATOM     17  N   UNL     1      -2.066  17.772  20.436  0.00  0.00    +0.000 N 
ATOM     18  C   UNL     1      -3.219  18.281  21.144  0.00  0.00    +0.000 C 
ATOM     19  C   UNL     1      -0.492  15.035  18.798  0.00  0.00    +0.000 A 
ENDBRANCH   8  10
BRANCH   1  22
ATOM     20  C   UNL     1      -4.982  12.068  18.765  0.00  0.00    +0.000 A 
ATOM     21  C   UNL     1      -3.741  11.676  19.307  0.00  0.00    +0.000 A 
ATOM     22  C   UNL     1      -2.625  11.414  18.510  0.00  0.00    +0.000 A 
ATOM     23  C   UNL     1      -2.876  11.188  17.148  0.00  0.00    +0.000 A 
ATOM     24  C   UNL     1      -4.115  11.485  16.581  0.00  0.00    +0.000 A 
ATOM     25  C   UNL     1      -5.134  11.995  17.381  0.00  0.00    +0.000 A 
BRANCH  20  27
ATOM     26  C   UNL     1      -7.126  11.461  20.036  0.00  0.00    +0.000 C 
ATOM     27  C   UNL     1      -6.075  12.538  19.716  0.00  0.00    +0.000 C 
ATOM     28  C   UNL     1      -5.463  13.104  20.986  0.00  0.00    +0.000 C 
ENDBRANCH  20  27
BRANCH  23  29
ATOM     29  O   UNL     1      -1.934  10.661  16.303  0.00  0.00    +0.000 OA
ATOM     30  H   UNL     1      -1.631   9.810  16.684  0.00  0.00    +0.000 HD
ENDBRANCH  23  29
BRANCH  25  31
ATOM     31  O   UNL     1      -6.304  12.400  16.810  0.00  0.00    +0.000 OA
ATOM     32  H   UNL     1      -6.120  12.711  15.907  0.00  0.00    +0.000 HD
ENDBRANCH  25  31
ENDBRANCH   1  22
BRANCH   6  33
ATOM     33  C   UNL     1       3.523  14.073  20.916  0.00  0.00    +0.000 A 
ATOM     34  C   UNL     1       4.260  14.898  20.069  0.00  0.00    +0.000 A 
ATOM     35  C   UNL     1       5.509  15.135  20.702  0.00  0.00    +0.000 A 
ATOM     36  C   UNL     1       5.473  14.435  21.900  0.00  0.00    +0.000 A 
ATOM     37  O   UNL     1       4.280  13.805  22.038  0.00  0.00    +0.000 OA
ENDBRANCH   6  33
TORSDOF 6
ENDMDL
MODEL 4
REMARK VINA RESULT:      -6.3      2.305      4.973
REMARK  Name = 
REMARK  9 active torsions:
REMARK  status: ('A' for Active; 'I' for Inactive)
REMARK    1  A    between atoms: C_1  and  C_2
REMARK    2  A    between atoms: C_2  and  C_3
REMARK    3  A    between atoms: C_2  and  C_4
REMARK    4  A    between atoms: C_6  and  C_7
REMARK    5  A    between atoms: C_12  and  C_14
REMARK    6  A    between atoms: N_19  and  C_20
REMARK    7  A    between atoms: N_27  and  C_28
REMARK    8  A    between atoms: C_30  and  O_31
REMARK    9  A    between atoms: C_33  and  O_34
REMARK                            x       y       z     vdW  Elec       q    Type
REMARK                         _______ _______ _______ _____ _____    ______ ____
ROOT
ATOM      1  C   UNL     1      -1.537  12.152  19.848  0.00  0.00    +0.000 A 
ATOM      2  N   UNL     1      -0.214  12.198  19.791  0.00  0.00    +0.000 NA
ATOM      3  N   UNL     1       0.231  13.188  20.617  0.00  0.00    +0.000 NA
ATOM      4  C   UNL     1      -0.792  13.692  21.266  0.00  0.00    +0.000 A 
ATOM      5  N   UNL     1      -0.670  14.706  22.179  0.00  0.00    +0.000 N 
ATOM      6  C   UNL     1      -1.114  14.578  23.473  0.00  0.00    +0.000 C 
ATOM      7  O   UNL     1      -1.727  13.577  23.908  0.00  0.00    +0.000 OA
ATOM      8  N   UNL     1      -1.974  13.089  20.824  0.00  0.00    +0.000 N 
ATOM      9  H   UNL     1       0.179  15.260  22.093  0.00  0.00    +0.000 HD
ENDROOT
BRANCH   8  10
ATOM     10  C   UNL     1      -3.314  13.449  21.169  0.00  0.00    +0.000 A 
ATOM     11  C   UNL     1      -3.791  14.638  20.676  0.00  0.00    +0.000 A 
ATOM     12  C   UNL     1      -4.838  15.255  21.320  0.00  0.00    +0.000 A 
ATOM     13  C   UNL     1      -5.864  14.382  21.588  0.00  0.00    +0.000 A 
ATOM     14  C   UNL     1      -5.603  13.026  21.762  0.00  0.00    +0.000 A 
ATOM     15  C   UNL     1      -6.875  12.405  21.839  0.00  0.00    +0.000 A 
ATOM     16  C   UNL     1      -7.842  13.395  21.761  0.00  0.00    +0.000 A 
ATOM     17  N   UNL     1      -7.198  14.598  21.811  0.00  0.00    +0.000 N 
ATOM     18  C   UNL     1      -7.798  15.908  21.928  0.00  0.00    +0.000 C 
ATOM     19  C   UNL     1      -4.243  12.618  21.810  0.00  0.00    +0.000 A 
ENDBRANCH   8  10
BRANCH   1  22
ATOM     20  C   UNL     1      -4.447  11.336  17.535  0.00  0.00    +0.000 A 
ATOM     21  C   UNL     1      -3.727  11.560  18.725  0.00  0.00    +0.000 A 
ATOM     22  C   UNL     1      -2.333  11.496  18.780  0.00  0.00    +0.000 A 
ATOM     23  C   UNL     1      -1.701  10.837  17.715  0.00  0.00    +0.000 A 
ATOM     24  C   UNL     1      -2.393  10.521  16.545  0.00  0.00    +0.000 A 
ATOM     25  C   UNL     1      -3.743  10.843  16.437  0.00  0.00    +0.000 A 
BRANCH  20  27
ATOM     26  C   UNL     1      -6.764  10.743  18.464  0.00  0.00    +0.000 C 
ATOM     27  C   UNL     1      -5.940  11.637  17.521  0.00  0.00    +0.000 C 
ATOM     28  C   UNL     1      -6.185  13.109  17.808  0.00  0.00    +0.000 C 
ENDBRANCH  20  27
BRANCH  23  29
ATOM     29  O   UNL     1      -0.383  10.461  17.759  0.00  0.00    +0.000 OA
ATOM     30  H   UNL     1      -0.134  10.349  18.699  0.00  0.00    +0.000 HD
ENDBRANCH  23  29
BRANCH  25  31
ATOM     31  O   UNL     1      -4.392  10.647  15.254  0.00  0.00    +0.000 OA
ATOM     32  H   UNL     1      -3.757  10.301  14.603  0.00  0.00    +0.000 HD
ENDBRANCH  25  31
ENDBRANCH   1  22
BRANCH   6  33
ATOM     33  C   UNL     1      -0.777  15.707  24.304  0.00  0.00    +0.000 A 
ATOM     34  C   UNL     1      -0.483  17.039  24.024  0.00  0.00    +0.000 A 
ATOM     35  C   UNL     1      -0.206  17.673  25.264  0.00  0.00    +0.000 A 
ATOM     36  C   UNL     1      -0.338  16.693  26.237  0.00  0.00    +0.000 A 
ATOM     37  O   UNL     1      -0.691  15.514  25.668  0.00  0.00    +0.000 OA
ENDBRANCH   6  33
TORSDOF 6
ENDMDL
MODEL 5
REMARK VINA RESULT:      -6.3      1.018      1.398
REMARK  Name = 
REMARK  9 active torsions:
REMARK  status: ('A' for Active; 'I' for Inactive)
REMARK    1  A    between atoms: C_1  and  C_2
REMARK    2  A    between atoms: C_2  and  C_3
REMARK    3  A    between atoms: C_2  and  C_4
REMARK    4  A    between atoms: C_6  and  C_7
REMARK    5  A    between atoms: C_12  and  C_14
REMARK    6  A    between atoms: N_19  and  C_20
REMARK    7  A    between atoms: N_27  and  C_28
REMARK    8  A    between atoms: C_30  and  O_31
REMARK    9  A    between atoms: C_33  and  O_34
REMARK                            x       y       z     vdW  Elec       q    Type
REMARK                         _______ _______ _______ _____ _____    ______ ____
ROOT
ATOM      1  C   UNL     1      -5.453  14.649  22.714  0.00  0.00    +0.000 A 
ATOM      2  N   UNL     1      -6.043  15.538  23.499  0.00  0.00    +0.000 NA
ATOM      3  N   UNL     1      -5.154  15.949  24.449  0.00  0.00    +0.000 NA
ATOM      4  C   UNL     1      -3.986  15.403  24.202  0.00  0.00    +0.000 A 
ATOM      5  N   UNL     1      -2.880  15.627  24.980  0.00  0.00    +0.000 N 
ATOM      6  C   UNL     1      -1.709  16.118  24.455  0.00  0.00    +0.000 C 
ATOM      7  O   UNL     1      -1.522  16.329  23.235  0.00  0.00    +0.000 OA
ATOM      8  N   UNL     1      -4.091  14.542  23.107  0.00  0.00    +0.000 N 
ATOM      9  H   UNL     1      -3.078  15.963  25.919  0.00  0.00    +0.000 HD
ENDROOT
BRANCH   8  10
ATOM     10  C   UNL     1      -3.092  13.650  22.604  0.00  0.00    +0.000 A 
ATOM     11  C   UNL     1      -2.845  12.512  23.331  0.00  0.00    +0.000 A 
ATOM     12  C   UNL     1      -1.632  11.879  23.187  0.00  0.00    +0.000 A 
ATOM     13  C   UNL     1      -1.292  11.708  21.868  0.00  0.00    +0.000 A 
ATOM     14  C   UNL     1      -1.769  12.591  20.902  0.00  0.00    +0.000 A 
ATOM     15  C   UNL     1      -1.385  12.030  19.658  0.00  0.00    +0.000 A 
ATOM     16  C   UNL     1      -0.660  10.876  19.912  0.00  0.00    +0.000 A 
ATOM     17  N   UNL     1      -0.450  10.816  21.261  0.00  0.00    +0.000 N 
ATOM     18  C   UNL     1       0.395   9.885  21.974  0.00  0.00    +0.000 C 
ATOM     19  C   UNL     1      -2.472  13.740  21.350  0.00  0.00    +0.000 A 
ENDBRANCH   8  10
BRANCH   1  22
ATOM     20  C   UNL     1      -6.432  12.396  19.806  0.00  0.00    +0.000 A 
ATOM     21  C   UNL     1      -6.015  13.547  20.506  0.00  0.00    +0.000 A 
ATOM     22  C   UNL     1      -6.244  13.716  21.873  0.00  0.00    +0.000 A 
ATOM     23  C   UNL     1      -7.224  12.889  22.444  0.00  0.00    +0.000 A 
ATOM     24  C   UNL     1      -7.727  11.783  21.758  0.00  0.00    +0.000 A 
ATOM     25  C   UNL     1      -7.270  11.503  20.474  0.00  0.00    +0.000 A 
BRANCH  20  27
ATOM     26  C   UNL     1      -5.284  10.840  18.121  0.00  0.00    +0.000 C 
ATOM     27  C   UNL     1      -5.953  12.202  18.374  0.00  0.00    +0.000 C 
ATOM     28  C   UNL     1      -7.092  12.444  17.398  0.00  0.00    +0.000 C 
ENDBRANCH  20  27
BRANCH  23  29
ATOM     29  O   UNL     1      -7.745  13.117  23.691  0.00  0.00    +0.000 OA
ATOM     30  H   UNL     1      -8.416  12.425  23.867  0.00  0.00    +0.000 HD
ENDBRANCH  23  29
BRANCH  25  31
ATOM     31  O   UNL     1      -7.668  10.358  19.849  0.00  0.00    +0.000 OA
ATOM     32  H   UNL     1      -6.938  10.037  19.291  0.00  0.00    +0.000 HD
ENDBRANCH  25  31
ENDBRANCH   1  22
BRANCH   6  33
ATOM     33  C   UNL     1      -0.712  16.401  25.457  0.00  0.00    +0.000 A 
ATOM     34  C   UNL     1       0.400  17.239  25.482  0.00  0.00    +0.000 A 
ATOM     35  C   UNL     1       1.016  17.074  26.751  0.00  0.00    +0.000 A 
ATOM     36  C   UNL     1       0.252  16.136  27.432  0.00  0.00    +0.000 A 
ATOM     37  O   UNL     1      -0.792  15.737  26.664  0.00  0.00    +0.000 OA
ENDBRANCH   6  33
TORSDOF 6
ENDMDL
MODEL 6
REMARK VINA RESULT:      -6.1      3.226      7.566
REMARK  Name = 
REMARK  9 active torsions:
REMARK  status: ('A' for Active; 'I' for Inactive)
REMARK    1  A    between atoms: C_1  and  C_2
REMARK    2  A    between atoms: C_2  and  C_3
REMARK    3  A    between atoms: C_2  and  C_4
REMARK    4  A    between atoms: C_6  and  C_7
REMARK    5  A    between atoms: C_12  and  C_14
REMARK    6  A    between atoms: N_19  and  C_20
REMARK    7  A    between atoms: N_27  and  C_28
REMARK    8  A    between atoms: C_30  and  O_31
REMARK    9  A    between atoms: C_33  and  O_34
REMARK                            x       y       z     vdW  Elec       q    Type
REMARK                         _______ _______ _______ _____ _____    ______ ____
ROOT
ATOM      1  C   UNL     1      -2.755  13.550  22.380  0.00  0.00    +0.000 A 
ATOM      2  N   UNL     1      -4.017  13.146  22.411  0.00  0.00    +0.000 NA
ATOM      3  N   UNL     1      -4.359  12.671  21.179  0.00  0.00    +0.000 NA
ATOM      4  C   UNL     1      -3.296  12.681  20.409  0.00  0.00    +0.000 A 
ATOM      5  N   UNL     1      -3.316  12.256  19.107  0.00  0.00    +0.000 N 
ATOM      6  C   UNL     1      -2.480  11.265  18.651  0.00  0.00    +0.000 C 
ATOM      7  O   UNL     1      -1.591  10.724  19.347  0.00  0.00    +0.000 OA
ATOM      8  N   UNL     1      -2.219  13.242  21.101  0.00  0.00    +0.000 N 
ATOM      9  H   UNL     1      -4.236  12.243  18.674  0.00  0.00    +0.000 HD
ENDROOT
BRANCH   8  10
ATOM     10  C   UNL     1      -0.927  13.566  20.580  0.00  0.00    +0.000 A 
ATOM     11  C   UNL     1      -0.838  14.663  19.760  0.00  0.00    +0.000 A 
ATOM     12  C   UNL     1       0.214  14.754  18.879  0.00  0.00    +0.000 A 
ATOM     13  C   UNL     1       1.418  14.489  19.485  0.00  0.00    +0.000 A 
ATOM     14  C   UNL     1       1.473  13.655  20.598  0.00  0.00    +0.000 A 
ATOM     15  C   UNL     1       2.808  13.743  21.068  0.00  0.00    +0.000 A 
ATOM     16  C   UNL     1       3.512  14.573  20.209  0.00  0.00    +0.000 A 
ATOM     17  N   UNL     1       2.696  14.848  19.149  0.00  0.00    +0.000 N 
ATOM     18  C   UNL     1       3.050  15.534  17.927  0.00  0.00    +0.000 C 
ATOM     19  C   UNL     1       0.283  12.977  20.973  0.00  0.00    +0.000 A 
ENDBRANCH   8  10
BRANCH   1  22
ATOM     20  C   UNL     1      -0.919  16.506  23.923  0.00  0.00    +0.000 A 
ATOM     21  C   UNL     1      -1.150  15.347  23.155  0.00  0.00    +0.000 A 
ATOM     22  C   UNL     1      -2.219  14.485  23.402  0.00  0.00    +0.000 A 
ATOM     23  C   UNL     1      -2.830  14.601  24.660  0.00  0.00    +0.000 A 
ATOM     24  C   UNL     1      -2.573  15.691  25.493  0.00  0.00    +0.000 A 
ATOM     25  C   UNL     1      -1.676  16.673  25.082  0.00  0.00    +0.000 A 
BRANCH  20  27
ATOM     26  C   UNL     1       1.324  16.837  22.723  0.00  0.00    +0.000 C 
ATOM     27  C   UNL     1       0.137  17.495  23.449  0.00  0.00    +0.000 C 
ATOM     28  C   UNL     1      -0.498  18.578  22.593  0.00  0.00    +0.000 C 
ENDBRANCH  20  27
BRANCH  23  29
ATOM     29  O   UNL     1      -3.701  13.660  25.147  0.00  0.00    +0.000 OA
ATOM     30  H   UNL     1      -3.596  12.848  24.609  0.00  0.00    +0.000 HD
ENDBRANCH  23  29
BRANCH  25  31
ATOM     31  O   UNL     1      -1.513  17.798  25.836  0.00  0.00    +0.000 OA
ATOM     32  H   UNL     1      -0.608  17.807  26.191  0.00  0.00    +0.000 HD
ENDBRANCH  25  31
ENDBRANCH   1  22
BRANCH   6  33
ATOM     33  C   UNL     1      -2.746  10.879  17.289  0.00  0.00    +0.000 A 
ATOM     34  C   UNL     1      -2.161   9.949  16.432  0.00  0.00    +0.000 A 
ATOM     35  C   UNL     1      -2.848  10.036  15.192  0.00  0.00    +0.000 A 
ATOM     36  C   UNL     1      -3.814  11.020  15.355  0.00  0.00    +0.000 A 
ATOM     37  O   UNL     1      -3.764  11.521  16.614  0.00  0.00    +0.000 OA
ENDBRANCH   6  33
TORSDOF 6
ENDMDL
MODEL 7
REMARK VINA RESULT:      -6.0      9.265     12.623
REMARK  Name = 
REMARK  9 active torsions:
REMARK  status: ('A' for Active; 'I' for Inactive)
REMARK    1  A    between atoms: C_1  and  C_2
REMARK    2  A    between atoms: C_2  and  C_3
REMARK    3  A    between atoms: C_2  and  C_4
REMARK    4  A    between atoms: C_6  and  C_7
REMARK    5  A    between atoms: C_12  and  C_14
REMARK    6  A    between atoms: N_19  and  C_20
REMARK    7  A    between atoms: N_27  and  C_28
REMARK    8  A    between atoms: C_30  and  O_31
REMARK    9  A    between atoms: C_33  and  O_34
REMARK                            x       y       z     vdW  Elec       q    Type
REMARK                         _______ _______ _______ _____ _____    ______ ____
ROOT
ATOM      1  C   UNL     1       7.434  14.951  18.322  0.00  0.00    +0.000 A 
ATOM      2  N   UNL     1       6.620  14.902  17.277  0.00  0.00    +0.000 NA
ATOM      3  N   UNL     1       5.376  15.304  17.667  0.00  0.00    +0.000 NA
ATOM      4  C   UNL     1       5.429  15.701  18.917  0.00  0.00    +0.000 A 
ATOM      5  N   UNL     1       4.336  16.170  19.597  0.00  0.00    +0.000 N 
ATOM      6  C   UNL     1       4.324  17.411  20.188  0.00  0.00    +0.000 C 
ATOM      7  O   UNL     1       5.312  18.178  20.226  0.00  0.00    +0.000 OA
ATOM      8  N   UNL     1       6.717  15.498  19.421  0.00  0.00    +0.000 N 
ATOM      9  H   UNL     1       3.439  15.896  19.206  0.00  0.00    +0.000 HD
ENDROOT
BRANCH   8  10
ATOM     10  C   UNL     1       7.157  15.661  20.772  0.00  0.00    +0.000 A 
ATOM     11  C   UNL     1       6.653  14.791  21.705  0.00  0.00    +0.000 A 
ATOM     12  C   UNL     1       6.649  15.162  23.029  0.00  0.00    +0.000 A 
ATOM     13  C   UNL     1       7.862  15.668  23.428  0.00  0.00    +0.000 A 
ATOM     14  C   UNL     1       8.700  16.286  22.504  0.00  0.00    +0.000 A 
ATOM     15  C   UNL     1       9.915  16.521  23.196  0.00  0.00    +0.000 A 
ATOM     16  C   UNL     1       9.753  16.090  24.504  0.00  0.00    +0.000 A 
ATOM     17  N   UNL     1       8.437  15.764  24.666  0.00  0.00    +0.000 N 
ATOM     18  C   UNL     1       7.765  15.425  25.900  0.00  0.00    +0.000 C 
ATOM     19  C   UNL     1       8.189  16.510  21.198  0.00  0.00    +0.000 A 
ENDBRANCH   8  10
BRANCH   1  22
ATOM     20  C   UNL     1       9.892  12.077  18.752  0.00  0.00    +0.000 A 
ATOM     21  C   UNL     1       8.881  13.009  19.059  0.00  0.00    +0.000 A 
ATOM     22  C   UNL     1       8.711  14.194  18.340  0.00  0.00    +0.000 A 
ATOM     23  C   UNL     1       9.801  14.604  17.556  0.00  0.00    +0.000 A 
ATOM     24  C   UNL     1      10.866  13.743  17.290  0.00  0.00    +0.000 A 
ATOM     25  C   UNL     1      10.864  12.460  17.829  0.00  0.00    +0.000 A 
BRANCH  20  27
ATOM     26  C   UNL     1       9.462  10.789  20.929  0.00  0.00    +0.000 C 
ATOM     27  C   UNL     1       9.866  10.722  19.446  0.00  0.00    +0.000 C 
ATOM     28  C   UNL     1       8.982   9.752  18.679  0.00  0.00    +0.000 C 
ENDBRANCH  20  27
BRANCH  23  29
ATOM     29  O   UNL     1       9.888  15.861  17.016  0.00  0.00    +0.000 OA
ATOM     30  H   UNL     1      10.334  16.439  17.670  0.00  0.00    +0.000 HD
ENDBRANCH  23  29
BRANCH  25  31
ATOM     31  O   UNL     1      11.841  11.576  17.474  0.00  0.00    +0.000 OA
ATOM     32  H   UNL     1      12.303  11.282  18.277  0.00  0.00    +0.000 HD
ENDBRANCH  25  31
ENDBRANCH   1  22
BRANCH   6  33
ATOM     33  C   UNL     1       3.041  17.763  20.741  0.00  0.00    +0.000 A 
ATOM     34  C   UNL     1       2.453  17.560  21.988  0.00  0.00    +0.000 A 
ATOM     35  C   UNL     1       1.150  18.120  21.930  0.00  0.00    +0.000 A 
ATOM     36  C   UNL     1       1.006  18.631  20.648  0.00  0.00    +0.000 A 
ATOM     37  O   UNL     1       2.141  18.429  19.934  0.00  0.00    +0.000 OA
ENDBRANCH   6  33
TORSDOF 6
ENDMDL
MODEL 8
REMARK VINA RESULT:      -6.0      3.466      6.144
REMARK  Name = 
REMARK  9 active torsions:
REMARK  status: ('A' for Active; 'I' for Inactive)
REMARK    1  A    between atoms: C_1  and  C_2
REMARK    2  A    between atoms: C_2  and  C_3
REMARK    3  A    between atoms: C_2  and  C_4
REMARK    4  A    between atoms: C_6  and  C_7
REMARK    5  A    between atoms: C_12  and  C_14
REMARK    6  A    between atoms: N_19  and  C_20
REMARK    7  A    between atoms: N_27  and  C_28
REMARK    8  A    between atoms: C_30  and  O_31
REMARK    9  A    between atoms: C_33  and  O_34
REMARK                            x       y       z     vdW  Elec       q    Type
REMARK                         _______ _______ _______ _____ _____    ______ ____
ROOT
ATOM      1  C   UNL     1      -2.285  12.540  19.857  0.00  0.00    +0.000 A 
ATOM      2  N   UNL     1      -1.995  11.905  18.731  0.00  0.00    +0.000 NA
ATOM      3  N   UNL     1      -0.783  12.337  18.279  0.00  0.00    +0.000 NA
ATOM      4  C   UNL     1      -0.267  13.158  19.164  0.00  0.00    +0.000 A 
ATOM      5  N   UNL     1       0.953  13.759  19.000  0.00  0.00    +0.000 N 
ATOM      6  C   UNL     1       1.959  13.628  19.927  0.00  0.00    +0.000 C 
ATOM      7  O   UNL     1       1.834  13.025  21.017  0.00  0.00    +0.000 OA
ATOM      8  N   UNL     1      -1.174  13.354  20.209  0.00  0.00    +0.000 N 
ATOM      9  H   UNL     1       1.286  13.798  18.040  0.00  0.00    +0.000 HD
ENDROOT
BRANCH   8  10
ATOM     10  C   UNL     1      -1.063  14.279  21.294  0.00  0.00    +0.000 A 
ATOM     11  C   UNL     1      -1.321  15.599  21.022  0.00  0.00    +0.000 A 
ATOM     12  C   UNL     1      -0.795  16.566  21.846  0.00  0.00    +0.000 A 
ATOM     13  C   UNL     1      -1.006  16.283  23.174  0.00  0.00    +0.000 A 
ATOM     14  C   UNL     1      -1.139  14.962  23.595  0.00  0.00    +0.000 A 
ATOM     15  C   UNL     1      -1.520  15.040  24.959  0.00  0.00    +0.000 A 
ATOM     16  C   UNL     1      -1.555  16.378  25.320  0.00  0.00    +0.000 A 
ATOM     17  N   UNL     1      -1.045  17.095  24.275  0.00  0.00    +0.000 N 
ATOM     18  C   UNL     1      -0.729  18.505  24.253  0.00  0.00    +0.000 C 
ATOM     19  C   UNL     1      -0.891  13.939  22.643  0.00  0.00    +0.000 A 
ENDBRANCH   8  10
BRANCH   1  22
ATOM     20  C   UNL     1      -5.224  13.216  22.179  0.00  0.00    +0.000 A 
ATOM     21  C   UNL     1      -3.989  12.715  21.721  0.00  0.00    +0.000 A 
ATOM     22  C   UNL     1      -3.679  12.616  20.363  0.00  0.00    +0.000 A 
ATOM     23  C   UNL     1      -4.764  12.672  19.474  0.00  0.00    +0.000 A 
ATOM     24  C   UNL     1      -6.027  13.085  19.899  0.00  0.00    +0.000 A 
ATOM     25  C   UNL     1      -6.227  13.426  21.234  0.00  0.00    +0.000 A 
BRANCH  20  27
ATOM     26  C   UNL     1      -4.575  12.544  24.569  0.00  0.00    +0.000 C 
ATOM     27  C   UNL     1      -5.390  13.488  23.668  0.00  0.00    +0.000 C 
ATOM     28  C   UNL     1      -5.082  14.944  23.977  0.00  0.00    +0.000 C 
ENDBRANCH  20  27
BRANCH  23  29
ATOM     29  O   UNL     1      -4.653  12.323  18.153  0.00  0.00    +0.000 OA
ATOM     30  H   UNL     1      -5.529  12.002  17.853  0.00  0.00    +0.000 HD
ENDBRANCH  23  29
BRANCH  25  31
ATOM     31  O   UNL     1      -7.426  13.945  21.627  0.00  0.00    +0.000 OA
ATOM     32  H   UNL     1      -7.547  14.809  21.198  0.00  0.00    +0.000 HD
ENDBRANCH  25  31
ENDBRANCH   1  22
BRANCH   6  33
ATOM     33  C   UNL     1       3.200  14.229  19.507  0.00  0.00    +0.000 A 
ATOM     34  C   UNL     1       4.289  14.749  20.204  0.00  0.00    +0.000 A 
ATOM     35  C   UNL     1       5.212  15.227  19.236  0.00  0.00    +0.000 A 
ATOM     36  C   UNL     1       4.635  14.981  17.998  0.00  0.00    +0.000 A 
ATOM     37  O   UNL     1       3.433  14.373  18.154  0.00  0.00    +0.000 OA
ENDBRANCH   6  33
TORSDOF 6
ENDMDL
MODEL 9
REMARK VINA RESULT:      -6.0      4.318      5.833
REMARK  Name = 
REMARK  9 active torsions:
REMARK  status: ('A' for Active; 'I' for Inactive)
REMARK    1  A    between atoms: C_1  and  C_2
REMARK    2  A    between atoms: C_2  and  C_3
REMARK    3  A    between atoms: C_2  and  C_4
REMARK    4  A    between atoms: C_6  and  C_7
REMARK    5  A    between atoms: C_12  and  C_14
REMARK    6  A    between atoms: N_19  and  C_20
REMARK    7  A    between atoms: N_27  and  C_28
REMARK    8  A    between atoms: C_30  and  O_31
REMARK    9  A    between atoms: C_33  and  O_34
REMARK                            x       y       z     vdW  Elec       q    Type
REMARK                         _______ _______ _______ _____ _____    ______ ____
ROOT
ATOM      1  C   UNL     1      -0.728  15.804  21.865  0.00  0.00    +0.000 A 
ATOM      2  N   UNL     1      -0.268  16.902  22.448  0.00  0.00    +0.000 NA
ATOM      3  N   UNL     1       1.040  17.072  22.101  0.00  0.00    +0.000 NA
ATOM      4  C   UNL     1       1.372  16.149  21.228  0.00  0.00    +0.000 A 
ATOM      5  N   UNL     1       2.626  16.056  20.682  0.00  0.00    +0.000 N 
ATOM      6  C   UNL     1       2.832  16.082  19.324  0.00  0.00    +0.000 C 
ATOM      7  O   UNL     1       1.911  16.114  18.477  0.00  0.00    +0.000 OA
ATOM      8  N   UNL     1       0.294  15.282  21.026  0.00  0.00    +0.000 N 
ATOM      9  H   UNL     1       3.360  16.517  21.215  0.00  0.00    +0.000 HD
ENDROOT
BRANCH   8  10
ATOM     10  C   UNL     1       0.286  14.069  20.269  0.00  0.00    +0.000 A 
ATOM     11  C   UNL     1       1.048  13.030  20.740  0.00  0.00    +0.000 A 
ATOM     12  C   UNL     1       1.455  12.051  19.864  0.00  0.00    +0.000 A 
ATOM     13  C   UNL     1       0.421  11.593  19.085  0.00  0.00    +0.000 A 
ATOM     14  C   UNL     1      -0.658  12.424  18.794  0.00  0.00    +0.000 A 
ATOM     15  C   UNL     1      -1.605  11.597  18.139  0.00  0.00    +0.000 A 
ATOM     16  C   UNL     1      -1.054  10.330  18.015  0.00  0.00    +0.000 A 
ATOM     17  N   UNL     1       0.248  10.411  18.417  0.00  0.00    +0.000 N 
ATOM     18  C   UNL     1       1.263   9.387  18.307  0.00  0.00    +0.000 C 
ATOM     19  C   UNL     1      -0.567  13.784  19.193  0.00  0.00    +0.000 A 
ENDBRANCH   8  10
BRANCH   1  22
ATOM     20  C   UNL     1      -4.069  13.982  21.859  0.00  0.00    +0.000 A 
ATOM     21  C   UNL     1      -3.101  14.969  21.588  0.00  0.00    +0.000 A 
ATOM     22  C   UNL     1      -1.949  15.120  22.362  0.00  0.00    +0.000 A 
ATOM     23  C   UNL     1      -1.969  14.515  23.628  0.00  0.00    +0.000 A 
ATOM     24  C   UNL     1      -2.955  13.590  23.972  0.00  0.00    +0.000 A 
ATOM     25  C   UNL     1      -3.953  13.274  23.055  0.00  0.00    +0.000 A 
BRANCH  20  27
ATOM     26  C   UNL     1      -5.677  15.039  20.162  0.00  0.00    +0.000 C 
ATOM     27  C   UNL     1      -5.178  13.752  20.841  0.00  0.00    +0.000 C 
ATOM     28  C   UNL     1      -4.746  12.720  19.812  0.00  0.00    +0.000 C 
ENDBRANCH  20  27
BRANCH  23  29
ATOM     29  O   UNL     1      -1.038  14.797  24.594  0.00  0.00    +0.000 OA
ATOM     30  H   UNL     1      -1.411  15.491  25.177  0.00  0.00    +0.000 HD
ENDBRANCH  23  29
BRANCH  25  31
ATOM     31  O   UNL     1      -4.846  12.284  23.341  0.00  0.00    +0.000 OA
ATOM     32  H   UNL     1      -5.711  12.527  22.971  0.00  0.00    +0.000 HD
ENDBRANCH  25  31
ENDBRANCH   1  22
BRANCH   6  33
ATOM     33  C   UNL     1       4.227  16.100  18.962  0.00  0.00    +0.000 A 
ATOM     34  C   UNL     1       5.089  15.134  18.448  0.00  0.00    +0.000 A 
ATOM     35  C   UNL     1       6.365  15.743  18.316  0.00  0.00    +0.000 A 
ATOM     36  C   UNL     1       6.217  17.049  18.763  0.00  0.00    +0.000 A 
ATOM     37  O   UNL     1       4.934  17.272  19.142  0.00  0.00    +0.000 OA
ENDBRANCH   6  33
TORSDOF 6
ENDMDL
