MODEL 1
REMARK VINA RESULT:      -8.1      0.000      0.000
REMARK  Name = 
REMARK  6 active torsions:
REMARK  status: ('A' for Active; 'I' for Inactive)
REMARK    1  A    between atoms: C_1  and  C_2
REMARK    2  A    between atoms: C_8  and  C_9
REMARK    3  A    between atoms: C_8  and  C_10
REMARK    4  A    between atoms: N_12  and  C_13
REMARK    5  A    between atoms: C_13  and  C_14
REMARK    6  A    between atoms: C_19  and  C_20
REMARK                            x       y       z     vdW  Elec       q    Type
REMARK                         _______ _______ _______ _____ _____    ______ ____
ROOT
ATOM      1  C   UNL     1       4.386   4.379  18.162  0.00  0.00    +0.000 C 
ATOM      2  O   UNL     1       5.088   4.699  19.120  0.00  0.00    +0.000 OA
ATOM      3  N   UNL     1       4.907   4.182  16.899  0.00  0.00    +0.000 N 
ATOM      4  H   UNL     1       4.256   4.096  16.129  0.00  0.00    +0.000 HD
ENDROOT
BRANCH   1  12
ATOM      5  C   UNL     1       2.183   5.559  20.957  0.00  0.00    +0.000 C 
ATOM      6  C   UNL     1       2.267   4.068  20.836  0.00  0.00    +0.000 C 
ATOM      7  O   UNL     1       2.156   3.368  21.846  0.00  0.00    +0.000 OA
ATOM      8  N   UNL     1       2.463   3.503  19.595  0.00  0.00    +0.000 N 
ATOM      9  C   UNL     1       2.360   2.055  19.485  0.00  0.00    +0.000 C 
ATOM     10  C   UNL     1       2.250   1.854  18.016  0.00  0.00    +0.000 C 
ATOM     11  C   UNL     1       2.510   2.989  17.358  0.00  0.00    +0.000 C 
ATOM     12  C   UNL     1       2.847   4.127  18.297  0.00  0.00    +0.000 C 
ATOM     13  C   UNL     1       2.082   5.382  17.889  0.00  0.00    +0.000 C 
ENDBRANCH   1  12
BRANCH   3  14
ATOM     14  C   UNL     1       6.296   4.419  16.595  0.00  0.00    +0.000 C 
BRANCH  14  15
ATOM     15  C   UNL     1       6.536   4.462  15.108  0.00  0.00    +0.000 A 
ATOM     16  C   UNL     1       7.646   5.134  14.582  0.00  0.00    +0.000 A 
ATOM     17  C   UNL     1       7.844   5.177  13.206  0.00  0.00    +0.000 A 
ATOM     18  F   UNL     1       8.900   5.837  12.715  0.00  0.00    +0.000 F 
ATOM     19  C   UNL     1       6.962   4.553  12.331  0.00  0.00    +0.000 A 
ATOM     20  C   UNL     1       5.857   3.855  12.833  0.00  0.00    +0.000 A 
ATOM     21  C   UNL     1       5.656   3.812  14.225  0.00  0.00    +0.000 A 
BRANCH  20  22
ATOM     22  C   UNL     1       4.889   3.159  11.908  0.00  0.00    +0.000 C 
ATOM     23  F   UNL     1       5.309   1.922  11.517  0.00  0.00    +0.000 F 
ATOM     24  F   UNL     1       3.666   2.975  12.474  0.00  0.00    +0.000 F 
ATOM     25  F   UNL     1       4.673   3.856  10.759  0.00  0.00    +0.000 F 
ENDBRANCH  20  22
ENDBRANCH  14  15
ENDBRANCH   3  14
TORSDOF 4
ENDMDL
MODEL 2
REMARK VINA RESULT:      -7.9      5.859      8.221
REMARK  Name = 
REMARK  6 active torsions:
REMARK  status: ('A' for Active; 'I' for Inactive)
REMARK    1  A    between atoms: C_1  and  C_2
REMARK    2  A    between atoms: C_8  and  C_9
REMARK    3  A    between atoms: C_8  and  C_10
REMARK    4  A    between atoms: N_12  and  C_13
REMARK    5  A    between atoms: C_13  and  C_14
REMARK    6  A    between atoms: C_19  and  C_20
REMARK                            x       y       z     vdW  Elec       q    Type
REMARK                         _______ _______ _______ _____ _____    ______ ____
ROOT
ATOM      1  C   UNL     1       2.778   5.573  19.115  0.00  0.00    +0.000 C 
ATOM      2  O   UNL     1       3.637   5.840  19.953  0.00  0.00    +0.000 OA
ATOM      3  N   UNL     1       2.268   6.522  18.251  0.00  0.00    +0.000 N 
ATOM      4  H   UNL     1       1.447   6.278  17.715  0.00  0.00    +0.000 HD
ENDROOT
BRANCH   1  12
ATOM      5  C   UNL     1       3.027   2.752  21.573  0.00  0.00    +0.000 C 
ATOM      6  C   UNL     1       3.729   2.492  20.275  0.00  0.00    +0.000 C 
ATOM      7  O   UNL     1       4.731   1.771  20.257  0.00  0.00    +0.000 OA
ATOM      8  N   UNL     1       3.241   3.061  19.119  0.00  0.00    +0.000 N 
ATOM      9  C   UNL     1       3.834   2.648  17.855  0.00  0.00    +0.000 C 
ATOM     10  C   UNL     1       2.848   3.147  16.861  0.00  0.00    +0.000 C 
ATOM     11  C   UNL     1       1.953   3.955  17.441  0.00  0.00    +0.000 C 
ATOM     12  C   UNL     1       2.215   4.125  18.922  0.00  0.00    +0.000 C 
ATOM     13  C   UNL     1       0.913   3.971  19.702  0.00  0.00    +0.000 C 
ENDBRANCH   1  12
BRANCH   3  14
ATOM     14  C   UNL     1       2.647   7.912  18.328  0.00  0.00    +0.000 C 
BRANCH  14  15
ATOM     15  C   UNL     1       1.536   8.755  18.901  0.00  0.00    +0.000 A 
ATOM     16  C   UNL     1       0.742   9.552  18.068  0.00  0.00    +0.000 A 
ATOM     17  C   UNL     1      -0.269  10.335  18.615  0.00  0.00    +0.000 A 
ATOM     18  F   UNL     1      -1.011  11.106  17.810  0.00  0.00    +0.000 F 
ATOM     19  C   UNL     1      -0.520  10.337  19.983  0.00  0.00    +0.000 A 
ATOM     20  C   UNL     1       0.246   9.531  20.835  0.00  0.00    +0.000 A 
ATOM     21  C   UNL     1       1.269   8.740  20.281  0.00  0.00    +0.000 A 
BRANCH  20  22
ATOM     22  C   UNL     1      -0.010   9.506  22.321  0.00  0.00    +0.000 C 
ATOM     23  F   UNL     1      -0.510  10.679  22.805  0.00  0.00    +0.000 F 
ATOM     24  F   UNL     1      -0.905   8.545  22.680  0.00  0.00    +0.000 F 
ATOM     25  F   UNL     1       1.118   9.259  23.041  0.00  0.00    +0.000 F 
ENDBRANCH  20  22
ENDBRANCH  14  15
ENDBRANCH   3  14
TORSDOF 4
ENDMDL
MODEL 3
REMARK VINA RESULT:      -7.8      5.751      8.063
REMARK  Name = 
REMARK  6 active torsions:
REMARK  status: ('A' for Active; 'I' for Inactive)
REMARK    1  A    between atoms: C_1  and  C_2
REMARK    2  A    between atoms: C_8  and  C_9
REMARK    3  A    between atoms: C_8  and  C_10
REMARK    4  A    between atoms: N_12  and  C_13
REMARK    5  A    between atoms: C_13  and  C_14
REMARK    6  A    between atoms: C_19  and  C_20
REMARK                            x       y       z     vdW  Elec       q    Type
REMARK                         _______ _______ _______ _____ _____    ______ ____
ROOT
ATOM      1  C   UNL     1       3.343   5.688  18.485  0.00  0.00    +0.000 C 
ATOM      2  O   UNL     1       4.460   5.971  18.915  0.00  0.00    +0.000 OA
ATOM      3  N   UNL     1       2.457   6.651  18.042  0.00  0.00    +0.000 N 
ATOM      4  H   UNL     1       1.502   6.368  17.870  0.00  0.00    +0.000 HD
ENDROOT
BRANCH   1  12
ATOM      5  C   UNL     1       0.802   4.021  20.680  0.00  0.00    +0.000 C 
ATOM      6  C   UNL     1       2.163   3.397  20.742  0.00  0.00    +0.000 C 
ATOM      7  O   UNL     1       2.538   2.855  21.785  0.00  0.00    +0.000 OA
ATOM      8  N   UNL     1       2.972   3.435  19.628  0.00  0.00    +0.000 N 
ATOM      9  C   UNL     1       4.209   2.668  19.660  0.00  0.00    +0.000 C 
ATOM     10  C   UNL     1       4.603   2.637  18.227  0.00  0.00    +0.000 C 
ATOM     11  C   UNL     1       3.853   3.478  17.507  0.00  0.00    +0.000 C 
ATOM     12  C   UNL     1       2.840   4.211  18.362  0.00  0.00    +0.000 C 
ATOM     13  C   UNL     1       1.474   4.187  17.684  0.00  0.00    +0.000 C 
ENDBRANCH   1  12
BRANCH   3  14
ATOM     14  C   UNL     1       2.748   8.060  18.131  0.00  0.00    +0.000 C 
BRANCH  14  15
ATOM     15  C   UNL     1       1.601   8.822  18.745  0.00  0.00    +0.000 A 
ATOM     16  C   UNL     1       0.737   9.580  17.946  0.00  0.00    +0.000 A 
ATOM     17  C   UNL     1      -0.308  10.288  18.532  0.00  0.00    +0.000 A 
ATOM     18  F   UNL     1      -1.118  11.023  17.759  0.00  0.00    +0.000 F 
ATOM     19  C   UNL     1      -0.522  10.253  19.905  0.00  0.00    +0.000 A 
ATOM     20  C   UNL     1       0.314   9.485  20.723  0.00  0.00    +0.000 A 
ATOM     21  C   UNL     1       1.371   8.769  20.132  0.00  0.00    +0.000 A 
BRANCH  20  22
ATOM     22  C   UNL     1       0.099   9.419  22.215  0.00  0.00    +0.000 C 
ATOM     23  F   UNL     1       1.194   8.986  22.902  0.00  0.00    +0.000 F 
ATOM     24  F   UNL     1      -0.221  10.629  22.750  0.00  0.00    +0.000 F 
ATOM     25  F   UNL     1      -0.911   8.575  22.560  0.00  0.00    +0.000 F 
ENDBRANCH  20  22
ENDBRANCH  14  15
ENDBRANCH   3  14
TORSDOF 4
ENDMDL
MODEL 4
REMARK VINA RESULT:      -7.8      5.873      8.373
REMARK  Name = 
REMARK  6 active torsions:
REMARK  status: ('A' for Active; 'I' for Inactive)
REMARK    1  A    between atoms: C_1  and  C_2
REMARK    2  A    between atoms: C_8  and  C_9
REMARK    3  A    between atoms: C_8  and  C_10
REMARK    4  A    between atoms: N_12  and  C_13
REMARK    5  A    between atoms: C_13  and  C_14
REMARK    6  A    between atoms: C_19  and  C_20
REMARK                            x       y       z     vdW  Elec       q    Type
REMARK                         _______ _______ _______ _____ _____    ______ ____
ROOT
ATOM      1  C   UNL     1       4.222   6.627  17.538  0.00  0.00    +0.000 C 
ATOM      2  O   UNL     1       4.895   7.236  16.707  0.00  0.00    +0.000 OA
ATOM      3  N   UNL     1       3.036   7.128  18.036  0.00  0.00    +0.000 N 
ATOM      4  H   UNL     1       2.629   6.666  18.838  0.00  0.00    +0.000 HD
ENDROOT
BRANCH   1  12
ATOM      5  C   UNL     1       7.610   5.621  18.792  0.00  0.00    +0.000 C 
ATOM      6  C   UNL     1       7.162   4.867  17.576  0.00  0.00    +0.000 C 
ATOM      7  O   UNL     1       8.001   4.459  16.768  0.00  0.00    +0.000 OA
ATOM      8  N   UNL     1       5.817   4.639  17.383  0.00  0.00    +0.000 N 
ATOM      9  C   UNL     1       5.428   3.754  16.294  0.00  0.00    +0.000 C 
ATOM     10  C   UNL     1       4.009   3.454  16.618  0.00  0.00    +0.000 C 
ATOM     11  C   UNL     1       3.565   4.248  17.599  0.00  0.00    +0.000 C 
ATOM     12  C   UNL     1       4.628   5.214  18.075  0.00  0.00    +0.000 C 
ATOM     13  C   UNL     1       4.668   5.234  19.599  0.00  0.00    +0.000 C 
ENDBRANCH   1  12
BRANCH   3  14
ATOM     14  C   UNL     1       2.545   8.436  17.680  0.00  0.00    +0.000 C 
BRANCH  14  15
ATOM     15  C   UNL     1       1.530   8.935  18.676  0.00  0.00    +0.000 A 
ATOM     16  C   UNL     1       1.608   8.563  20.023  0.00  0.00    +0.000 A 
ATOM     17  C   UNL     1       0.654   9.021  20.926  0.00  0.00    +0.000 A 
ATOM     18  F   UNL     1       0.730   8.645  22.209  0.00  0.00    +0.000 F 
ATOM     19  C   UNL     1      -0.381   9.855  20.520  0.00  0.00    +0.000 A 
ATOM     20  C   UNL     1      -0.469  10.260  19.183  0.00  0.00    +0.000 A 
ATOM     21  C   UNL     1       0.496   9.797  18.269  0.00  0.00    +0.000 A 
BRANCH  20  22
ATOM     22  C   UNL     1      -1.575  11.174  18.716  0.00  0.00    +0.000 C 
ATOM     23  F   UNL     1      -2.574  10.521  18.055  0.00  0.00    +0.000 F 
ATOM     24  F   UNL     1      -2.178  11.831  19.744  0.00  0.00    +0.000 F 
ATOM     25  F   UNL     1      -1.132  12.134  17.860  0.00  0.00    +0.000 F 
ENDBRANCH  20  22
ENDBRANCH  14  15
ENDBRANCH   3  14
TORSDOF 4
ENDMDL
MODEL 5
REMARK VINA RESULT:      -7.8      1.028      1.702
REMARK  Name = 
REMARK  6 active torsions:
REMARK  status: ('A' for Active; 'I' for Inactive)
REMARK    1  A    between atoms: C_1  and  C_2
REMARK    2  A    between atoms: C_8  and  C_9
REMARK    3  A    between atoms: C_8  and  C_10
REMARK    4  A    between atoms: N_12  and  C_13
REMARK    5  A    between atoms: C_13  and  C_14
REMARK    6  A    between atoms: C_19  and  C_20
REMARK                            x       y       z     vdW  Elec       q    Type
REMARK                         _______ _______ _______ _____ _____    ______ ____
ROOT
ATOM      1  C   UNL     1       4.807   3.933  18.221  0.00  0.00    +0.000 C 
ATOM      2  O   UNL     1       5.617   3.997  19.144  0.00  0.00    +0.000 OA
ATOM      3  N   UNL     1       5.194   3.969  16.896  0.00  0.00    +0.000 N 
ATOM      4  H   UNL     1       4.472   4.091  16.198  0.00  0.00    +0.000 HD
ENDROOT
BRANCH   1  12
ATOM      5  C   UNL     1       2.207   6.617  17.921  0.00  0.00    +0.000 C 
ATOM      6  C   UNL     1       2.337   6.048  19.301  0.00  0.00    +0.000 C 
ATOM      7  O   UNL     1       2.099   6.762  20.279  0.00  0.00    +0.000 OA
ATOM      8  N   UNL     1       2.719   4.733  19.454  0.00  0.00    +0.000 N 
ATOM      9  C   UNL     1       2.662   4.161  20.791  0.00  0.00    +0.000 C 
ATOM     10  C   UNL     1       2.765   2.703  20.519  0.00  0.00    +0.000 C 
ATOM     11  C   UNL     1       3.093   2.477  19.243  0.00  0.00    +0.000 C 
ATOM     12  C   UNL     1       3.270   3.764  18.464  0.00  0.00    +0.000 C 
ATOM     13  C   UNL     1       2.545   3.666  17.126  0.00  0.00    +0.000 C 
ENDBRANCH   1  12
BRANCH   3  14
ATOM     14  C   UNL     1       6.566   4.168  16.502  0.00  0.00    +0.000 C 
BRANCH  14  15
ATOM     15  C   UNL     1       6.694   4.320  15.008  0.00  0.00    +0.000 A 
ATOM     16  C   UNL     1       7.737   5.071  14.452  0.00  0.00    +0.000 A 
ATOM     17  C   UNL     1       7.831   5.213  13.071  0.00  0.00    +0.000 A 
ATOM     18  F   UNL     1       8.823   5.948  12.553  0.00  0.00    +0.000 F 
ATOM     19  C   UNL     1       6.911   4.611  12.221  0.00  0.00    +0.000 A 
ATOM     20  C   UNL     1       5.872   3.836  12.750  0.00  0.00    +0.000 A 
ATOM     21  C   UNL     1       5.776   3.693  14.146  0.00  0.00    +0.000 A 
BRANCH  20  22
ATOM     22  C   UNL     1       4.865   3.163  11.850  0.00  0.00    +0.000 C 
ATOM     23  F   UNL     1       3.656   2.960  12.447  0.00  0.00    +0.000 F 
ATOM     24  F   UNL     1       4.608   3.883  10.724  0.00  0.00    +0.000 F 
ATOM     25  F   UNL     1       5.280   1.937  11.429  0.00  0.00    +0.000 F 
ENDBRANCH  20  22
ENDBRANCH  14  15
ENDBRANCH   3  14
TORSDOF 4
ENDMDL
MODEL 6
REMARK VINA RESULT:      -7.8      5.801      8.485
REMARK  Name = 
REMARK  6 active torsions:
REMARK  status: ('A' for Active; 'I' for Inactive)
REMARK    1  A    between atoms: C_1  and  C_2
REMARK    2  A    between atoms: C_8  and  C_9
REMARK    3  A    between atoms: C_8  and  C_10
REMARK    4  A    between atoms: N_12  and  C_13
REMARK    5  A    between atoms: C_13  and  C_14
REMARK    6  A    between atoms: C_19  and  C_20
REMARK                            x       y       z     vdW  Elec       q    Type
REMARK                         _______ _______ _______ _____ _____    ______ ____
ROOT
ATOM      1  C   UNL     1       4.111   6.672  17.484  0.00  0.00    +0.000 C 
ATOM      2  O   UNL     1       4.728   7.125  16.522  0.00  0.00    +0.000 OA
ATOM      3  N   UNL     1       3.046   7.338  18.057  0.00  0.00    +0.000 N 
ATOM      4  H   UNL     1       2.701   6.999  18.945  0.00  0.00    +0.000 HD
ENDROOT
BRANCH   1  12
ATOM      5  C   UNL     1       7.369   5.688  19.057  0.00  0.00    +0.000 C 
ATOM      6  C   UNL     1       7.009   4.881  17.846  0.00  0.00    +0.000 C 
ATOM      7  O   UNL     1       7.904   4.424  17.130  0.00  0.00    +0.000 OA
ATOM      8  N   UNL     1       5.681   4.659  17.555  0.00  0.00    +0.000 N 
ATOM      9  C   UNL     1       5.367   3.727  16.482  0.00  0.00    +0.000 C 
ATOM     10  C   UNL     1       3.922   3.460  16.703  0.00  0.00    +0.000 C 
ATOM     11  C   UNL     1       3.412   4.306  17.605  0.00  0.00    +0.000 C 
ATOM     12  C   UNL     1       4.449   5.282  18.119  0.00  0.00    +0.000 C 
ATOM     13  C   UNL     1       4.366   5.376  19.639  0.00  0.00    +0.000 C 
ENDBRANCH   1  12
BRANCH   3  14
ATOM     14  C   UNL     1       2.636   8.650  17.621  0.00  0.00    +0.000 C 
BRANCH  14  15
ATOM     15  C   UNL     1       1.460   9.154  18.418  0.00  0.00    +0.000 A 
ATOM     16  C   UNL     1       0.404   9.823  17.788  0.00  0.00    +0.000 A 
ATOM     17  C   UNL     1      -0.667  10.294  18.541  0.00  0.00    +0.000 A 
ATOM     18  F   UNL     1      -1.663  10.947  17.929  0.00  0.00    +0.000 F 
ATOM     19  C   UNL     1      -0.719  10.104  19.917  0.00  0.00    +0.000 A 
ATOM     20  C   UNL     1       0.313   9.418  20.568  0.00  0.00    +0.000 A 
ATOM     21  C   UNL     1       1.397   8.943  19.807  0.00  0.00    +0.000 A 
BRANCH  20  22
ATOM     22  C   UNL     1       0.278   9.189  22.059  0.00  0.00    +0.000 C 
ATOM     23  F   UNL     1       0.105  10.334  22.779  0.00  0.00    +0.000 F 
ATOM     24  F   UNL     1      -0.731   8.357  22.436  0.00  0.00    +0.000 F 
ATOM     25  F   UNL     1       1.426   8.628  22.528  0.00  0.00    +0.000 F 
ENDBRANCH  20  22
ENDBRANCH  14  15
ENDBRANCH   3  14
TORSDOF 4
ENDMDL
MODEL 7
REMARK VINA RESULT:      -7.7      6.338      8.909
REMARK  Name = 
REMARK  6 active torsions:
REMARK  status: ('A' for Active; 'I' for Inactive)
REMARK    1  A    between atoms: C_1  and  C_2
REMARK    2  A    between atoms: C_8  and  C_9
REMARK    3  A    between atoms: C_8  and  C_10
REMARK    4  A    between atoms: N_12  and  C_13
REMARK    5  A    between atoms: C_13  and  C_14
REMARK    6  A    between atoms: C_19  and  C_20
REMARK                            x       y       z     vdW  Elec       q    Type
REMARK                         _______ _______ _______ _____ _____    ______ ____
ROOT
ATOM      1  C   UNL     1       3.215   6.771  18.275  0.00  0.00    +0.000 C 
ATOM      2  O   UNL     1       3.859   7.046  17.265  0.00  0.00    +0.000 OA
ATOM      3  N   UNL     1       2.214   7.591  18.758  0.00  0.00    +0.000 N 
ATOM      4  H   UNL     1       1.850   7.396  19.681  0.00  0.00    +0.000 HD
ENDROOT
BRANCH   1  12
ATOM      5  C   UNL     1       4.513   3.532  16.904  0.00  0.00    +0.000 C 
ATOM      6  C   UNL     1       3.119   3.448  17.447  0.00  0.00    +0.000 C 
ATOM      7  O   UNL     1       2.321   2.645  16.956  0.00  0.00    +0.000 OA
ATOM      8  N   UNL     1       2.751   4.269  18.490  0.00  0.00    +0.000 N 
ATOM      9  C   UNL     1       1.455   4.040  19.111  0.00  0.00    +0.000 C 
ATOM     10  C   UNL     1       1.564   4.814  20.375  0.00  0.00    +0.000 C 
ATOM     11  C   UNL     1       2.656   5.586  20.369  0.00  0.00    +0.000 C 
ATOM     12  C   UNL     1       3.443   5.450  19.083  0.00  0.00    +0.000 C 
ATOM     13  C   UNL     1       4.927   5.287  19.395  0.00  0.00    +0.000 C 
ENDBRANCH   1  12
BRANCH   3  14
ATOM     14  C   UNL     1       1.910   8.866  18.158  0.00  0.00    +0.000 C 
BRANCH  14  15
ATOM     15  C   UNL     1       1.018   9.695  19.047  0.00  0.00    +0.000 A 
ATOM     16  C   UNL     1       0.386  10.843  18.555  0.00  0.00    +0.000 A 
ATOM     17  C   UNL     1      -0.422  11.604  19.394  0.00  0.00    +0.000 A 
ATOM     18  F   UNL     1      -1.008  12.709  18.915  0.00  0.00    +0.000 F 
ATOM     19  C   UNL     1      -0.627  11.243  20.720  0.00  0.00    +0.000 A 
ATOM     20  C   UNL     1      -0.024  10.087  21.231  0.00  0.00    +0.000 A 
ATOM     21  C   UNL     1       0.794   9.317  20.383  0.00  0.00    +0.000 A 
BRANCH  20  22
ATOM     22  C   UNL     1      -0.237   9.665  22.663  0.00  0.00    +0.000 C 
ATOM     23  F   UNL     1       0.924   9.391  23.325  0.00  0.00    +0.000 F 
ATOM     24  F   UNL     1      -0.869  10.619  23.400  0.00  0.00    +0.000 F 
ATOM     25  F   UNL     1      -0.996   8.541  22.769  0.00  0.00    +0.000 F 
ENDBRANCH  20  22
ENDBRANCH  14  15
ENDBRANCH   3  14
TORSDOF 4
ENDMDL
MODEL 8
REMARK VINA RESULT:      -7.7      5.279      7.145
REMARK  Name = 
REMARK  6 active torsions:
REMARK  status: ('A' for Active; 'I' for Inactive)
REMARK    1  A    between atoms: C_1  and  C_2
REMARK    2  A    between atoms: C_8  and  C_9
REMARK    3  A    between atoms: C_8  and  C_10
REMARK    4  A    between atoms: N_12  and  C_13
REMARK    5  A    between atoms: C_13  and  C_14
REMARK    6  A    between atoms: C_19  and  C_20
REMARK                            x       y       z     vdW  Elec       q    Type
REMARK                         _______ _______ _______ _____ _____    ______ ____
ROOT
ATOM      1  C   UNL     1       1.641   9.466  18.430  0.00  0.00    +0.000 C 
ATOM      2  O   UNL     1       2.121  10.216  17.582  0.00  0.00    +0.000 OA
ATOM      3  N   UNL     1       2.141   8.200  18.664  0.00  0.00    +0.000 N 
ATOM      4  H   UNL     1       1.595   7.577  19.243  0.00  0.00    +0.000 HD
ENDROOT
BRANCH   1  12
ATOM      5  C   UNL     1       0.514  12.975  19.117  0.00  0.00    +0.000 C 
ATOM      6  C   UNL     1       0.992  12.240  20.333  0.00  0.00    +0.000 C 
ATOM      7  O   UNL     1       1.520  12.868  21.255  0.00  0.00    +0.000 OA
ATOM      8  N   UNL     1       0.831  10.874  20.401  0.00  0.00    +0.000 N 
ATOM      9  C   UNL     1       1.140  10.216  21.661  0.00  0.00    +0.000 C 
ATOM     10  C   UNL     1       0.512   8.880  21.487  0.00  0.00    +0.000 C 
ATOM     11  C   UNL     1       0.123   8.697  20.220  0.00  0.00    +0.000 C 
ATOM     12  C   UNL     1       0.446   9.891  19.347  0.00  0.00    +0.000 C 
ATOM     13  C   UNL     1      -0.762  10.249  18.488  0.00  0.00    +0.000 C 
ENDBRANCH   1  12
BRANCH   3  14
ATOM     14  C   UNL     1       3.209   7.639  17.873  0.00  0.00    +0.000 C 
BRANCH  14  15
ATOM     15  C   UNL     1       3.194   6.133  17.917  0.00  0.00    +0.000 A 
ATOM     16  C   UNL     1       4.123   5.387  17.182  0.00  0.00    +0.000 A 
ATOM     17  C   UNL     1       4.085   3.996  17.224  0.00  0.00    +0.000 A 
ATOM     18  F   UNL     1       4.969   3.294  16.503  0.00  0.00    +0.000 F 
ATOM     19  C   UNL     1       3.144   3.323  17.993  0.00  0.00    +0.000 A 
ATOM     20  C   UNL     1       2.218   4.046  18.756  0.00  0.00    +0.000 A 
ATOM     21  C   UNL     1       2.256   5.452  18.714  0.00  0.00    +0.000 A 
BRANCH  20  22
ATOM     22  C   UNL     1       1.192   3.342  19.609  0.00  0.00    +0.000 C 
ATOM     23  F   UNL     1       1.741   2.521  20.549  0.00  0.00    +0.000 F 
ATOM     24  F   UNL     1       0.397   4.210  20.292  0.00  0.00    +0.000 F 
ATOM     25  F   UNL     1       0.355   2.558  18.877  0.00  0.00    +0.000 F 
ENDBRANCH  20  22
ENDBRANCH  14  15
ENDBRANCH   3  14
TORSDOF 4
ENDMDL
MODEL 9
REMARK VINA RESULT:      -7.6      2.308      3.437
REMARK  Name = 
REMARK  6 active torsions:
REMARK  status: ('A' for Active; 'I' for Inactive)
REMARK    1  A    between atoms: C_1  and  C_2
REMARK    2  A    between atoms: C_8  and  C_9
REMARK    3  A    between atoms: C_8  and  C_10
REMARK    4  A    between atoms: N_12  and  C_13
REMARK    5  A    between atoms: C_13  and  C_14
REMARK    6  A    between atoms: C_19  and  C_20
REMARK                            x       y       z     vdW  Elec       q    Type
REMARK                         _______ _______ _______ _____ _____    ______ ____
ROOT
ATOM      1  C   UNL     1       2.387   4.985  19.929  0.00  0.00    +0.000 C 
ATOM      2  O   UNL     1       2.108   5.962  20.622  0.00  0.00    +0.000 OA
ATOM      3  N   UNL     1       3.106   5.095  18.755  0.00  0.00    +0.000 N 
ATOM      4  H   UNL     1       3.147   4.286  18.150  0.00  0.00    +0.000 HD
ENDROOT
BRANCH   1  12
ATOM      5  C   UNL     1       4.730   2.099  20.413  0.00  0.00    +0.000 C 
ATOM      6  C   UNL     1       3.743   1.903  19.301  0.00  0.00    +0.000 C 
ATOM      7  O   UNL     1       4.055   1.215  18.325  0.00  0.00    +0.000 OA
ATOM      8  N   UNL     1       2.501   2.492  19.391  0.00  0.00    +0.000 N 
ATOM      9  C   UNL     1       1.508   2.137  18.388  0.00  0.00    +0.000 C 
ATOM     10  C   UNL     1       0.247   2.636  18.998  0.00  0.00    +0.000 C 
ATOM     11  C   UNL     1       0.502   3.395  20.069  0.00  0.00    +0.000 C 
ATOM     12  C   UNL     1       1.987   3.527  20.333  0.00  0.00    +0.000 C 
ATOM     13  C   UNL     1       2.274   3.306  21.814  0.00  0.00    +0.000 C 
ENDBRANCH   1  12
BRANCH   3  14
ATOM     14  C   UNL     1       3.509   6.371  18.218  0.00  0.00    +0.000 C 
BRANCH  14  15
ATOM     15  C   UNL     1       4.796   6.261  17.442  0.00  0.00    +0.000 A 
ATOM     16  C   UNL     1       5.926   6.996  17.823  0.00  0.00    +0.000 A 
ATOM     17  C   UNL     1       7.101   6.893  17.085  0.00  0.00    +0.000 A 
ATOM     18  F   UNL     1       8.170   7.613  17.450  0.00  0.00    +0.000 F 
ATOM     19  C   UNL     1       7.186   6.062  15.975  0.00  0.00    +0.000 A 
ATOM     20  C   UNL     1       6.077   5.299  15.586  0.00  0.00    +0.000 A 
ATOM     21  C   UNL     1       4.888   5.404  16.331  0.00  0.00    +0.000 A 
BRANCH  20  22
ATOM     22  C   UNL     1       6.143   4.381  14.392  0.00  0.00    +0.000 C 
ATOM     23  F   UNL     1       6.373   3.078  14.722  0.00  0.00    +0.000 F 
ATOM     24  F   UNL     1       4.990   4.383  13.667  0.00  0.00    +0.000 F 
ATOM     25  F   UNL     1       7.135   4.723  13.525  0.00  0.00    +0.000 F 
ENDBRANCH  20  22
ENDBRANCH  14  15
ENDBRANCH   3  14
TORSDOF 4
ENDMDL
