MODEL 1
REMARK VINA RESULT:      -7.4      0.000      0.000
REMARK  Name = 
REMARK  3 active torsions:
REMARK  status: ('A' for Active; 'I' for Inactive)
REMARK    1  A    between atoms: C_1  and  C_2
REMARK    2  A    between atoms: C_8  and  C_9
REMARK    3  A    between atoms: N_11  and  C_12
REMARK                            x       y       z     vdW  Elec       q    Type
REMARK                         _______ _______ _______ _____ _____    ______ ____
ROOT
ATOM      1  C   UNL     1       5.481   5.764  18.228  0.00  0.00    +0.000 C 
ATOM      2  C   UNL     1       4.651   4.764  19.001  0.00  0.00    +0.000 A 
ATOM      3  N   UNL     1       5.266   3.670  19.324  0.00  0.00    +0.000 NA
ATOM      4  C   UNL     1       4.617   2.715  20.071  0.00  0.00    +0.000 A 
ATOM      5  O   UNL     1       5.181   1.696  20.455  0.00  0.00    +0.000 OA
ATOM      6  N   UNL     1       3.310   2.973  20.381  0.00  0.00    +0.000 N 
ATOM      7  C   UNL     1       2.620   4.099  20.016  0.00  0.00    +0.000 A 
ATOM      8  C   UNL     1       3.232   5.083  19.334  0.00  0.00    +0.000 A 
ATOM      9  N   UNL     1       1.330   4.035  20.513  0.00  0.00    +0.000 N 
ATOM     10  C   UNL     1       1.248   2.996  21.538  0.00  0.00    +0.000 C 
ATOM     11  C   UNL     1       2.467   2.112  21.215  0.00  0.00    +0.000 C 
ATOM     12  H   UNL     1       0.921   4.955  20.710  0.00  0.00    +0.000 HD
ENDROOT
BRANCH   8  13
ATOM     13  C   UNL     1       2.470   6.355  19.144  0.00  0.00    +0.000 C 
ATOM     14  O   UNL     1       2.132   6.670  18.001  0.00  0.00    +0.000 OA
ATOM     15  N   UNL     1       2.223   7.123  20.265  0.00  0.00    +0.000 N 
ATOM     16  H   UNL     1       2.683   6.879  21.130  0.00  0.00    +0.000 HD
BRANCH  15  17
ATOM     17  C   UNL     1       1.476   8.331  20.290  0.00  0.00    +0.000 A 
ATOM     18  C   UNL     1       1.462   9.256  19.237  0.00  0.00    +0.000 A 
ATOM     19  C   UNL     1       0.734  10.447  19.328  0.00  0.00    +0.000 A 
ATOM     20  C   UNL     1      -0.000  10.721  20.475  0.00  0.00    +0.000 A 
ATOM     21 CL   UNL     1      -0.882  12.192  20.593  0.00  0.00    +0.000 Cl
ATOM     22  C   UNL     1      -0.023   9.804  21.522  0.00  0.00    +0.000 A 
ATOM     23  C   UNL     1       0.710   8.611  21.428  0.00  0.00    +0.000 A 
ENDBRANCH  15  17
ENDBRANCH   8  13
TORSDOF 2
ENDMDL
MODEL 2
REMARK VINA RESULT:      -7.3      0.146      1.058
REMARK  Name = 
REMARK  3 active torsions:
REMARK  status: ('A' for Active; 'I' for Inactive)
REMARK    1  A    between atoms: C_1  and  C_2
REMARK    2  A    between atoms: C_8  and  C_9
REMARK    3  A    between atoms: N_11  and  C_12
REMARK                            x       y       z     vdW  Elec       q    Type
REMARK                         _______ _______ _______ _____ _____    ______ ____
ROOT
ATOM      1  C   UNL     1       5.462   5.742  18.226  0.00  0.00    +0.000 C 
ATOM      2  C   UNL     1       4.640   4.740  19.005  0.00  0.00    +0.000 A 
ATOM      3  N   UNL     1       5.263   3.652  19.330  0.00  0.00    +0.000 NA
ATOM      4  C   UNL     1       4.622   2.696  20.082  0.00  0.00    +0.000 A 
ATOM      5  O   UNL     1       5.193   1.681  20.468  0.00  0.00    +0.000 OA
ATOM      6  N   UNL     1       3.314   2.947  20.396  0.00  0.00    +0.000 N 
ATOM      7  C   UNL     1       2.617   4.068  20.029  0.00  0.00    +0.000 A 
ATOM      8  C   UNL     1       3.221   5.053  19.342  0.00  0.00    +0.000 A 
ATOM      9  N   UNL     1       1.329   3.999  20.531  0.00  0.00    +0.000 N 
ATOM     10  C   UNL     1       1.256   2.963  21.560  0.00  0.00    +0.000 C 
ATOM     11  C   UNL     1       2.479   2.085  21.236  0.00  0.00    +0.000 C 
ATOM     12  H   UNL     1       0.916   4.917  20.727  0.00  0.00    +0.000 HD
ENDROOT
BRANCH   8  13
ATOM     13  C   UNL     1       2.451   6.320  19.150  0.00  0.00    +0.000 C 
ATOM     14  O   UNL     1       2.080   6.613  18.012  0.00  0.00    +0.000 OA
ATOM     15  N   UNL     1       2.234   7.109  20.263  0.00  0.00    +0.000 N 
ATOM     16  H   UNL     1       2.719   6.881  21.119  0.00  0.00    +0.000 HD
BRANCH  15  17
ATOM     17  C   UNL     1       1.486   8.316  20.287  0.00  0.00    +0.000 A 
ATOM     18  C   UNL     1       0.697   8.717  21.373  0.00  0.00    +0.000 A 
ATOM     19  C   UNL     1      -0.046   9.901  21.330  0.00  0.00    +0.000 A 
ATOM     20  C   UNL     1       0.002  10.706  20.199  0.00  0.00    +0.000 A 
ATOM     21 CL   UNL     1      -0.925  12.153  20.140  0.00  0.00    +0.000 Cl
ATOM     22  C   UNL     1       0.801  10.340  19.119  0.00  0.00    +0.000 A 
ATOM     23  C   UNL     1       1.543   9.151  19.165  0.00  0.00    +0.000 A 
ENDBRANCH  15  17
ENDBRANCH   8  13
TORSDOF 2
ENDMDL
MODEL 3
REMARK VINA RESULT:      -7.2      2.056      2.198
REMARK  Name = 
REMARK  3 active torsions:
REMARK  status: ('A' for Active; 'I' for Inactive)
REMARK    1  A    between atoms: C_1  and  C_2
REMARK    2  A    between atoms: C_8  and  C_9
REMARK    3  A    between atoms: N_11  and  C_12
REMARK                            x       y       z     vdW  Elec       q    Type
REMARK                         _______ _______ _______ _____ _____    ______ ____
ROOT
ATOM      1  C   UNL     1       4.606   6.711  16.751  0.00  0.00    +0.000 C 
ATOM      2  C   UNL     1       3.852   5.627  17.487  0.00  0.00    +0.000 A 
ATOM      3  N   UNL     1       4.252   4.418  17.246  0.00  0.00    +0.000 NA
ATOM      4  C   UNL     1       3.666   3.361  17.902  0.00  0.00    +0.000 A 
ATOM      5  O   UNL     1       4.056   2.207  17.754  0.00  0.00    +0.000 OA
ATOM      6  N   UNL     1       2.634   3.667  18.746  0.00  0.00    +0.000 N 
ATOM      7  C   UNL     1       2.162   4.931  18.988  0.00  0.00    +0.000 A 
ATOM      8  C   UNL     1       2.741   5.997  18.411  0.00  0.00    +0.000 A 
ATOM      9  N   UNL     1       1.128   4.872  19.905  0.00  0.00    +0.000 N 
ATOM     10  C   UNL     1       1.129   3.569  20.568  0.00  0.00    +0.000 C 
ATOM     11  C   UNL     1       1.923   2.694  19.579  0.00  0.00    +0.000 C 
ATOM     12  H   UNL     1       1.043   5.716  20.482  0.00  0.00    +0.000 HD
ENDROOT
BRANCH   8  13
ATOM     13  C   UNL     1       2.294   7.347  18.874  0.00  0.00    +0.000 C 
ATOM     14  O   UNL     1       2.289   7.580  20.083  0.00  0.00    +0.000 OA
ATOM     15  N   UNL     1       1.873   8.243  17.910  0.00  0.00    +0.000 N 
ATOM     16  H   UNL     1       1.746   7.913  16.964  0.00  0.00    +0.000 HD
BRANCH  15  17
ATOM     17  C   UNL     1       1.462   9.581  18.150  0.00  0.00    +0.000 A 
ATOM     18  C   UNL     1       2.340  10.673  18.153  0.00  0.00    +0.000 A 
ATOM     19  C   UNL     1       1.885  11.967  18.429  0.00  0.00    +0.000 A 
ATOM     20  C   UNL     1       0.539  12.185  18.693  0.00  0.00    +0.000 A 
ATOM     21 CL   UNL     1      -0.016  13.773  19.047  0.00  0.00    +0.000 Cl
ATOM     22  C   UNL     1      -0.356  11.118  18.668  0.00  0.00    +0.000 A 
ATOM     23  C   UNL     1       0.104   9.822  18.393  0.00  0.00    +0.000 A 
ENDBRANCH  15  17
ENDBRANCH   8  13
TORSDOF 2
ENDMDL
MODEL 4
REMARK VINA RESULT:      -7.1      4.098      7.878
REMARK  Name = 
REMARK  3 active torsions:
REMARK  status: ('A' for Active; 'I' for Inactive)
REMARK    1  A    between atoms: C_1  and  C_2
REMARK    2  A    between atoms: C_8  and  C_9
REMARK    3  A    between atoms: N_11  and  C_12
REMARK                            x       y       z     vdW  Elec       q    Type
REMARK                         _______ _______ _______ _____ _____    ______ ____
ROOT
ATOM      1  C   UNL     1      -0.007   8.624  21.499  0.00  0.00    +0.000 C 
ATOM      2  C   UNL     1       0.366   9.978  20.940  0.00  0.00    +0.000 A 
ATOM      3  N   UNL     1       0.109  10.984  21.716  0.00  0.00    +0.000 NA
ATOM      4  C   UNL     1       0.454  12.256  21.324  0.00  0.00    +0.000 A 
ATOM      5  O   UNL     1       0.289  13.228  22.053  0.00  0.00    +0.000 OA
ATOM      6  N   UNL     1       1.010  12.377  20.081  0.00  0.00    +0.000 N 
ATOM      7  C   UNL     1       1.253  11.338  19.221  0.00  0.00    +0.000 A 
ATOM      8  C   UNL     1       0.984  10.074  19.586  0.00  0.00    +0.000 A 
ATOM      9  N   UNL     1       1.838  11.822  18.063  0.00  0.00    +0.000 N 
ATOM     10  C   UNL     1       2.322  13.182  18.286  0.00  0.00    +0.000 C 
ATOM     11  C   UNL     1       1.499  13.634  19.506  0.00  0.00    +0.000 C 
ATOM     12  H   UNL     1       2.460  11.146  17.606  0.00  0.00    +0.000 HD
ENDROOT
BRANCH   8  13
ATOM     13  C   UNL     1       1.455   8.987  18.673  0.00  0.00    +0.000 C 
ATOM     14  O   UNL     1       1.056   8.988  17.507  0.00  0.00    +0.000 OA
ATOM     15  N   UNL     1       2.284   8.020  19.208  0.00  0.00    +0.000 N 
ATOM     16  H   UNL     1       2.420   7.999  20.209  0.00  0.00    +0.000 HD
BRANCH  15  17
ATOM     17  C   UNL     1       2.869   6.944  18.489  0.00  0.00    +0.000 A 
ATOM     18  C   UNL     1       2.429   5.617  18.586  0.00  0.00    +0.000 A 
ATOM     19  C   UNL     1       3.064   4.590  17.880  0.00  0.00    +0.000 A 
ATOM     20  C   UNL     1       4.143   4.883  17.056  0.00  0.00    +0.000 A 
ATOM     21 CL   UNL     1       4.933   3.618  16.201  0.00  0.00    +0.000 Cl
ATOM     22  C   UNL     1       4.580   6.199  16.924  0.00  0.00    +0.000 A 
ATOM     23  C   UNL     1       3.942   7.226  17.636  0.00  0.00    +0.000 A 
ENDBRANCH  15  17
ENDBRANCH   8  13
TORSDOF 2
ENDMDL
MODEL 5
REMARK VINA RESULT:      -7.1      1.970      2.310
REMARK  Name = 
REMARK  3 active torsions:
REMARK  status: ('A' for Active; 'I' for Inactive)
REMARK    1  A    between atoms: C_1  and  C_2
REMARK    2  A    between atoms: C_8  and  C_9
REMARK    3  A    between atoms: N_11  and  C_12
REMARK                            x       y       z     vdW  Elec       q    Type
REMARK                         _______ _______ _______ _____ _____    ______ ____
ROOT
ATOM      1  C   UNL     1       4.567   6.672  16.833  0.00  0.00    +0.000 C 
ATOM      2  C   UNL     1       3.813   5.577  17.553  0.00  0.00    +0.000 A 
ATOM      3  N   UNL     1       4.203   4.371  17.284  0.00  0.00    +0.000 NA
ATOM      4  C   UNL     1       3.617   3.304  17.923  0.00  0.00    +0.000 A 
ATOM      5  O   UNL     1       3.998   2.151  17.748  0.00  0.00    +0.000 OA
ATOM      6  N   UNL     1       2.594   3.599  18.782  0.00  0.00    +0.000 N 
ATOM      7  C   UNL     1       2.131   4.860  19.053  0.00  0.00    +0.000 A 
ATOM      8  C   UNL     1       2.712   5.935  18.494  0.00  0.00    +0.000 A 
ATOM      9  N   UNL     1       1.104   4.788  19.978  0.00  0.00    +0.000 N 
ATOM     10  C   UNL     1       1.103   3.472  20.614  0.00  0.00    +0.000 C 
ATOM     11  C   UNL     1       1.883   2.613  19.601  0.00  0.00    +0.000 C 
ATOM     12  H   UNL     1       1.029   5.621  20.572  0.00  0.00    +0.000 HD
ENDROOT
BRANCH   8  13
ATOM     13  C   UNL     1       2.277   7.277  18.988  0.00  0.00    +0.000 C 
ATOM     14  O   UNL     1       2.242   7.471  20.204  0.00  0.00    +0.000 OA
ATOM     15  N   UNL     1       1.900   8.212  18.042  0.00  0.00    +0.000 N 
ATOM     16  H   UNL     1       1.794   7.915  17.083  0.00  0.00    +0.000 HD
BRANCH  15  17
ATOM     17  C   UNL     1       1.507   9.549  18.315  0.00  0.00    +0.000 A 
ATOM     18  C   UNL     1       0.262   9.896  18.857  0.00  0.00    +0.000 A 
ATOM     19  C   UNL     1      -0.086  11.233  19.074  0.00  0.00    +0.000 A 
ATOM     20  C   UNL     1       0.816  12.241  18.761  0.00  0.00    +0.000 A 
ATOM     21 CL   UNL     1       0.381  13.885  19.013  0.00  0.00    +0.000 Cl
ATOM     22  C   UNL     1       2.069  11.918  18.247  0.00  0.00    +0.000 A 
ATOM     23  C   UNL     1       2.414  10.576  18.028  0.00  0.00    +0.000 A 
ENDBRANCH  15  17
ENDBRANCH   8  13
TORSDOF 2
ENDMDL
MODEL 6
REMARK VINA RESULT:      -7.1      1.737      3.221
REMARK  Name = 
REMARK  3 active torsions:
REMARK  status: ('A' for Active; 'I' for Inactive)
REMARK    1  A    between atoms: C_1  and  C_2
REMARK    2  A    between atoms: C_8  and  C_9
REMARK    3  A    between atoms: N_11  and  C_12
REMARK                            x       y       z     vdW  Elec       q    Type
REMARK                         _______ _______ _______ _____ _____    ______ ____
ROOT
ATOM      1  C   UNL     1       1.151   4.578  20.511  0.00  0.00    +0.000 C 
ATOM      2  C   UNL     1       2.259   4.754  19.498  0.00  0.00    +0.000 A 
ATOM      3  N   UNL     1       2.801   3.654  19.078  0.00  0.00    +0.000 NA
ATOM      4  C   UNL     1       3.785   3.700  18.118  0.00  0.00    +0.000 A 
ATOM      5  O   UNL     1       4.279   2.682  17.645  0.00  0.00    +0.000 OA
ATOM      6  N   UNL     1       4.170   4.945  17.703  0.00  0.00    +0.000 N 
ATOM      7  C   UNL     1       3.645   6.126  18.159  0.00  0.00    +0.000 A 
ATOM      8  C   UNL     1       2.644   6.126  19.056  0.00  0.00    +0.000 A 
ATOM      9  N   UNL     1       4.255   7.186  17.511  0.00  0.00    +0.000 N 
ATOM     10  C   UNL     1       4.967   6.699  16.331  0.00  0.00    +0.000 C 
ATOM     11  C   UNL     1       5.155   5.204  16.649  0.00  0.00    +0.000 C 
ATOM     12  H   UNL     1       3.651   8.010  17.417  0.00  0.00    +0.000 HD
ENDROOT
BRANCH   8  13
ATOM     13  C   UNL     1       2.000   7.441  19.356  0.00  0.00    +0.000 C 
ATOM     14  O   UNL     1       1.830   8.235  18.430  0.00  0.00    +0.000 OA
ATOM     15  N   UNL     1       1.669   7.702  20.672  0.00  0.00    +0.000 N 
ATOM     16  H   UNL     1       1.999   7.072  21.389  0.00  0.00    +0.000 HD
BRANCH  15  17
ATOM     17  C   UNL     1       1.010   8.870  21.142  0.00  0.00    +0.000 A 
ATOM     18  C   UNL     1       0.995  10.085  20.444  0.00  0.00    +0.000 A 
ATOM     19  C   UNL     1       0.357  11.214  20.970  0.00  0.00    +0.000 A 
ATOM     20  C   UNL     1      -0.286  11.135  22.198  0.00  0.00    +0.000 A 
ATOM     21 CL   UNL     1      -1.056  12.527  22.850  0.00  0.00    +0.000 Cl
ATOM     22  C   UNL     1      -0.307   9.930  22.895  0.00  0.00    +0.000 A 
ATOM     23  C   UNL     1       0.335   8.800  22.366  0.00  0.00    +0.000 A 
ENDBRANCH  15  17
ENDBRANCH   8  13
TORSDOF 2
ENDMDL
MODEL 7
REMARK VINA RESULT:      -7.0      0.932      2.667
REMARK  Name = 
REMARK  3 active torsions:
REMARK  status: ('A' for Active; 'I' for Inactive)
REMARK    1  A    between atoms: C_1  and  C_2
REMARK    2  A    between atoms: C_8  and  C_9
REMARK    3  A    between atoms: N_11  and  C_12
REMARK                            x       y       z     vdW  Elec       q    Type
REMARK                         _______ _______ _______ _____ _____    ______ ____
ROOT
ATOM      1  C   UNL     1       1.090   4.025  20.702  0.00  0.00    +0.000 C 
ATOM      2  C   UNL     1       2.493   4.119  20.145  0.00  0.00    +0.000 A 
ATOM      3  N   UNL     1       3.161   3.008  20.146  0.00  0.00    +0.000 NA
ATOM      4  C   UNL     1       4.429   2.973  19.615  0.00  0.00    +0.000 A 
ATOM      5  O   UNL     1       5.072   1.932  19.536  0.00  0.00    +0.000 OA
ATOM      6  N   UNL     1       4.929   4.162  19.161  0.00  0.00    +0.000 N 
ATOM      7  C   UNL     1       4.263   5.359  19.186  0.00  0.00    +0.000 A 
ATOM      8  C   UNL     1       3.002   5.428  19.644  0.00  0.00    +0.000 A 
ATOM      9  N   UNL     1       5.060   6.346  18.631  0.00  0.00    +0.000 N 
ATOM     10  C   UNL     1       6.161   5.732  17.892  0.00  0.00    +0.000 C 
ATOM     11  C   UNL     1       6.232   4.322  18.508  0.00  0.00    +0.000 C 
ATOM     12  H   UNL     1       4.527   7.099  18.184  0.00  0.00    +0.000 HD
ENDROOT
BRANCH   8  13
ATOM     13  C   UNL     1       2.281   6.725  19.460  0.00  0.00    +0.000 C 
ATOM     14  O   UNL     1       2.104   7.139  18.314  0.00  0.00    +0.000 OA
ATOM     15  N   UNL     1       1.890   7.404  20.599  0.00  0.00    +0.000 N 
ATOM     16  H   UNL     1       2.226   7.080  21.495  0.00  0.00    +0.000 HD
BRANCH  15  17
ATOM     17  C   UNL     1       1.155   8.619  20.624  0.00  0.00    +0.000 A 
ATOM     18  C   UNL     1       1.127   9.530  19.560  0.00  0.00    +0.000 A 
ATOM     19  C   UNL     1       0.412  10.729  19.652  0.00  0.00    +0.000 A 
ATOM     20  C   UNL     1      -0.294  11.025  20.810  0.00  0.00    +0.000 A 
ATOM     21 CL   UNL     1      -1.159  12.506  20.928  0.00  0.00    +0.000 Cl
ATOM     22  C   UNL     1      -0.303  10.121  21.870  0.00  0.00    +0.000 A 
ATOM     23  C   UNL     1       0.417   8.921  21.775  0.00  0.00    +0.000 A 
ENDBRANCH  15  17
ENDBRANCH   8  13
TORSDOF 2
ENDMDL
MODEL 8
REMARK VINA RESULT:      -7.0      4.140      7.434
REMARK  Name = 
REMARK  3 active torsions:
REMARK  status: ('A' for Active; 'I' for Inactive)
REMARK    1  A    between atoms: C_1  and  C_2
REMARK    2  A    between atoms: C_8  and  C_9
REMARK    3  A    between atoms: N_11  and  C_12
REMARK                            x       y       z     vdW  Elec       q    Type
REMARK                         _______ _______ _______ _____ _____    ______ ____
ROOT
ATOM      1  C   UNL     1       1.272   6.974  21.030  0.00  0.00    +0.000 C 
ATOM      2  C   UNL     1       1.129   8.442  20.695  0.00  0.00    +0.000 A 
ATOM      3  N   UNL     1       0.624   9.175  21.636  0.00  0.00    +0.000 NA
ATOM      4  C   UNL     1       0.497  10.532  21.453  0.00  0.00    +0.000 A 
ATOM      5  O   UNL     1       0.085  11.272  22.339  0.00  0.00    +0.000 OA
ATOM      6  N   UNL     1       0.874  11.016  20.231  0.00  0.00    +0.000 N 
ATOM      7  C   UNL     1       1.371  10.260  19.201  0.00  0.00    +0.000 A 
ATOM      8  C   UNL     1       1.564   8.939  19.357  0.00  0.00    +0.000 A 
ATOM      9  N   UNL     1       1.663  11.078  18.124  0.00  0.00    +0.000 N 
ATOM     10  C   UNL     1       1.691  12.473  18.557  0.00  0.00    +0.000 C 
ATOM     11  C   UNL     1       0.872  12.435  19.860  0.00  0.00    +0.000 C 
ATOM     12  H   UNL     1       2.432  10.728  17.541  0.00  0.00    +0.000 HD
ENDROOT
BRANCH   8  13
ATOM     13  C   UNL     1       2.286   8.224  18.261  0.00  0.00    +0.000 C 
ATOM     14  O   UNL     1       2.164   8.642  17.109  0.00  0.00    +0.000 OA
ATOM     15  N   UNL     1       3.020   7.105  18.606  0.00  0.00    +0.000 N 
ATOM     16  H   UNL     1       2.926   6.733  19.541  0.00  0.00    +0.000 HD
BRANCH  15  17
ATOM     17  C   UNL     1       3.809   6.328  17.716  0.00  0.00    +0.000 A 
ATOM     18  C   UNL     1       4.863   6.851  16.956  0.00  0.00    +0.000 A 
ATOM     19  C   UNL     1       5.586   6.046  16.070  0.00  0.00    +0.000 A 
ATOM     20  C   UNL     1       5.268   4.700  15.943  0.00  0.00    +0.000 A 
ATOM     21 CL   UNL     1       6.147   3.715  14.841  0.00  0.00    +0.000 Cl
ATOM     22  C   UNL     1       4.242   4.153  16.709  0.00  0.00    +0.000 A 
ATOM     23  C   UNL     1       3.518   4.964  17.596  0.00  0.00    +0.000 A 
ENDBRANCH  15  17
ENDBRANCH   8  13
TORSDOF 2
ENDMDL
MODEL 9
REMARK VINA RESULT:      -6.9      4.122      7.836
REMARK  Name = 
REMARK  3 active torsions:
REMARK  status: ('A' for Active; 'I' for Inactive)
REMARK    1  A    between atoms: C_1  and  C_2
REMARK    2  A    between atoms: C_8  and  C_9
REMARK    3  A    between atoms: N_11  and  C_12
REMARK                            x       y       z     vdW  Elec       q    Type
REMARK                         _______ _______ _______ _____ _____    ______ ____
ROOT
ATOM      1  C   UNL     1       0.132   8.480  21.306  0.00  0.00    +0.000 C 
ATOM      2  C   UNL     1       0.418   9.877  20.805  0.00  0.00    +0.000 A 
ATOM      3  N   UNL     1       0.057  10.833  21.602  0.00  0.00    +0.000 NA
ATOM      4  C   UNL     1       0.317  12.140  21.265  0.00  0.00    +0.000 A 
ATOM      5  O   UNL     1       0.051  13.071  22.018  0.00  0.00    +0.000 OA
ATOM      6  N   UNL     1       0.906  12.347  20.048  0.00  0.00    +0.000 N 
ATOM      7  C   UNL     1       1.260  11.360  19.165  0.00  0.00    +0.000 A 
ATOM      8  C   UNL     1       1.076  10.066  19.479  0.00  0.00    +0.000 A 
ATOM      9  N   UNL     1       1.847  11.926  18.047  0.00  0.00    +0.000 N 
ATOM     10  C   UNL     1       2.217  13.311  18.332  0.00  0.00    +0.000 C 
ATOM     11  C   UNL     1       1.317  13.656  19.534  0.00  0.00    +0.000 C 
ATOM     12  H   UNL     1       2.535  11.316  17.593  0.00  0.00    +0.000 HD
ENDROOT
BRANCH   8  13
ATOM     13  C   UNL     1       1.661   9.051  18.551  0.00  0.00    +0.000 C 
ATOM     14  O   UNL     1       1.507   9.208  17.339  0.00  0.00    +0.000 OA
ATOM     15  N   UNL     1       2.311   7.971  19.117  0.00  0.00    +0.000 N 
ATOM     16  H   UNL     1       2.241   7.832  20.115  0.00  0.00    +0.000 HD
BRANCH  15  17
ATOM     17  C   UNL     1       2.970   6.936  18.401  0.00  0.00    +0.000 A 
ATOM     18  C   UNL     1       4.097   7.147  17.596  0.00  0.00    +0.000 A 
ATOM     19  C   UNL     1       4.687   6.096  16.886  0.00  0.00    +0.000 A 
ATOM     20  C   UNL     1       4.160   4.815  16.984  0.00  0.00    +0.000 A 
ATOM     21 CL   UNL     1       4.876   3.527  16.098  0.00  0.00    +0.000 Cl
ATOM     22  C   UNL     1       3.057   4.577  17.799  0.00  0.00    +0.000 A 
ATOM     23  C   UNL     1       2.467   5.634  18.508  0.00  0.00    +0.000 A 
ENDBRANCH  15  17
ENDBRANCH   8  13
TORSDOF 2
ENDMDL
