MODEL 1
REMARK VINA RESULT:      -7.8      0.000      0.000
REMARK  Name = 
REMARK  4 active torsions:
REMARK  status: ('A' for Active; 'I' for Inactive)
REMARK    1  A    between atoms: C_2  and  C_11
REMARK    2  A    between atoms: N_3  and  C_4
REMARK    3  A    between atoms: C_4  and  C_5
REMARK    4  A    between atoms: N_13  and  C_14
REMARK                            x       y       z     vdW  Elec       q    Type
REMARK                         _______ _______ _______ _____ _____    ______ ____
ROOT
ATOM      1  C   UNL     1       4.739   4.849  18.779  0.00  0.00    +0.000 C 
ATOM      2  N   UNL     1       4.006   5.912  18.637  0.00  0.00    +0.000 NA
ATOM      3  N   UNL     1       2.822   5.990  19.367  0.00  0.00    +0.000 N 
ATOM      4  C   UNL     1       2.291   4.909  20.098  0.00  0.00    +0.000 C 
ATOM      5  O   UNL     1       1.209   4.902  20.694  0.00  0.00    +0.000 OA
ATOM      6  C   UNL     1       3.092   3.617  20.069  0.00  0.00    +0.000 C 
ATOM      7  N   UNL     1       4.432   3.781  19.576  0.00  0.00    +0.000 N 
ATOM      8  H   UNL     1       4.982   2.939  19.415  0.00  0.00    +0.000 HD
ENDROOT
BRANCH   3   9
ATOM      9  C   UNL     1       2.195   7.284  19.321  0.00  0.00    +0.000 A 
ATOM     10  C   UNL     1       1.656   7.893  20.464  0.00  0.00    +0.000 A 
ATOM     11  C   UNL     1       1.068   9.163  20.407  0.00  0.00    +0.000 A 
ATOM     12  C   UNL     1       1.002   9.848  19.201  0.00  0.00    +0.000 A 
ATOM     13  C   UNL     1       1.531   9.268  18.052  0.00  0.00    +0.000 A 
ATOM     14  C   UNL     1       2.129   8.003  18.113  0.00  0.00    +0.000 A 
ENDBRANCH   3   9
BRANCH   1  16
ATOM     15  O   UNL     1       7.084   4.427  18.602  0.00  0.00    +0.000 OA
ATOM     16  C   UNL     1       6.076   4.785  18.006  0.00  0.00    +0.000 C 
ATOM     17  N   UNL     1       6.007   5.166  16.690  0.00  0.00    +0.000 N 
ATOM     18  H   UNL     1       5.111   5.500  16.356  0.00  0.00    +0.000 HD
BRANCH  17  19
ATOM     19  C   UNL     1       7.181   5.260  15.859  0.00  0.00    +0.000 C 
BRANCH  19  20
ATOM     20  C   UNL     1       6.935   4.749  14.469  0.00  0.00    +0.000 A 
ATOM     21  C   UNL     1       5.888   3.867  14.187  0.00  0.00    +0.000 A 
ATOM     22  C   UNL     1       5.712   3.397  12.888  0.00  0.00    +0.000 A 
ATOM     23  C   UNL     1       6.586   3.833  11.907  0.00  0.00    +0.000 A 
ATOM     24  N   UNL     1       7.598   4.699  12.135  0.00  0.00    +0.000 NA
ATOM     25  C   UNL     1       7.745   5.140  13.407  0.00  0.00    +0.000 A 
ENDBRANCH  19  20
ENDBRANCH  17  19
ENDBRANCH   1  16
TORSDOF 4
ENDMDL
MODEL 2
REMARK VINA RESULT:      -7.8      3.375      7.821
REMARK  Name = 
REMARK  4 active torsions:
REMARK  status: ('A' for Active; 'I' for Inactive)
REMARK    1  A    between atoms: C_2  and  C_11
REMARK    2  A    between atoms: N_3  and  C_4
REMARK    3  A    between atoms: C_4  and  C_5
REMARK    4  A    between atoms: N_13  and  C_14
REMARK                            x       y       z     vdW  Elec       q    Type
REMARK                         _______ _______ _______ _____ _____    ______ ____
ROOT
ATOM      1  C   UNL     1       2.702   7.976  17.953  0.00  0.00    +0.000 C 
ATOM      2  N   UNL     1       2.150   6.953  18.532  0.00  0.00    +0.000 NA
ATOM      3  N   UNL     1       2.826   5.735  18.485  0.00  0.00    +0.000 N 
ATOM      4  C   UNL     1       3.969   5.515  17.692  0.00  0.00    +0.000 C 
ATOM      5  O   UNL     1       4.555   4.436  17.554  0.00  0.00    +0.000 OA
ATOM      6  C   UNL     1       4.461   6.698  16.874  0.00  0.00    +0.000 C 
ATOM      7  N   UNL     1       3.890   7.954  17.277  0.00  0.00    +0.000 N 
ATOM      8  H   UNL     1       4.081   8.768  16.695  0.00  0.00    +0.000 HD
ENDROOT
BRANCH   3   9
ATOM      9  C   UNL     1       2.259   4.722  19.335  0.00  0.00    +0.000 A 
ATOM     10  C   UNL     1       1.353   3.766  18.855  0.00  0.00    +0.000 A 
ATOM     11  C   UNL     1       0.826   2.774  19.691  0.00  0.00    +0.000 A 
ATOM     12  C   UNL     1       1.190   2.723  21.029  0.00  0.00    +0.000 A 
ATOM     13  C   UNL     1       2.089   3.658  21.532  0.00  0.00    +0.000 A 
ATOM     14  C   UNL     1       2.625   4.643  20.692  0.00  0.00    +0.000 A 
ENDBRANCH   3   9
BRANCH   1  16
ATOM     15  O   UNL     1       2.399  10.279  17.388  0.00  0.00    +0.000 OA
ATOM     16  C   UNL     1       1.976   9.338  18.048  0.00  0.00    +0.000 C 
ATOM     17  N   UNL     1       0.905   9.368  18.905  0.00  0.00    +0.000 N 
ATOM     18  H   UNL     1       0.716   8.524  19.433  0.00  0.00    +0.000 HD
BRANCH  17  19
ATOM     19  C   UNL     1       0.185  10.584  19.185  0.00  0.00    +0.000 C 
BRANCH  19  20
ATOM     20  C   UNL     1      -1.137  10.637  18.476  0.00  0.00    +0.000 A 
ATOM     21  C   UNL     1      -1.416   9.813  17.381  0.00  0.00    +0.000 A 
ATOM     22  C   UNL     1      -2.646   9.914  16.736  0.00  0.00    +0.000 A 
ATOM     23  C   UNL     1      -3.566  10.831  17.214  0.00  0.00    +0.000 A 
ATOM     24  N   UNL     1      -3.342  11.632  18.278  0.00  0.00    +0.000 NA
ATOM     25  C   UNL     1      -2.138  11.513  18.887  0.00  0.00    +0.000 A 
ENDBRANCH  19  20
ENDBRANCH  17  19
ENDBRANCH   1  16
TORSDOF 4
ENDMDL
MODEL 3
REMARK VINA RESULT:      -7.8      3.369      7.778
REMARK  Name = 
REMARK  4 active torsions:
REMARK  status: ('A' for Active; 'I' for Inactive)
REMARK    1  A    between atoms: C_2  and  C_11
REMARK    2  A    between atoms: N_3  and  C_4
REMARK    3  A    between atoms: C_4  and  C_5
REMARK    4  A    between atoms: N_13  and  C_14
REMARK                            x       y       z     vdW  Elec       q    Type
REMARK                         _______ _______ _______ _____ _____    ______ ____
ROOT
ATOM      1  C   UNL     1       2.689   7.943  17.991  0.00  0.00    +0.000 C 
ATOM      2  N   UNL     1       2.157   6.915  18.580  0.00  0.00    +0.000 NA
ATOM      3  N   UNL     1       2.844   5.703  18.523  0.00  0.00    +0.000 N 
ATOM      4  C   UNL     1       3.976   5.493  17.712  0.00  0.00    +0.000 C 
ATOM      5  O   UNL     1       4.570   4.420  17.565  0.00  0.00    +0.000 OA
ATOM      6  C   UNL     1       4.443   6.680  16.885  0.00  0.00    +0.000 C 
ATOM      7  N   UNL     1       3.866   7.931  17.296  0.00  0.00    +0.000 N 
ATOM      8  H   UNL     1       4.039   8.746  16.709  0.00  0.00    +0.000 HD
ENDROOT
BRANCH   3   9
ATOM      9  C   UNL     1       2.300   4.686  19.384  0.00  0.00    +0.000 A 
ATOM     10  C   UNL     1       2.642   4.596  20.740  0.00  0.00    +0.000 A 
ATOM     11  C   UNL     1       2.088   3.613  21.570  0.00  0.00    +0.000 A 
ATOM     12  C   UNL     1       1.183   2.695  21.056  0.00  0.00    +0.000 A 
ATOM     13  C   UNL     1       0.823   2.763  19.713  0.00  0.00    +0.000 A 
ATOM     14  C   UNL     1       1.370   3.754  18.888  0.00  0.00    +0.000 A 
ENDBRANCH   3   9
BRANCH   1  16
ATOM     15  O   UNL     1       2.323  10.227  17.391  0.00  0.00    +0.000 OA
ATOM     16  C   UNL     1       1.951   9.297  18.096  0.00  0.00    +0.000 C 
ATOM     17  N   UNL     1       0.930   9.335  19.011  0.00  0.00    +0.000 N 
ATOM     18  H   UNL     1       0.782   8.501  19.569  0.00  0.00    +0.000 HD
BRANCH  17  19
ATOM     19  C   UNL     1       0.210  10.548  19.304  0.00  0.00    +0.000 C 
BRANCH  19  20
ATOM     20  C   UNL     1      -1.093  10.627  18.564  0.00  0.00    +0.000 A 
ATOM     21  C   UNL     1      -1.347   9.839  17.437  0.00  0.00    +0.000 A 
ATOM     22  C   UNL     1      -2.560   9.964  16.766  0.00  0.00    +0.000 A 
ATOM     23  C   UNL     1      -3.489  10.870  17.249  0.00  0.00    +0.000 A 
ATOM     24  N   UNL     1      -3.290  11.635  18.343  0.00  0.00    +0.000 NA
ATOM     25  C   UNL     1      -2.102  11.493  18.978  0.00  0.00    +0.000 A 
ENDBRANCH  19  20
ENDBRANCH  17  19
ENDBRANCH   1  16
TORSDOF 4
ENDMDL
MODEL 4
REMARK VINA RESULT:      -7.7      3.328      8.235
REMARK  Name = 
REMARK  4 active torsions:
REMARK  status: ('A' for Active; 'I' for Inactive)
REMARK    1  A    between atoms: C_2  and  C_11
REMARK    2  A    between atoms: N_3  and  C_4
REMARK    3  A    between atoms: C_4  and  C_5
REMARK    4  A    between atoms: N_13  and  C_14
REMARK                            x       y       z     vdW  Elec       q    Type
REMARK                         _______ _______ _______ _____ _____    ______ ____
ROOT
ATOM      1  C   UNL     1       2.730   7.894  17.973  0.00  0.00    +0.000 C 
ATOM      2  N   UNL     1       2.195   6.867  18.562  0.00  0.00    +0.000 NA
ATOM      3  N   UNL     1       2.887   5.658  18.520  0.00  0.00    +0.000 N 
ATOM      4  C   UNL     1       4.029   5.448  17.724  0.00  0.00    +0.000 C 
ATOM      5  O   UNL     1       4.629   4.376  17.590  0.00  0.00    +0.000 OA
ATOM      6  C   UNL     1       4.502   6.632  16.895  0.00  0.00    +0.000 C 
ATOM      7  N   UNL     1       3.916   7.883  17.292  0.00  0.00    +0.000 N 
ATOM      8  H   UNL     1       4.092   8.695  16.703  0.00  0.00    +0.000 HD
ENDROOT
BRANCH   3   9
ATOM      9  C   UNL     1       2.337   4.644  19.380  0.00  0.00    +0.000 A 
ATOM     10  C   UNL     1       2.663   4.563  20.741  0.00  0.00    +0.000 A 
ATOM     11  C   UNL     1       2.102   3.583  21.570  0.00  0.00    +0.000 A 
ATOM     12  C   UNL     1       1.208   2.658  21.050  0.00  0.00    +0.000 A 
ATOM     13  C   UNL     1       0.865   2.716  19.703  0.00  0.00    +0.000 A 
ATOM     14  C   UNL     1       1.417   3.704  18.878  0.00  0.00    +0.000 A 
ENDBRANCH   3   9
BRANCH   1  16
ATOM     15  O   UNL     1       2.437  10.208  17.453  0.00  0.00    +0.000 OA
ATOM     16  C   UNL     1       1.986   9.246  18.061  0.00  0.00    +0.000 C 
ATOM     17  N   UNL     1       0.866   9.244  18.855  0.00  0.00    +0.000 N 
ATOM     18  H   UNL     1       0.655   8.384  19.348  0.00  0.00    +0.000 HD
BRANCH  17  19
ATOM     19  C   UNL     1       0.119  10.446  19.124  0.00  0.00    +0.000 C 
BRANCH  19  20
ATOM     20  C   UNL     1      -0.304  10.540  20.562  0.00  0.00    +0.000 A 
ATOM     21  C   UNL     1      -0.058   9.505  21.469  0.00  0.00    +0.000 A 
ATOM     22  C   UNL     1      -0.491   9.623  22.787  0.00  0.00    +0.000 A 
ATOM     23  C   UNL     1      -1.151  10.781  23.160  0.00  0.00    +0.000 A 
ATOM     24  N   UNL     1      -1.392  11.811  22.320  0.00  0.00    +0.000 NA
ATOM     25  C   UNL     1      -0.960  11.670  21.044  0.00  0.00    +0.000 A 
ENDBRANCH  19  20
ENDBRANCH  17  19
ENDBRANCH   1  16
TORSDOF 4
ENDMDL
MODEL 5
REMARK VINA RESULT:      -7.7      0.034      1.002
REMARK  Name = 
REMARK  4 active torsions:
REMARK  status: ('A' for Active; 'I' for Inactive)
REMARK    1  A    between atoms: C_2  and  C_11
REMARK    2  A    between atoms: N_3  and  C_4
REMARK    3  A    between atoms: C_4  and  C_5
REMARK    4  A    between atoms: N_13  and  C_14
REMARK                            x       y       z     vdW  Elec       q    Type
REMARK                         _______ _______ _______ _____ _____    ______ ____
ROOT
ATOM      1  C   UNL     1       4.728   4.860  18.765  0.00  0.00    +0.000 C 
ATOM      2  N   UNL     1       4.004   5.929  18.622  0.00  0.00    +0.000 NA
ATOM      3  N   UNL     1       2.821   6.017  19.354  0.00  0.00    +0.000 N 
ATOM      4  C   UNL     1       2.283   4.942  20.087  0.00  0.00    +0.000 C 
ATOM      5  O   UNL     1       1.202   4.944  20.684  0.00  0.00    +0.000 OA
ATOM      6  C   UNL     1       3.074   3.643  20.059  0.00  0.00    +0.000 C 
ATOM      7  N   UNL     1       4.415   3.796  19.564  0.00  0.00    +0.000 N 
ATOM      8  H   UNL     1       4.958   2.949  19.403  0.00  0.00    +0.000 HD
ENDROOT
BRANCH   3   9
ATOM      9  C   UNL     1       2.205   7.316  19.308  0.00  0.00    +0.000 A 
ATOM     10  C   UNL     1       2.100   8.050  18.117  0.00  0.00    +0.000 A 
ATOM     11  C   UNL     1       1.478   9.304  18.085  0.00  0.00    +0.000 A 
ATOM     12  C   UNL     1       0.954   9.854  19.247  0.00  0.00    +0.000 A 
ATOM     13  C   UNL     1       1.043   9.147  20.442  0.00  0.00    +0.000 A 
ATOM     14  C   UNL     1       1.655   7.887  20.470  0.00  0.00    +0.000 A 
ENDBRANCH   3   9
BRANCH   1  16
ATOM     15  O   UNL     1       7.067   4.401  18.580  0.00  0.00    +0.000 OA
ATOM     16  C   UNL     1       6.065   4.784  17.991  0.00  0.00    +0.000 C 
ATOM     17  N   UNL     1       6.001   5.186  16.680  0.00  0.00    +0.000 N 
ATOM     18  H   UNL     1       5.110   5.541  16.351  0.00  0.00    +0.000 HD
BRANCH  17  19
ATOM     19  C   UNL     1       7.176   5.272  15.850  0.00  0.00    +0.000 C 
BRANCH  19  20
ATOM     20  C   UNL     1       6.930   4.754  14.463  0.00  0.00    +0.000 A 
ATOM     21  C   UNL     1       5.879   3.875  14.183  0.00  0.00    +0.000 A 
ATOM     22  C   UNL     1       5.704   3.399  12.887  0.00  0.00    +0.000 A 
ATOM     23  C   UNL     1       6.582   3.825  11.905  0.00  0.00    +0.000 A 
ATOM     24  N   UNL     1       7.597   4.686  12.130  0.00  0.00    +0.000 NA
ATOM     25  C   UNL     1       7.745   5.135  13.400  0.00  0.00    +0.000 A 
ENDBRANCH  19  20
ENDBRANCH  17  19
ENDBRANCH   1  16
TORSDOF 4
ENDMDL
MODEL 6
REMARK VINA RESULT:      -7.7      1.800      7.880
REMARK  Name = 
REMARK  4 active torsions:
REMARK  status: ('A' for Active; 'I' for Inactive)
REMARK    1  A    between atoms: C_2  and  C_11
REMARK    2  A    between atoms: N_3  and  C_4
REMARK    3  A    between atoms: C_4  and  C_5
REMARK    4  A    between atoms: N_13  and  C_14
REMARK                            x       y       z     vdW  Elec       q    Type
REMARK                         _______ _______ _______ _____ _____    ______ ____
ROOT
ATOM      1  C   UNL     1       4.463   5.759  17.579  0.00  0.00    +0.000 C 
ATOM      2  N   UNL     1       4.906   5.625  16.365  0.00  0.00    +0.000 NA
ATOM      3  N   UNL     1       6.146   5.014  16.189  0.00  0.00    +0.000 N 
ATOM      4  C   UNL     1       7.017   4.708  17.252  0.00  0.00    +0.000 C 
ATOM      5  O   UNL     1       8.155   4.242  17.143  0.00  0.00    +0.000 OA
ATOM      6  C   UNL     1       6.531   5.070  18.647  0.00  0.00    +0.000 C 
ATOM      7  N   UNL     1       5.126   5.367  18.708  0.00  0.00    +0.000 N 
ATOM      8  H   UNL     1       4.759   5.735  19.584  0.00  0.00    +0.000 HD
ENDROOT
BRANCH   3   9
ATOM      9  C   UNL     1       6.452   4.707  14.816  0.00  0.00    +0.000 A 
ATOM     10  C   UNL     1       5.730   3.752  14.087  0.00  0.00    +0.000 A 
ATOM     11  C   UNL     1       6.027   3.480  12.746  0.00  0.00    +0.000 A 
ATOM     12  C   UNL     1       7.058   4.154  12.108  0.00  0.00    +0.000 A 
ATOM     13  C   UNL     1       7.789   5.110  12.807  0.00  0.00    +0.000 A 
ATOM     14  C   UNL     1       7.484   5.389  14.145  0.00  0.00    +0.000 A 
ENDBRANCH   3   9
BRANCH   1  16
ATOM     15  O   UNL     1       2.094   5.655  17.879  0.00  0.00    +0.000 OA
ATOM     16  C   UNL     1       3.065   6.393  17.771  0.00  0.00    +0.000 C 
ATOM     17  N   UNL     1       3.045   7.764  17.784  0.00  0.00    +0.000 N 
ATOM     18  H   UNL     1       3.925   8.238  17.617  0.00  0.00    +0.000 HD
BRANCH  17  19
ATOM     19  C   UNL     1       1.813   8.510  17.852  0.00  0.00    +0.000 C 
BRANCH  19  20
ATOM     20  C   UNL     1       1.498   8.958  19.250  0.00  0.00    +0.000 A 
ATOM     21  C   UNL     1       1.627   8.096  20.344  0.00  0.00    +0.000 A 
ATOM     22  C   UNL     1       1.298   8.546  21.619  0.00  0.00    +0.000 A 
ATOM     23  C   UNL     1       0.857   9.851  21.764  0.00  0.00    +0.000 A 
ATOM     24  N   UNL     1       0.736  10.719  20.736  0.00  0.00    +0.000 NA
ATOM     25  C   UNL     1       1.063  10.256  19.506  0.00  0.00    +0.000 A 
ENDBRANCH  19  20
ENDBRANCH  17  19
ENDBRANCH   1  16
TORSDOF 4
ENDMDL
MODEL 7
REMARK VINA RESULT:      -7.7      3.317      8.252
REMARK  Name = 
REMARK  4 active torsions:
REMARK  status: ('A' for Active; 'I' for Inactive)
REMARK    1  A    between atoms: C_2  and  C_11
REMARK    2  A    between atoms: N_3  and  C_4
REMARK    3  A    between atoms: C_4  and  C_5
REMARK    4  A    between atoms: N_13  and  C_14
REMARK                            x       y       z     vdW  Elec       q    Type
REMARK                         _______ _______ _______ _____ _____    ______ ____
ROOT
ATOM      1  C   UNL     1       2.746   7.871  17.966  0.00  0.00    +0.000 C 
ATOM      2  N   UNL     1       2.200   6.849  18.553  0.00  0.00    +0.000 NA
ATOM      3  N   UNL     1       2.887   5.637  18.524  0.00  0.00    +0.000 N 
ATOM      4  C   UNL     1       4.039   5.418  17.744  0.00  0.00    +0.000 C 
ATOM      5  O   UNL     1       4.636   4.344  17.622  0.00  0.00    +0.000 OA
ATOM      6  C   UNL     1       4.526   6.597  16.916  0.00  0.00    +0.000 C 
ATOM      7  N   UNL     1       3.940   7.852  17.300  0.00  0.00    +0.000 N 
ATOM      8  H   UNL     1       4.128   8.661  16.711  0.00  0.00    +0.000 HD
ENDROOT
BRANCH   3   9
ATOM      9  C   UNL     1       2.322   4.628  19.382  0.00  0.00    +0.000 A 
ATOM     10  C   UNL     1       1.411   3.673  18.910  0.00  0.00    +0.000 A 
ATOM     11  C   UNL     1       0.886   2.685  19.752  0.00  0.00    +0.000 A 
ATOM     12  C   UNL     1       1.258   2.638  21.089  0.00  0.00    +0.000 A 
ATOM     13  C   UNL     1       2.163   3.572  21.583  0.00  0.00    +0.000 A 
ATOM     14  C   UNL     1       2.696   4.553  20.736  0.00  0.00    +0.000 A 
ENDBRANCH   3   9
BRANCH   1  16
ATOM     15  O   UNL     1       2.478  10.188  17.447  0.00  0.00    +0.000 OA
ATOM     16  C   UNL     1       2.007   9.227  18.040  0.00  0.00    +0.000 C 
ATOM     17  N   UNL     1       0.867   9.227  18.804  0.00  0.00    +0.000 N 
ATOM     18  H   UNL     1       0.639   8.367  19.289  0.00  0.00    +0.000 HD
BRANCH  17  19
ATOM     19  C   UNL     1       0.119  10.432  19.058  0.00  0.00    +0.000 C 
BRANCH  19  20
ATOM     20  C   UNL     1      -0.285  10.555  20.499  0.00  0.00    +0.000 A 
ATOM     21  C   UNL     1      -0.128   9.496  21.399  0.00  0.00    +0.000 A 
ATOM     22  C   UNL     1      -0.542   9.645  22.720  0.00  0.00    +0.000 A 
ATOM     23  C   UNL     1      -1.092  10.856  23.104  0.00  0.00    +0.000 A 
ATOM     24  N   UNL     1      -1.244  11.908  22.271  0.00  0.00    +0.000 NA
ATOM     25  C   UNL     1      -0.833  11.736  20.992  0.00  0.00    +0.000 A 
ENDBRANCH  19  20
ENDBRANCH  17  19
ENDBRANCH   1  16
TORSDOF 4
ENDMDL
MODEL 8
REMARK VINA RESULT:      -7.6      2.592      8.383
REMARK  Name = 
REMARK  4 active torsions:
REMARK  status: ('A' for Active; 'I' for Inactive)
REMARK    1  A    between atoms: C_2  and  C_11
REMARK    2  A    between atoms: N_3  and  C_4
REMARK    3  A    between atoms: C_4  and  C_5
REMARK    4  A    between atoms: N_13  and  C_14
REMARK                            x       y       z     vdW  Elec       q    Type
REMARK                         _______ _______ _______ _____ _____    ______ ____
ROOT
ATOM      1  C   UNL     1       2.875   6.990  18.510  0.00  0.00    +0.000 C 
ATOM      2  N   UNL     1       3.806   6.691  17.656  0.00  0.00    +0.000 NA
ATOM      3  N   UNL     1       4.428   5.450  17.778  0.00  0.00    +0.000 N 
ATOM      4  C   UNL     1       4.233   4.592  18.877  0.00  0.00    +0.000 C 
ATOM      5  O   UNL     1       4.819   3.522  19.072  0.00  0.00    +0.000 OA
ATOM      6  C   UNL     1       3.277   5.081  19.954  0.00  0.00    +0.000 C 
ATOM      7  N   UNL     1       2.463   6.191  19.540  0.00  0.00    +0.000 N 
ATOM      8  H   UNL     1       1.891   6.646  20.249  0.00  0.00    +0.000 HD
ENDROOT
BRANCH   3   9
ATOM      9  C   UNL     1       5.279   5.115  16.667  0.00  0.00    +0.000 A 
ATOM     10  C   UNL     1       4.803   4.418  15.547  0.00  0.00    +0.000 A 
ATOM     11  C   UNL     1       5.639   4.118  14.464  0.00  0.00    +0.000 A 
ATOM     12  C   UNL     1       6.972   4.504  14.483  0.00  0.00    +0.000 A 
ATOM     13  C   UNL     1       7.470   5.199  15.581  0.00  0.00    +0.000 A 
ATOM     14  C   UNL     1       6.630   5.508  16.658  0.00  0.00    +0.000 A 
ENDBRANCH   3   9
BRANCH   1  16
ATOM     15  O   UNL     1       2.257   8.945  17.282  0.00  0.00    +0.000 OA
ATOM     16  C   UNL     1       2.151   8.347  18.344  0.00  0.00    +0.000 C 
ATOM     17  N   UNL     1       1.453   8.772  19.446  0.00  0.00    +0.000 N 
ATOM     18  H   UNL     1       1.513   8.196  20.278  0.00  0.00    +0.000 HD
BRANCH  17  19
ATOM     19  C   UNL     1       0.809  10.060  19.492  0.00  0.00    +0.000 C 
BRANCH  19  20
ATOM     20  C   UNL     1       0.128  10.308  20.807  0.00  0.00    +0.000 A 
ATOM     21  C   UNL     1       0.225   9.400  21.866  0.00  0.00    +0.000 A 
ATOM     22  C   UNL     1      -0.445   9.657  23.059  0.00  0.00    +0.000 A 
ATOM     23  C   UNL     1      -1.186  10.821  23.160  0.00  0.00    +0.000 A 
ATOM     24  N   UNL     1      -1.290  11.731  22.168  0.00  0.00    +0.000 NA
ATOM     25  C   UNL     1      -0.628  11.458  21.018  0.00  0.00    +0.000 A 
ENDBRANCH  19  20
ENDBRANCH  17  19
ENDBRANCH   1  16
TORSDOF 4
ENDMDL
MODEL 9
REMARK VINA RESULT:      -7.6      0.591      1.003
REMARK  Name = 
REMARK  4 active torsions:
REMARK  status: ('A' for Active; 'I' for Inactive)
REMARK    1  A    between atoms: C_2  and  C_11
REMARK    2  A    between atoms: N_3  and  C_4
REMARK    3  A    between atoms: C_4  and  C_5
REMARK    4  A    between atoms: N_13  and  C_14
REMARK                            x       y       z     vdW  Elec       q    Type
REMARK                         _______ _______ _______ _____ _____    ______ ____
ROOT
ATOM      1  C   UNL     1       4.715   4.827  18.799  0.00  0.00    +0.000 C 
ATOM      2  N   UNL     1       3.983   5.894  18.680  0.00  0.00    +0.000 NA
ATOM      3  N   UNL     1       2.788   5.947  19.397  0.00  0.00    +0.000 N 
ATOM      4  C   UNL     1       2.250   4.844  20.086  0.00  0.00    +0.000 C 
ATOM      5  O   UNL     1       1.159   4.817  20.666  0.00  0.00    +0.000 OA
ATOM      6  C   UNL     1       3.053   3.554  20.027  0.00  0.00    +0.000 C 
ATOM      7  N   UNL     1       4.399   3.735  19.558  0.00  0.00    +0.000 N 
ATOM      8  H   UNL     1       4.952   2.899  19.377  0.00  0.00    +0.000 HD
ENDROOT
BRANCH   3   9
ATOM      9  C   UNL     1       2.161   7.242  19.383  0.00  0.00    +0.000 A 
ATOM     10  C   UNL     1       1.661   7.841  20.548  0.00  0.00    +0.000 A 
ATOM     11  C   UNL     1       1.071   9.111  20.521  0.00  0.00    +0.000 A 
ATOM     12  C   UNL     1       0.964   9.806  19.325  0.00  0.00    +0.000 A 
ATOM     13  C   UNL     1       1.454   9.237  18.154  0.00  0.00    +0.000 A 
ATOM     14  C   UNL     1       2.054   7.971  18.184  0.00  0.00    +0.000 A 
ENDBRANCH   3   9
BRANCH   1  16
ATOM     15  O   UNL     1       7.070   4.450  18.651  0.00  0.00    +0.000 OA
ATOM     16  C   UNL     1       6.063   4.789  18.043  0.00  0.00    +0.000 C 
ATOM     17  N   UNL     1       6.002   5.168  16.726  0.00  0.00    +0.000 N 
ATOM     18  H   UNL     1       5.104   5.486  16.380  0.00  0.00    +0.000 HD
BRANCH  17  19
ATOM     19  C   UNL     1       7.184   5.286  15.909  0.00  0.00    +0.000 C 
BRANCH  19  20
ATOM     20  C   UNL     1       6.966   4.767  14.518  0.00  0.00    +0.000 A 
ATOM     21  C   UNL     1       7.750   5.197  13.442  0.00  0.00    +0.000 A 
ATOM     22  C   UNL     1       7.495   4.710  12.164  0.00  0.00    +0.000 A 
ATOM     23  C   UNL     1       6.467   3.797  12.000  0.00  0.00    +0.000 A 
ATOM     24  N   UNL     1       5.699   3.344  13.014  0.00  0.00    +0.000 NA
ATOM     25  C   UNL     1       5.969   3.833  14.248  0.00  0.00    +0.000 A 
ENDBRANCH  19  20
ENDBRANCH  17  19
ENDBRANCH   1  16
TORSDOF 4
ENDMDL
