MODEL 1
REMARK VINA RESULT:      -9.5      0.000      0.000
REMARK  Name = 
REMARK  5 active torsions:
REMARK  status: ('A' for Active; 'I' for Inactive)
REMARK    1  A    between atoms: N_2  and  C_4
REMARK    2  A    between atoms: C_8  and  C_9
REMARK    3  A    between atoms: C_11  and  C_12
REMARK    4  A    between atoms: N_14  and  C_15
REMARK    5  A    between atoms: C_22  and  C_23
REMARK                            x       y       z     vdW  Elec       q    Type
REMARK                         _______ _______ _______ _____ _____    ______ ____
ROOT
ATOM      1  C   UNL     1       3.666   7.008  17.660  0.00  0.00    +0.000 A 
ATOM      2  C   UNL     1       3.458   8.362  17.611  0.00  0.00    +0.000 A 
ATOM      3  N   UNL     1       2.209   8.587  18.132  0.00  0.00    +0.000 N 
ATOM      4  N   UNL     1       1.636   7.433  18.567  0.00  0.00    +0.000 NA
ATOM      5  C   UNL     1       2.497   6.454  18.244  0.00  0.00    +0.000 A 
ENDROOT
BRANCH   1   8
ATOM      6  C   UNL     1       6.408   5.392  15.736  0.00  0.00    +0.000 A 
ATOM      7  C   UNL     1       5.118   6.071  15.974  0.00  0.00    +0.000 A 
ATOM      8  C   UNL     1       4.868   6.383  17.248  0.00  0.00    +0.000 A 
ATOM      9  N   UNL     1       5.782   6.084  18.217  0.00  0.00    +0.000 N 
ATOM     10  C   UNL     1       6.982   5.470  17.962  0.00  0.00    +0.000 A 
ATOM     11  S   UNL     1       8.010   5.197  19.254  0.00  0.00    +0.000 S 
ATOM     12  N   UNL     1       7.264   5.113  16.668  0.00  0.00    +0.000 NA
ATOM     13  H   UNL     1       5.594   6.324  19.183  0.00  0.00    +0.000 HD
BRANCH   6  18
ATOM     14  C   UNL     1       6.069   3.649  12.414  0.00  0.00    +0.000 A 
ATOM     15  C   UNL     1       7.167   4.150  11.700  0.00  0.00    +0.000 A 
ATOM     16  C   UNL     1       8.034   5.053  12.312  0.00  0.00    +0.000 A 
ATOM     17  C   UNL     1       7.807   5.458  13.628  0.00  0.00    +0.000 A 
ATOM     18  C   UNL     1       6.698   4.973  14.337  0.00  0.00    +0.000 A 
ATOM     19  C   UNL     1       5.828   4.059  13.729  0.00  0.00    +0.000 A 
BRANCH  14  21
ATOM     20  O   UNL     1       4.013   3.069  11.518  0.00  0.00    +0.000 OA
ATOM     21  N   UNL     1       5.163   2.686  11.778  0.00  0.00    +0.000 N 
ATOM     22  O   UNL     1       5.594   1.550  11.545  0.00  0.00    +0.000 OA
ENDBRANCH  14  21
ENDBRANCH   6  18
ENDBRANCH   1   8
BRANCH   5  23
ATOM     23  C   UNL     1       2.203   5.046  18.529  0.00  0.00    +0.000 A 
ATOM     24  C   UNL     1       2.369   4.058  17.544  0.00  0.00    +0.000 A 
ATOM     25  C   UNL     1       2.146   2.711  17.833  0.00  0.00    +0.000 A 
ATOM     26  C   UNL     1       1.732   2.351  19.106  0.00  0.00    +0.000 A 
ATOM     27  F   UNL     1       1.524   1.057  19.388  0.00  0.00    +0.000 F 
ATOM     28  C   UNL     1       1.531   3.309  20.093  0.00  0.00    +0.000 A 
ATOM     29  C   UNL     1       1.766   4.658  19.805  0.00  0.00    +0.000 A 
ENDBRANCH   5  23
BRANCH   3  30
ATOM     30  C   UNL     1       1.544   9.837  18.247  0.00  0.00    +0.000 A 
ATOM     31  C   UNL     1       2.270  11.040  18.236  0.00  0.00    +0.000 A 
ATOM     32  C   UNL     1       1.602  12.259  18.353  0.00  0.00    +0.000 A 
ATOM     33  C   UNL     1       0.216  12.289  18.488  0.00  0.00    +0.000 A 
ATOM     34  C   UNL     1      -0.510  11.099  18.495  0.00  0.00    +0.000 A 
ATOM     35  C   UNL     1       0.148   9.873  18.370  0.00  0.00    +0.000 A 
ENDBRANCH   3  30
TORSDOF 5
ENDMDL
MODEL 2
REMARK VINA RESULT:      -9.5      0.055      1.289
REMARK  Name = 
REMARK  5 active torsions:
REMARK  status: ('A' for Active; 'I' for Inactive)
REMARK    1  A    between atoms: N_2  and  C_4
REMARK    2  A    between atoms: C_8  and  C_9
REMARK    3  A    between atoms: C_11  and  C_12
REMARK    4  A    between atoms: N_14  and  C_15
REMARK    5  A    between atoms: C_22  and  C_23
REMARK                            x       y       z     vdW  Elec       q    Type
REMARK                         _______ _______ _______ _____ _____    ______ ____
ROOT
ATOM      1  C   UNL     1       3.682   7.004  17.682  0.00  0.00    +0.000 A 
ATOM      2  C   UNL     1       3.461   8.356  17.627  0.00  0.00    +0.000 A 
ATOM      3  N   UNL     1       2.214   8.572  18.157  0.00  0.00    +0.000 N 
ATOM      4  N   UNL     1       1.655   7.415  18.601  0.00  0.00    +0.000 NA
ATOM      5  C   UNL     1       2.523   6.442  18.276  0.00  0.00    +0.000 A 
ENDROOT
BRANCH   1   8
ATOM      6  C   UNL     1       6.425   5.406  15.743  0.00  0.00    +0.000 A 
ATOM      7  C   UNL     1       5.131   6.076  15.988  0.00  0.00    +0.000 A 
ATOM      8  C   UNL     1       4.886   6.388  17.263  0.00  0.00    +0.000 A 
ATOM      9  N   UNL     1       5.808   6.096  18.227  0.00  0.00    +0.000 N 
ATOM     10  C   UNL     1       7.011   5.491  17.966  0.00  0.00    +0.000 A 
ATOM     11  S   UNL     1       8.048   5.228  19.252  0.00  0.00    +0.000 S 
ATOM     12  N   UNL     1       7.288   5.136  16.671  0.00  0.00    +0.000 NA
ATOM     13  H   UNL     1       5.623   6.337  19.194  0.00  0.00    +0.000 HD
BRANCH   6  18
ATOM     14  C   UNL     1       6.074   3.667  12.421  0.00  0.00    +0.000 A 
ATOM     15  C   UNL     1       7.170   4.166  11.705  0.00  0.00    +0.000 A 
ATOM     16  C   UNL     1       8.041   5.069  12.314  0.00  0.00    +0.000 A 
ATOM     17  C   UNL     1       7.818   5.473  13.632  0.00  0.00    +0.000 A 
ATOM     18  C   UNL     1       6.710   4.988  14.343  0.00  0.00    +0.000 A 
ATOM     19  C   UNL     1       5.837   4.076  13.738  0.00  0.00    +0.000 A 
BRANCH  14  21
ATOM     20  O   UNL     1       5.610   1.576  11.538  0.00  0.00    +0.000 OA
ATOM     21  N   UNL     1       5.164   2.705  11.787  0.00  0.00    +0.000 N 
ATOM     22  O   UNL     1       4.012   3.076  11.535  0.00  0.00    +0.000 OA
ENDBRANCH  14  21
ENDBRANCH   6  18
ENDBRANCH   1   8
BRANCH   5  23
ATOM     23  C   UNL     1       2.243   5.033  18.571  0.00  0.00    +0.000 A 
ATOM     24  C   UNL     1       1.788   4.636  19.840  0.00  0.00    +0.000 A 
ATOM     25  C   UNL     1       1.465   3.305  20.102  0.00  0.00    +0.000 A 
ATOM     26  C   UNL     1       1.621   2.359  19.101  0.00  0.00    +0.000 A 
ATOM     27  F   UNL     1       1.306   1.080  19.349  0.00  0.00    +0.000 F 
ATOM     28  C   UNL     1       2.097   2.717  17.845  0.00  0.00    +0.000 A 
ATOM     29  C   UNL     1       2.410   4.055  17.579  0.00  0.00    +0.000 A 
ENDBRANCH   5  23
BRANCH   3  30
ATOM     30  C   UNL     1       1.539   9.816  18.270  0.00  0.00    +0.000 A 
ATOM     31  C   UNL     1       0.142   9.866  18.419  0.00  0.00    +0.000 A 
ATOM     32  C   UNL     1      -0.505  11.096  18.527  0.00  0.00    +0.000 A 
ATOM     33  C   UNL     1       0.227  12.281  18.480  0.00  0.00    +0.000 A 
ATOM     34  C   UNL     1       1.613  12.238  18.338  0.00  0.00    +0.000 A 
ATOM     35  C   UNL     1       2.273  11.011  18.238  0.00  0.00    +0.000 A 
ENDBRANCH   3  30
TORSDOF 5
ENDMDL
MODEL 3
REMARK VINA RESULT:      -9.0      4.468      8.941
REMARK  Name = 
REMARK  5 active torsions:
REMARK  status: ('A' for Active; 'I' for Inactive)
REMARK    1  A    between atoms: N_2  and  C_4
REMARK    2  A    between atoms: C_8  and  C_9
REMARK    3  A    between atoms: C_11  and  C_12
REMARK    4  A    between atoms: N_14  and  C_15
REMARK    5  A    between atoms: C_22  and  C_23
REMARK                            x       y       z     vdW  Elec       q    Type
REMARK                         _______ _______ _______ _____ _____    ______ ____
ROOT
ATOM      1  C   UNL     1       4.939   5.214  16.599  0.00  0.00    +0.000 A 
ATOM      2  C   UNL     1       4.669   4.403  15.527  0.00  0.00    +0.000 A 
ATOM      3  N   UNL     1       5.758   4.475  14.695  0.00  0.00    +0.000 N 
ATOM      4  N   UNL     1       6.737   5.256  15.225  0.00  0.00    +0.000 NA
ATOM      5  C   UNL     1       6.232   5.751  16.367  0.00  0.00    +0.000 A 
ENDROOT
BRANCH   1   8
ATOM      6  C   UNL     1       2.594   6.511  19.178  0.00  0.00    +0.000 A 
ATOM      7  C   UNL     1       3.437   6.520  17.965  0.00  0.00    +0.000 A 
ATOM      8  C   UNL     1       4.067   5.372  17.703  0.00  0.00    +0.000 A 
ATOM      9  N   UNL     1       3.896   4.296  18.525  0.00  0.00    +0.000 N 
ATOM     10  C   UNL     1       3.090   4.312  19.635  0.00  0.00    +0.000 A 
ATOM     11  S   UNL     1       2.961   2.901  20.525  0.00  0.00    +0.000 S 
ATOM     12  N   UNL     1       2.444   5.480  19.949  0.00  0.00    +0.000 NA
ATOM     13  H   UNL     1       4.371   3.424  18.323  0.00  0.00    +0.000 HD
BRANCH   6  18
ATOM     14  C   UNL     1       0.820   9.130  21.222  0.00  0.00    +0.000 A 
ATOM     15  C   UNL     1       0.661  10.173  20.299  0.00  0.00    +0.000 A 
ATOM     16  C   UNL     1       1.125  10.016  18.994  0.00  0.00    +0.000 A 
ATOM     17  C   UNL     1       1.746   8.826  18.610  0.00  0.00    +0.000 A 
ATOM     18  C   UNL     1       1.922   7.789  19.539  0.00  0.00    +0.000 A 
ATOM     19  C   UNL     1       1.451   7.939  20.849  0.00  0.00    +0.000 A 
BRANCH  14  21
ATOM     20  O   UNL     1       1.111   9.714  23.445  0.00  0.00    +0.000 OA
ATOM     21  N   UNL     1       0.319   9.286  22.593  0.00  0.00    +0.000 N 
ATOM     22  O   UNL     1      -0.856   8.977  22.820  0.00  0.00    +0.000 OA
ENDBRANCH  14  21
ENDBRANCH   6  18
ENDBRANCH   1   8
BRANCH   5  23
ATOM     23  C   UNL     1       6.998   6.675  17.210  0.00  0.00    +0.000 A 
ATOM     24  C   UNL     1       7.685   6.216  18.346  0.00  0.00    +0.000 A 
ATOM     25  C   UNL     1       8.463   7.085  19.114  0.00  0.00    +0.000 A 
ATOM     26  C   UNL     1       8.535   8.423  18.759  0.00  0.00    +0.000 A 
ATOM     27  F   UNL     1       9.286   9.257  19.492  0.00  0.00    +0.000 F 
ATOM     28  C   UNL     1       7.842   8.911  17.658  0.00  0.00    +0.000 A 
ATOM     29  C   UNL     1       7.072   8.037  16.882  0.00  0.00    +0.000 A 
ENDBRANCH   5  23
BRANCH   3  30
ATOM     30  C   UNL     1       5.916   3.834  13.438  0.00  0.00    +0.000 A 
ATOM     31  C   UNL     1       7.185   3.718  12.845  0.00  0.00    +0.000 A 
ATOM     32  C   UNL     1       7.322   3.087  11.609  0.00  0.00    +0.000 A 
ATOM     33  C   UNL     1       6.204   2.576  10.954  0.00  0.00    +0.000 A 
ATOM     34  C   UNL     1       4.943   2.684  11.540  0.00  0.00    +0.000 A 
ATOM     35  C   UNL     1       4.795   3.306  12.782  0.00  0.00    +0.000 A 
ENDBRANCH   3  30
TORSDOF 5
ENDMDL
MODEL 4
REMARK VINA RESULT:      -9.0      4.453      8.935
REMARK  Name = 
REMARK  5 active torsions:
REMARK  status: ('A' for Active; 'I' for Inactive)
REMARK    1  A    between atoms: N_2  and  C_4
REMARK    2  A    between atoms: C_8  and  C_9
REMARK    3  A    between atoms: C_11  and  C_12
REMARK    4  A    between atoms: N_14  and  C_15
REMARK    5  A    between atoms: C_22  and  C_23
REMARK                            x       y       z     vdW  Elec       q    Type
REMARK                         _______ _______ _______ _____ _____    ______ ____
ROOT
ATOM      1  C   UNL     1       4.968   5.175  16.563  0.00  0.00    +0.000 A 
ATOM      2  C   UNL     1       4.662   4.375  15.492  0.00  0.00    +0.000 A 
ATOM      3  N   UNL     1       5.739   4.427  14.643  0.00  0.00    +0.000 N 
ATOM      4  N   UNL     1       6.744   5.182  15.160  0.00  0.00    +0.000 NA
ATOM      5  C   UNL     1       6.269   5.683  16.313  0.00  0.00    +0.000 A 
ENDROOT
BRANCH   1   8
ATOM      6  C   UNL     1       2.664   6.503  19.162  0.00  0.00    +0.000 A 
ATOM      7  C   UNL     1       3.480   6.495  17.931  0.00  0.00    +0.000 A 
ATOM      8  C   UNL     1       4.117   5.348  17.681  0.00  0.00    +0.000 A 
ATOM      9  N   UNL     1       3.977   4.288  18.530  0.00  0.00    +0.000 N 
ATOM     10  C   UNL     1       3.195   4.320  19.656  0.00  0.00    +0.000 A 
ATOM     11  S   UNL     1       3.100   2.928  20.580  0.00  0.00    +0.000 S 
ATOM     12  N   UNL     1       2.542   5.487  19.959  0.00  0.00    +0.000 NA
ATOM     13  H   UNL     1       4.458   3.417  18.337  0.00  0.00    +0.000 HD
BRANCH   6  18
ATOM     14  C   UNL     1       0.868   9.131  21.175  0.00  0.00    +0.000 A 
ATOM     15  C   UNL     1       0.710  10.166  20.244  0.00  0.00    +0.000 A 
ATOM     16  C   UNL     1       1.181  10.001  18.942  0.00  0.00    +0.000 A 
ATOM     17  C   UNL     1       1.809   8.810  18.571  0.00  0.00    +0.000 A 
ATOM     18  C   UNL     1       1.984   7.781  19.509  0.00  0.00    +0.000 A 
ATOM     19  C   UNL     1       1.506   7.940  20.816  0.00  0.00    +0.000 A 
BRANCH  14  21
ATOM     20  O   UNL     1      -0.835   9.033  22.743  0.00  0.00    +0.000 OA
ATOM     21  N   UNL     1       0.359   9.296  22.542  0.00  0.00    +0.000 N 
ATOM     22  O   UNL     1       1.147   9.691  23.410  0.00  0.00    +0.000 OA
ENDBRANCH  14  21
ENDBRANCH   6  18
ENDBRANCH   1   8
BRANCH   5  23
ATOM     23  C   UNL     1       7.070   6.585  17.147  0.00  0.00    +0.000 A 
ATOM     24  C   UNL     1       7.202   7.945  16.821  0.00  0.00    +0.000 A 
ATOM     25  C   UNL     1       7.914   8.815  17.647  0.00  0.00    +0.000 A 
ATOM     26  C   UNL     1       8.518   8.321  18.793  0.00  0.00    +0.000 A 
ATOM     27  F   UNL     1       9.198   9.156  19.591  0.00  0.00    +0.000 F 
ATOM     28  C   UNL     1       8.430   6.974  19.125  0.00  0.00    +0.000 A 
ATOM     29  C   UNL     1       7.706   6.105  18.302  0.00  0.00    +0.000 A 
ENDBRANCH   5  23
BRANCH   3  30
ATOM     30  C   UNL     1       5.862   3.788  13.381  0.00  0.00    +0.000 A 
ATOM     31  C   UNL     1       4.727   3.310  12.704  0.00  0.00    +0.000 A 
ATOM     32  C   UNL     1       4.865   2.683  11.465  0.00  0.00    +0.000 A 
ATOM     33  C   UNL     1       6.128   2.519  10.899  0.00  0.00    +0.000 A 
ATOM     34  C   UNL     1       7.257   2.996  11.564  0.00  0.00    +0.000 A 
ATOM     35  C   UNL     1       7.129   3.634  12.800  0.00  0.00    +0.000 A 
ENDBRANCH   3  30
TORSDOF 5
ENDMDL
MODEL 5
REMARK VINA RESULT:      -8.5      3.958      8.616
REMARK  Name = 
REMARK  5 active torsions:
REMARK  status: ('A' for Active; 'I' for Inactive)
REMARK    1  A    between atoms: N_2  and  C_4
REMARK    2  A    between atoms: C_8  and  C_9
REMARK    3  A    between atoms: C_11  and  C_12
REMARK    4  A    between atoms: N_14  and  C_15
REMARK    5  A    between atoms: C_22  and  C_23
REMARK                            x       y       z     vdW  Elec       q    Type
REMARK                         _______ _______ _______ _____ _____    ______ ____
ROOT
ATOM      1  C   UNL     1       4.952   5.146  16.736  0.00  0.00    +0.000 A 
ATOM      2  C   UNL     1       4.656   4.355  15.656  0.00  0.00    +0.000 A 
ATOM      3  N   UNL     1       5.690   4.503  14.765  0.00  0.00    +0.000 N 
ATOM      4  N   UNL     1       6.661   5.314  15.262  0.00  0.00    +0.000 NA
ATOM      5  C   UNL     1       6.203   5.750  16.447  0.00  0.00    +0.000 A 
ENDROOT
BRANCH   1   8
ATOM      6  C   UNL     1       2.699   6.251  19.481  0.00  0.00    +0.000 A 
ATOM      7  C   UNL     1       3.465   6.335  18.221  0.00  0.00    +0.000 A 
ATOM      8  C   UNL     1       4.140   5.231  17.893  0.00  0.00    +0.000 A 
ATOM      9  N   UNL     1       4.077   4.127  18.695  0.00  0.00    +0.000 N 
ATOM     10  C   UNL     1       3.340   4.073  19.850  0.00  0.00    +0.000 A 
ATOM     11  S   UNL     1       3.341   2.637  20.710  0.00  0.00    +0.000 S 
ATOM     12  N   UNL     1       2.652   5.196  20.233  0.00  0.00    +0.000 NA
ATOM     13  H   UNL     1       4.586   3.288  18.443  0.00  0.00    +0.000 HD
BRANCH   6  18
ATOM     14  C   UNL     1       1.305   9.749  19.420  0.00  0.00    +0.000 A 
ATOM     15  C   UNL     1       0.638   9.828  20.650  0.00  0.00    +0.000 A 
ATOM     16  C   UNL     1       0.654   8.734  21.515  0.00  0.00    +0.000 A 
ATOM     17  C   UNL     1       1.330   7.567  21.154  0.00  0.00    +0.000 A 
ATOM     18  C   UNL     1       1.981   7.481  19.914  0.00  0.00    +0.000 A 
ATOM     19  C   UNL     1       1.975   8.580  19.046  0.00  0.00    +0.000 A 
BRANCH  14  21
ATOM     20  O   UNL     1       2.336  11.122  17.865  0.00  0.00    +0.000 OA
ATOM     21  N   UNL     1       1.303  10.904  18.514  0.00  0.00    +0.000 N 
ATOM     22  O   UNL     1       0.278  11.593  18.454  0.00  0.00    +0.000 OA
ENDBRANCH  14  21
ENDBRANCH   6  18
ENDBRANCH   1   8
BRANCH   5  23
ATOM     23  C   UNL     1       6.974   6.684  17.273  0.00  0.00    +0.000 A 
ATOM     24  C   UNL     1       7.682   6.237  18.401  0.00  0.00    +0.000 A 
ATOM     25  C   UNL     1       8.464   7.115  19.152  0.00  0.00    +0.000 A 
ATOM     26  C   UNL     1       8.521   8.452  18.791  0.00  0.00    +0.000 A 
ATOM     27  F   UNL     1       9.276   9.296  19.507  0.00  0.00    +0.000 F 
ATOM     28  C   UNL     1       7.807   8.929  17.697  0.00  0.00    +0.000 A 
ATOM     29  C   UNL     1       7.033   8.046  16.938  0.00  0.00    +0.000 A 
ENDBRANCH   5  23
BRANCH   3  30
ATOM     30  C   UNL     1       5.802   3.907  13.481  0.00  0.00    +0.000 A 
ATOM     31  C   UNL     1       7.057   3.748  12.870  0.00  0.00    +0.000 A 
ATOM     32  C   UNL     1       7.150   3.163  11.608  0.00  0.00    +0.000 A 
ATOM     33  C   UNL     1       6.000   2.741  10.944  0.00  0.00    +0.000 A 
ATOM     34  C   UNL     1       4.752   2.891  11.548  0.00  0.00    +0.000 A 
ATOM     35  C   UNL     1       4.649   3.468  12.816  0.00  0.00    +0.000 A 
ENDBRANCH   3  30
TORSDOF 5
ENDMDL
MODEL 6
REMARK VINA RESULT:      -8.4      3.906      8.598
REMARK  Name = 
REMARK  5 active torsions:
REMARK  status: ('A' for Active; 'I' for Inactive)
REMARK    1  A    between atoms: N_2  and  C_4
REMARK    2  A    between atoms: C_8  and  C_9
REMARK    3  A    between atoms: C_11  and  C_12
REMARK    4  A    between atoms: N_14  and  C_15
REMARK    5  A    between atoms: C_22  and  C_23
REMARK                            x       y       z     vdW  Elec       q    Type
REMARK                         _______ _______ _______ _____ _____    ______ ____
ROOT
ATOM      1  C   UNL     1       4.982   5.042  16.652  0.00  0.00    +0.000 A 
ATOM      2  C   UNL     1       4.660   4.258  15.573  0.00  0.00    +0.000 A 
ATOM      3  N   UNL     1       5.684   4.392  14.670  0.00  0.00    +0.000 N 
ATOM      4  N   UNL     1       6.676   5.185  15.156  0.00  0.00    +0.000 NA
ATOM      5  C   UNL     1       6.240   5.626  16.348  0.00  0.00    +0.000 A 
ENDROOT
BRANCH   1   8
ATOM      6  C   UNL     1       2.760   6.166  19.413  0.00  0.00    +0.000 A 
ATOM      7  C   UNL     1       3.506   6.238  18.140  0.00  0.00    +0.000 A 
ATOM      8  C   UNL     1       4.187   5.136  17.819  0.00  0.00    +0.000 A 
ATOM      9  N   UNL     1       4.149   4.045  18.640  0.00  0.00    +0.000 N 
ATOM     10  C   UNL     1       3.430   4.001  19.807  0.00  0.00    +0.000 A 
ATOM     11  S   UNL     1       3.459   2.580  20.689  0.00  0.00    +0.000 S 
ATOM     12  N   UNL     1       2.735   5.123  20.181  0.00  0.00    +0.000 NA
ATOM     13  H   UNL     1       4.663   3.207  18.393  0.00  0.00    +0.000 HD
BRANCH   6  18
ATOM     14  C   UNL     1       1.348   9.657  19.327  0.00  0.00    +0.000 A 
ATOM     15  C   UNL     1       0.680   9.740  20.556  0.00  0.00    +0.000 A 
ATOM     16  C   UNL     1       0.701   8.653  21.429  0.00  0.00    +0.000 A 
ATOM     17  C   UNL     1       1.383   7.487  21.076  0.00  0.00    +0.000 A 
ATOM     18  C   UNL     1       2.036   7.396  19.837  0.00  0.00    +0.000 A 
ATOM     19  C   UNL     1       2.024   8.488  18.961  0.00  0.00    +0.000 A 
BRANCH  14  21
ATOM     20  O   UNL     1       0.403  11.610  18.515  0.00  0.00    +0.000 OA
ATOM     21  N   UNL     1       1.340  10.806  18.413  0.00  0.00    +0.000 N 
ATOM     22  O   UNL     1       2.262  10.901  17.594  0.00  0.00    +0.000 OA
ENDBRANCH  14  21
ENDBRANCH   6  18
ENDBRANCH   1   8
BRANCH   5  23
ATOM     23  C   UNL     1       7.037   6.545  17.167  0.00  0.00    +0.000 A 
ATOM     24  C   UNL     1       7.145   7.904  16.830  0.00  0.00    +0.000 A 
ATOM     25  C   UNL     1       7.854   8.790  17.642  0.00  0.00    +0.000 A 
ATOM     26  C   UNL     1       8.480   8.312  18.783  0.00  0.00    +0.000 A 
ATOM     27  F   UNL     1       9.156   9.163  19.567  0.00  0.00    +0.000 F 
ATOM     28  C   UNL     1       8.414   6.967  19.125  0.00  0.00    +0.000 A 
ATOM     29  C   UNL     1       7.694   6.081  18.317  0.00  0.00    +0.000 A 
ENDBRANCH   5  23
BRANCH   3  30
ATOM     30  C   UNL     1       5.770   3.798  13.383  0.00  0.00    +0.000 A 
ATOM     31  C   UNL     1       4.610   3.407  12.693  0.00  0.00    +0.000 A 
ATOM     32  C   UNL     1       4.712   2.822  11.431  0.00  0.00    +0.000 A 
ATOM     33  C   UNL     1       5.962   2.616  10.853  0.00  0.00    +0.000 A 
ATOM     34  C   UNL     1       7.117   3.006  11.530  0.00  0.00    +0.000 A 
ATOM     35  C   UNL     1       7.025   3.601  12.791  0.00  0.00    +0.000 A 
ENDBRANCH   3  30
TORSDOF 5
ENDMDL
MODEL 7
REMARK VINA RESULT:      -8.3      1.026      1.083
REMARK  Name = 
REMARK  5 active torsions:
REMARK  status: ('A' for Active; 'I' for Inactive)
REMARK    1  A    between atoms: N_2  and  C_4
REMARK    2  A    between atoms: C_8  and  C_9
REMARK    3  A    between atoms: C_11  and  C_12
REMARK    4  A    between atoms: N_14  and  C_15
REMARK    5  A    between atoms: C_22  and  C_23
REMARK                            x       y       z     vdW  Elec       q    Type
REMARK                         _______ _______ _______ _____ _____    ______ ____
ROOT
ATOM      1  C   UNL     1       3.678   6.866  18.025  0.00  0.00    +0.000 A 
ATOM      2  C   UNL     1       3.193   8.094  17.654  0.00  0.00    +0.000 A 
ATOM      3  N   UNL     1       2.026   8.283  18.352  0.00  0.00    +0.000 N 
ATOM      4  N   UNL     1       1.779   7.247  19.197  0.00  0.00    +0.000 NA
ATOM      5  C   UNL     1       2.757   6.353  18.975  0.00  0.00    +0.000 A 
ENDROOT
BRANCH   1   8
ATOM      6  C   UNL     1       6.429   5.463  15.954  0.00  0.00    +0.000 A 
ATOM      7  C   UNL     1       5.110   6.053  16.260  0.00  0.00    +0.000 A 
ATOM      8  C   UNL     1       4.898   6.327  17.550  0.00  0.00    +0.000 A 
ATOM      9  N   UNL     1       5.871   6.073  18.473  0.00  0.00    +0.000 N 
ATOM     10  C   UNL     1       7.095   5.543  18.154  0.00  0.00    +0.000 A 
ATOM     11  S   UNL     1       8.195   5.317  19.395  0.00  0.00    +0.000 S 
ATOM     12  N   UNL     1       7.342   5.226  16.843  0.00  0.00    +0.000 NA
ATOM     13  H   UNL     1       5.710   6.286  19.450  0.00  0.00    +0.000 HD
BRANCH   6  18
ATOM     14  C   UNL     1       6.015   3.809  12.596  0.00  0.00    +0.000 A 
ATOM     15  C   UNL     1       7.085   4.342  11.865  0.00  0.00    +0.000 A 
ATOM     16  C   UNL     1       7.959   5.239  12.476  0.00  0.00    +0.000 A 
ATOM     17  C   UNL     1       7.766   5.605  13.810  0.00  0.00    +0.000 A 
ATOM     18  C   UNL     1       6.683   5.087  14.536  0.00  0.00    +0.000 A 
ATOM     19  C   UNL     1       5.807   4.179  13.928  0.00  0.00    +0.000 A 
BRANCH  14  21
ATOM     20  O   UNL     1       3.924   3.205  11.801  0.00  0.00    +0.000 OA
ATOM     21  N   UNL     1       5.101   2.852  11.960  0.00  0.00    +0.000 N 
ATOM     22  O   UNL     1       5.554   1.751  11.625  0.00  0.00    +0.000 OA
ENDBRANCH  14  21
ENDBRANCH   6  18
ENDBRANCH   1   8
BRANCH   5  23
ATOM     23  C   UNL     1       2.806   5.074  19.690  0.00  0.00    +0.000 A 
ATOM     24  C   UNL     1       3.591   4.010  19.216  0.00  0.00    +0.000 A 
ATOM     25  C   UNL     1       3.684   2.814  19.929  0.00  0.00    +0.000 A 
ATOM     26  C   UNL     1       2.971   2.670  21.109  0.00  0.00    +0.000 A 
ATOM     27  F   UNL     1       3.064   1.524  21.798  0.00  0.00    +0.000 F 
ATOM     28  C   UNL     1       2.163   3.694  21.587  0.00  0.00    +0.000 A 
ATOM     29  C   UNL     1       2.079   4.897  20.878  0.00  0.00    +0.000 A 
ENDBRANCH   5  23
BRANCH   3  30
ATOM     30  C   UNL     1       1.149   9.396  18.262  0.00  0.00    +0.000 A 
ATOM     31  C   UNL     1       1.544  10.661  18.728  0.00  0.00    +0.000 A 
ATOM     32  C   UNL     1       0.670  11.744  18.635  0.00  0.00    +0.000 A 
ATOM     33  C   UNL     1      -0.600  11.575  18.088  0.00  0.00    +0.000 A 
ATOM     34  C   UNL     1      -0.996  10.323  17.619  0.00  0.00    +0.000 A 
ATOM     35  C   UNL     1      -0.125   9.234  17.699  0.00  0.00    +0.000 A 
ENDBRANCH   3  30
TORSDOF 5
ENDMDL
MODEL 8
REMARK VINA RESULT:      -8.2      6.649     11.559
REMARK  Name = 
REMARK  5 active torsions:
REMARK  status: ('A' for Active; 'I' for Inactive)
REMARK    1  A    between atoms: N_2  and  C_4
REMARK    2  A    between atoms: C_8  and  C_9
REMARK    3  A    between atoms: C_11  and  C_12
REMARK    4  A    between atoms: N_14  and  C_15
REMARK    5  A    between atoms: C_22  and  C_23
REMARK                            x       y       z     vdW  Elec       q    Type
REMARK                         _______ _______ _______ _____ _____    ______ ____
ROOT
ATOM      1  C   UNL     1      -0.368   9.900  18.618  0.00  0.00    +0.000 A 
ATOM      2  C   UNL     1       0.369   8.920  18.004  0.00  0.00    +0.000 A 
ATOM      3  N   UNL     1       1.426   8.644  18.836  0.00  0.00    +0.000 N 
ATOM      4  N   UNL     1       1.357   9.370  19.984  0.00  0.00    +0.000 NA
ATOM      5  C   UNL     1       0.290  10.174  19.845  0.00  0.00    +0.000 A 
ENDROOT
BRANCH   1   8
ATOM      6  C   UNL     1      -3.656  11.561  18.109  0.00  0.00    +0.000 A 
ATOM      7  C   UNL     1      -2.440  11.121  18.823  0.00  0.00    +0.000 A 
ATOM      8  C   UNL     1      -1.570  10.426  18.086  0.00  0.00    +0.000 A 
ATOM      9  N   UNL     1      -1.832  10.181  16.769  0.00  0.00    +0.000 N 
ATOM     10  C   UNL     1      -2.962  10.621  16.128  0.00  0.00    +0.000 A 
ATOM     11  S   UNL     1      -3.124  10.266  14.501  0.00  0.00    +0.000 S 
ATOM     12  N   UNL     1      -3.890  11.319  16.857  0.00  0.00    +0.000 NA
ATOM     13  H   UNL     1      -1.169   9.657  16.210  0.00  0.00    +0.000 HD
BRANCH   6  18
ATOM     14  C   UNL     1      -5.351  13.204  21.043  0.00  0.00    +0.000 A 
ATOM     15  C   UNL     1      -6.549  13.663  20.479  0.00  0.00    +0.000 A 
ATOM     16  C   UNL     1      -6.814  13.422  19.132  0.00  0.00    +0.000 A 
ATOM     17  C   UNL     1      -5.888  12.730  18.350  0.00  0.00    +0.000 A 
ATOM     18  C   UNL     1      -4.679  12.287  18.909  0.00  0.00    +0.000 A 
ATOM     19  C   UNL     1      -4.412  12.520  20.264  0.00  0.00    +0.000 A 
BRANCH  14  21
ATOM     20  O   UNL     1      -4.793  12.459  23.165  0.00  0.00    +0.000 OA
ATOM     21  N   UNL     1      -5.076  13.442  22.465  0.00  0.00    +0.000 N 
ATOM     22  O   UNL     1      -5.146  14.604  22.883  0.00  0.00    +0.000 OA
ENDBRANCH  14  21
ENDBRANCH   6  18
ENDBRANCH   1   8
BRANCH   5  23
ATOM     23  C   UNL     1      -0.087  11.138  20.883  0.00  0.00    +0.000 A 
ATOM     24  C   UNL     1       0.268  12.493  20.775  0.00  0.00    +0.000 A 
ATOM     25  C   UNL     1      -0.142  13.421  21.733  0.00  0.00    +0.000 A 
ATOM     26  C   UNL     1      -0.890  12.990  22.818  0.00  0.00    +0.000 A 
ATOM     27  F   UNL     1      -1.289  13.881  23.737  0.00  0.00    +0.000 F 
ATOM     28  C   UNL     1      -1.230  11.651  22.967  0.00  0.00    +0.000 A 
ATOM     29  C   UNL     1      -0.828  10.723  22.000  0.00  0.00    +0.000 A 
ENDBRANCH   5  23
BRANCH   3  30
ATOM     30  C   UNL     1       2.481   7.724  18.599  0.00  0.00    +0.000 A 
ATOM     31  C   UNL     1       2.688   6.631  19.459  0.00  0.00    +0.000 A 
ATOM     32  C   UNL     1       3.730   5.738  19.213  0.00  0.00    +0.000 A 
ATOM     33  C   UNL     1       4.575   5.928  18.122  0.00  0.00    +0.000 A 
ATOM     34  C   UNL     1       4.371   7.007  17.263  0.00  0.00    +0.000 A 
ATOM     35  C   UNL     1       3.325   7.903  17.494  0.00  0.00    +0.000 A 
ENDBRANCH   3  30
TORSDOF 5
ENDMDL
MODEL 9
REMARK VINA RESULT:      -8.1      5.198      7.822
REMARK  Name = 
REMARK  5 active torsions:
REMARK  status: ('A' for Active; 'I' for Inactive)
REMARK    1  A    between atoms: N_2  and  C_4
REMARK    2  A    between atoms: C_8  and  C_9
REMARK    3  A    between atoms: C_11  and  C_12
REMARK    4  A    between atoms: N_14  and  C_15
REMARK    5  A    between atoms: C_22  and  C_23
REMARK                            x       y       z     vdW  Elec       q    Type
REMARK                         _______ _______ _______ _____ _____    ______ ____
ROOT
ATOM      1  C   UNL     1       0.768  11.673  19.373  0.00  0.00    +0.000 A 
ATOM      2  C   UNL     1       1.773  12.603  19.302  0.00  0.00    +0.000 A 
ATOM      3  N   UNL     1       1.272  13.669  18.596  0.00  0.00    +0.000 N 
ATOM      4  N   UNL     1      -0.033  13.478  18.266  0.00  0.00    +0.000 NA
ATOM      5  C   UNL     1      -0.341  12.243  18.695  0.00  0.00    +0.000 A 
ENDROOT
BRANCH   1   8
ATOM      6  C   UNL     1       1.436   8.153  20.369  0.00  0.00    +0.000 A 
ATOM      7  C   UNL     1       1.431   9.356  19.512  0.00  0.00    +0.000 A 
ATOM      8  C   UNL     1       0.885  10.443  20.063  0.00  0.00    +0.000 A 
ATOM      9  N   UNL     1       0.395  10.391  21.337  0.00  0.00    +0.000 N 
ATOM     10  C   UNL     1       0.432   9.263  22.116  0.00  0.00    +0.000 A 
ATOM     11  S   UNL     1      -0.182   9.367  23.669  0.00  0.00    +0.000 S 
ATOM     12  N   UNL     1       0.965   8.120  21.576  0.00  0.00    +0.000 NA
ATOM     13  H   UNL     1      -0.016  11.217  21.756  0.00  0.00    +0.000 HD
BRANCH   6  18
ATOM     14  C   UNL     1       2.345   4.522  19.956  0.00  0.00    +0.000 A 
ATOM     15  C   UNL     1       2.967   4.509  18.701  0.00  0.00    +0.000 A 
ATOM     16  C   UNL     1       3.105   5.699  17.987  0.00  0.00    +0.000 A 
ATOM     17  C   UNL     1       2.622   6.895  18.521  0.00  0.00    +0.000 A 
ATOM     18  C   UNL     1       1.981   6.904  19.770  0.00  0.00    +0.000 A 
ATOM     19  C   UNL     1       1.848   5.713  20.494  0.00  0.00    +0.000 A 
BRANCH  14  21
ATOM     20  O   UNL     1       2.270   3.349  21.953  0.00  0.00    +0.000 OA
ATOM     21  N   UNL     1       2.212   3.273  20.718  0.00  0.00    +0.000 N 
ATOM     22  O   UNL     1       2.056   2.222  20.085  0.00  0.00    +0.000 OA
ENDBRANCH  14  21
ENDBRANCH   6  18
ENDBRANCH   1   8
BRANCH   5  23
ATOM     23  C   UNL     1      -1.672  11.666  18.483  0.00  0.00    +0.000 A 
ATOM     24  C   UNL     1      -2.805  12.213  19.110  0.00  0.00    +0.000 A 
ATOM     25  C   UNL     1      -4.079  11.701  18.862  0.00  0.00    +0.000 A 
ATOM     26  C   UNL     1      -4.222  10.622  18.003  0.00  0.00    +0.000 A 
ATOM     27  F   UNL     1      -5.445  10.133  17.759  0.00  0.00    +0.000 F 
ATOM     28  C   UNL     1      -3.116  10.042  17.392  0.00  0.00    +0.000 A 
ATOM     29  C   UNL     1      -1.840  10.563  17.632  0.00  0.00    +0.000 A 
ENDBRANCH   5  23
BRANCH   3  30
ATOM     30  C   UNL     1       1.966  14.855  18.235  0.00  0.00    +0.000 A 
ATOM     31  C   UNL     1       3.292  14.800  17.774  0.00  0.00    +0.000 A 
ATOM     32  C   UNL     1       3.960  15.974  17.426  0.00  0.00    +0.000 A 
ATOM     33  C   UNL     1       3.319  17.205  17.542  0.00  0.00    +0.000 A 
ATOM     34  C   UNL     1       2.001  17.266  17.993  0.00  0.00    +0.000 A 
ATOM     35  C   UNL     1       1.320  16.095  18.336  0.00  0.00    +0.000 A 
ENDBRANCH   3  30
TORSDOF 5
ENDMDL
