MODEL 1
REMARK VINA RESULT:      -5.5      0.000      0.000
REMARK  Name = 
REMARK  13 active torsions:
REMARK  status: ('A' for Active; 'I' for Inactive)
REMARK    1  A    between atoms: C_1  and  C_2
REMARK    2  A    between atoms: C_2  and  C_3
REMARK    3  A    between atoms: C_3  and  C_4
REMARK    4  A    between atoms: C_4  and  C_5
REMARK    5  A    between atoms: C_4  and  C_7
REMARK    6  A    between atoms: C_5  and  S_6
REMARK    7  A    between atoms: N_9  and  C_10
REMARK    8  A    between atoms: C_10  and  C_11
REMARK    9  A    between atoms: C_10  and  C_15
REMARK   10  A    between atoms: C_11  and  S_12
REMARK   11  A    between atoms: S_12  and  C_13
REMARK   12  A    between atoms: C_13  and  C_14
REMARK   13  A    between atoms: C_15  and  O_17
REMARK                            x       y       z     vdW  Elec       q    Type
REMARK                         _______ _______ _______ _____ _____    ______ ____
ROOT
ATOM      1  C   UNK A   0       5.405   4.423  18.032  0.00  0.00    +0.000 C 
ATOM      2  O   UNK A   0       5.666   3.977  19.149  0.00  0.00    +0.000 OA
ATOM      3  N   UNK A   1       4.154   4.955  17.774  0.00  0.00    +0.000 N 
ATOM      4  H   UNK A   1       3.901   5.139  16.813  0.00  0.00    +0.000 HD
ENDROOT
BRANCH   1   5
ATOM      5  C   UNK A   0       6.433   4.492  16.897  0.00  0.00    +0.000 C 
BRANCH   5   6
ATOM      6  C   UNK A   0       5.902   3.824  15.595  0.00  0.00    +0.000 C 
BRANCH   6   8
ATOM      7  C   UNK A   0       6.105   3.640  13.062  0.00  0.00    +0.000 C 
ATOM      8  C   UNK A   0       6.413   4.473  14.299  0.00  0.00    +0.000 C 
ENDBRANCH   6   8
ENDBRANCH   5   6
BRANCH   5   9
ATOM      9  C   UNK A   0       6.907   5.940  16.684  0.00  0.00    +0.000 C 
BRANCH   9  10
ATOM     10  S   UNK A   0       7.661   6.726  18.150  0.00  0.00    +0.000 S 
ATOM     11  H   UNK A   0       6.718   7.655  18.375  0.00  0.00    +0.000 HD
ENDBRANCH   9  10
ENDBRANCH   5   9
ENDBRANCH   1   5
BRANCH   3  12
ATOM     12  C   UNK A   1       3.010   4.831  18.713  0.00  0.00    +0.000 C 
BRANCH  12  13
ATOM     13  C   UNK A   1       2.611   6.182  19.339  0.00  0.00    +0.000 C 
ATOM     14  O   UNK A   1       2.477   7.221  18.714  0.00  0.00    +0.000 OA
BRANCH  13  15
ATOM     15  O   UNK A   1       2.305   6.123  20.660  0.00  0.00    +0.000 OA
ATOM     16  H   UNK A   1       2.757   5.387  21.134  0.00  0.00    +0.000 HD
ENDBRANCH  13  15
ENDBRANCH  12  13
BRANCH  12  17
ATOM     17  C   UNK A   1       1.755   4.252  18.025  0.00  0.00    +0.000 C 
BRANCH  17  18
ATOM     18  S   UNK A   1       1.102   2.713  18.793  0.00  0.00    +0.000 S 
BRANCH  18  19
ATOM     19  C   UNK A   1       2.246   2.602  20.203  0.00  0.00    +0.000 C 
ATOM     20  C   UNK A   1       1.531   2.700  21.538  0.00  0.00    +0.000 C 
ENDBRANCH  18  19
ENDBRANCH  17  18
ENDBRANCH  12  17
ENDBRANCH   3  12
TORSDOF 11
ENDMDL
MODEL 2
REMARK VINA RESULT:      -5.4      0.931      1.137
REMARK  Name = 
REMARK  13 active torsions:
REMARK  status: ('A' for Active; 'I' for Inactive)
REMARK    1  A    between atoms: C_1  and  C_2
REMARK    2  A    between atoms: C_2  and  C_3
REMARK    3  A    between atoms: C_3  and  C_4
REMARK    4  A    between atoms: C_4  and  C_5
REMARK    5  A    between atoms: C_4  and  C_7
REMARK    6  A    between atoms: C_5  and  S_6
REMARK    7  A    between atoms: N_9  and  C_10
REMARK    8  A    between atoms: C_10  and  C_11
REMARK    9  A    between atoms: C_10  and  C_15
REMARK   10  A    between atoms: C_11  and  S_12
REMARK   11  A    between atoms: S_12  and  C_13
REMARK   12  A    between atoms: C_13  and  C_14
REMARK   13  A    between atoms: C_15  and  O_17
REMARK                            x       y       z     vdW  Elec       q    Type
REMARK                         _______ _______ _______ _____ _____    ______ ____
ROOT
ATOM      1  C   UNK A   0       5.770   4.764  18.654  0.00  0.00    +0.000 C 
ATOM      2  O   UNK A   0       5.645   3.760  19.356  0.00  0.00    +0.000 OA
ATOM      3  N   UNK A   1       4.715   5.651  18.522  0.00  0.00    +0.000 N 
ATOM      4  H   UNK A   1       4.772   6.357  17.801  0.00  0.00    +0.000 HD
ENDROOT
BRANCH   1   5
ATOM      5  C   UNK A   0       7.081   5.137  17.953  0.00  0.00    +0.000 C 
BRANCH   5   6
ATOM      6  C   UNK A   0       6.887   5.306  16.417  0.00  0.00    +0.000 C 
BRANCH   6   8
ATOM      7  C   UNK A   0       5.584   4.371  14.438  0.00  0.00    +0.000 C 
ATOM      8  C   UNK A   0       6.365   4.048  15.705  0.00  0.00    +0.000 C 
ENDBRANCH   6   8
ENDBRANCH   5   6
BRANCH   5   9
ATOM      9  C   UNK A   0       7.718   6.368  18.621  0.00  0.00    +0.000 C 
BRANCH   9  10
ATOM     10  S   UNK A   0       7.687   7.892  17.614  0.00  0.00    +0.000 S 
ATOM     11  H   UNK A   0       6.401   8.224  17.811  0.00  0.00    +0.000 HD
ENDBRANCH   9  10
ENDBRANCH   5   9
ENDBRANCH   1   5
BRANCH   3  12
ATOM     12  C   UNK A   1       3.345   5.361  19.012  0.00  0.00    +0.000 C 
BRANCH  12  13
ATOM     13  C   UNK A   1       2.614   6.626  19.505  0.00  0.00    +0.000 C 
ATOM     14  O   UNK A   1       2.420   7.620  18.827  0.00  0.00    +0.000 OA
BRANCH  13  15
ATOM     15  O   UNK A   1       2.091   6.524  20.754  0.00  0.00    +0.000 OA
ATOM     16  H   UNK A   1       1.862   7.395  21.155  0.00  0.00    +0.000 HD
ENDBRANCH  13  15
ENDBRANCH  12  13
BRANCH  12  17
ATOM     17  C   UNK A   1       2.463   4.714  17.923  0.00  0.00    +0.000 C 
BRANCH  17  18
ATOM     18  S   UNK A   1       1.736   3.089  18.390  0.00  0.00    +0.000 S 
BRANCH  18  19
ATOM     19  C   UNK A   1       2.402   2.966  20.079  0.00  0.00    +0.000 C 
ATOM     20  C   UNK A   1       1.310   2.966  21.133  0.00  0.00    +0.000 C 
ENDBRANCH  18  19
ENDBRANCH  17  18
ENDBRANCH  12  17
ENDBRANCH   3  12
TORSDOF 11
ENDMDL
MODEL 3
REMARK VINA RESULT:      -5.3      2.052      2.747
REMARK  Name = 
REMARK  13 active torsions:
REMARK  status: ('A' for Active; 'I' for Inactive)
REMARK    1  A    between atoms: C_1  and  C_2
REMARK    2  A    between atoms: C_2  and  C_3
REMARK    3  A    between atoms: C_3  and  C_4
REMARK    4  A    between atoms: C_4  and  C_5
REMARK    5  A    between atoms: C_4  and  C_7
REMARK    6  A    between atoms: C_5  and  S_6
REMARK    7  A    between atoms: N_9  and  C_10
REMARK    8  A    between atoms: C_10  and  C_11
REMARK    9  A    between atoms: C_10  and  C_15
REMARK   10  A    between atoms: C_11  and  S_12
REMARK   11  A    between atoms: S_12  and  C_13
REMARK   12  A    between atoms: C_13  and  C_14
REMARK   13  A    between atoms: C_15  and  O_17
REMARK                            x       y       z     vdW  Elec       q    Type
REMARK                         _______ _______ _______ _____ _____    ______ ____
ROOT
ATOM      1  C   UNK A   0       5.374   4.816  16.938  0.00  0.00    +0.000 C 
ATOM      2  O   UNK A   0       4.370   5.455  16.625  0.00  0.00    +0.000 OA
ATOM      3  N   UNK A   1       5.268   3.737  17.798  0.00  0.00    +0.000 N 
ATOM      4  H   UNK A   1       6.118   3.350  18.187  0.00  0.00    +0.000 HD
ENDROOT
BRANCH   1   5
ATOM      5  C   UNK A   0       6.764   5.107  16.360  0.00  0.00    +0.000 C 
BRANCH   5   6
ATOM      6  C   UNK A   0       6.759   5.084  14.803  0.00  0.00    +0.000 C 
BRANCH   6   8
ATOM      7  C   UNK A   0       6.365   3.704  12.698  0.00  0.00    +0.000 C 
ATOM      8  C   UNK A   0       6.103   3.835  14.193  0.00  0.00    +0.000 C 
ENDBRANCH   6   8
ENDBRANCH   5   6
BRANCH   5   9
ATOM      9  C   UNK A   0       7.328   6.414  16.944  0.00  0.00    +0.000 C 
BRANCH   9  10
ATOM     10  S   UNK A   0       7.799   6.329  18.707  0.00  0.00    +0.000 S 
ATOM     11  H   UNK A   0       7.514   5.034  18.918  0.00  0.00    +0.000 HD
ENDBRANCH   9  10
ENDBRANCH   5   9
ENDBRANCH   1   5
BRANCH   3  12
ATOM     12  C   UNK A   1       4.030   3.420  18.553  0.00  0.00    +0.000 C 
BRANCH  12  13
ATOM     13  C   UNK A   1       4.001   1.962  19.054  0.00  0.00    +0.000 C 
ATOM     14  O   UNK A   1       3.234   1.106  18.646  0.00  0.00    +0.000 OA
BRANCH  13  15
ATOM     15  O   UNK A   1       4.984   1.650  19.936  0.00  0.00    +0.000 OA
ATOM     16  H   UNK A   1       5.836   2.109  19.753  0.00  0.00    +0.000 HD
ENDBRANCH  13  15
ENDBRANCH  12  13
BRANCH  12  17
ATOM     17  C   UNK A   1       3.848   4.334  19.783  0.00  0.00    +0.000 C 
BRANCH  17  18
ATOM     18  S   UNK A   1       2.285   5.306  19.792  0.00  0.00    +0.000 S 
BRANCH  18  19
ATOM     19  C   UNK A   1       1.140   3.979  20.279  0.00  0.00    +0.000 C 
ATOM     20  C   UNK A   1       1.634   3.202  21.486  0.00  0.00    +0.000 C 
ENDBRANCH  18  19
ENDBRANCH  17  18
ENDBRANCH  12  17
ENDBRANCH   3  12
TORSDOF 11
ENDMDL
MODEL 4
REMARK VINA RESULT:      -5.3      2.076      6.168
REMARK  Name = 
REMARK  13 active torsions:
REMARK  status: ('A' for Active; 'I' for Inactive)
REMARK    1  A    between atoms: C_1  and  C_2
REMARK    2  A    between atoms: C_2  and  C_3
REMARK    3  A    between atoms: C_3  and  C_4
REMARK    4  A    between atoms: C_4  and  C_5
REMARK    5  A    between atoms: C_4  and  C_7
REMARK    6  A    between atoms: C_5  and  S_6
REMARK    7  A    between atoms: N_9  and  C_10
REMARK    8  A    between atoms: C_10  and  C_11
REMARK    9  A    between atoms: C_10  and  C_15
REMARK   10  A    between atoms: C_11  and  S_12
REMARK   11  A    between atoms: S_12  and  C_13
REMARK   12  A    between atoms: C_13  and  C_14
REMARK   13  A    between atoms: C_15  and  O_17
REMARK                            x       y       z     vdW  Elec       q    Type
REMARK                         _______ _______ _______ _____ _____    ______ ____
ROOT
ATOM      1  C   UNK A   0       4.263   5.279  18.972  0.00  0.00    +0.000 C 
ATOM      2  O   UNK A   0       3.841   6.420  18.782  0.00  0.00    +0.000 OA
ATOM      3  N   UNK A   1       5.580   4.971  18.676  0.00  0.00    +0.000 N 
ATOM      4  H   UNK A   1       5.851   3.996  18.660  0.00  0.00    +0.000 HD
ENDROOT
BRANCH   1   5
ATOM      5  C   UNK A   0       3.416   4.167  19.599  0.00  0.00    +0.000 C 
BRANCH   5   6
ATOM      6  C   UNK A   0       2.338   4.738  20.567  0.00  0.00    +0.000 C 
BRANCH   6   8
ATOM      7  C   UNK A   0       1.541   2.621  21.739  0.00  0.00    +0.000 C 
ATOM      8  C   UNK A   0       1.162   3.786  20.835  0.00  0.00    +0.000 C 
ENDBRANCH   6   8
ENDBRANCH   5   6
BRANCH   5   9
ATOM      9  C   UNK A   0       2.826   3.257  18.507  0.00  0.00    +0.000 C 
BRANCH   9  10
ATOM     10  S   UNK A   0       3.549   1.581  18.430  0.00  0.00    +0.000 S 
ATOM     11  H   UNK A   0       2.586   0.927  19.100  0.00  0.00    +0.000 HD
ENDBRANCH   9  10
ENDBRANCH   5   9
ENDBRANCH   1   5
BRANCH   3  12
ATOM     12  C   UNK A   1       6.481   5.887  17.933  0.00  0.00    +0.000 C 
BRANCH  12  13
ATOM     13  C   UNK A   1       7.711   6.307  18.762  0.00  0.00    +0.000 C 
ATOM     14  O   UNK A   1       8.330   7.345  18.603  0.00  0.00    +0.000 OA
BRANCH  13  15
ATOM     15  O   UNK A   1       8.015   5.468  19.785  0.00  0.00    +0.000 OA
ATOM     16  H   UNK A   1       7.381   5.522  20.538  0.00  0.00    +0.000 HD
ENDBRANCH  13  15
ENDBRANCH  12  13
BRANCH  12  17
ATOM     17  C   UNK A   1       7.001   5.254  16.625  0.00  0.00    +0.000 C 
BRANCH  17  18
ATOM     18  S   UNK A   1       5.709   4.963  15.347  0.00  0.00    +0.000 S 
BRANCH  18  19
ATOM     19  C   UNK A   1       6.797   4.683  13.916  0.00  0.00    +0.000 C 
ATOM     20  C   UNK A   1       6.225   3.666  12.945  0.00  0.00    +0.000 C 
ENDBRANCH  18  19
ENDBRANCH  17  18
ENDBRANCH  12  17
ENDBRANCH   3  12
TORSDOF 11
ENDMDL
MODEL 5
REMARK VINA RESULT:      -5.3      2.014      5.609
REMARK  Name = 
REMARK  13 active torsions:
REMARK  status: ('A' for Active; 'I' for Inactive)
REMARK    1  A    between atoms: C_1  and  C_2
REMARK    2  A    between atoms: C_2  and  C_3
REMARK    3  A    between atoms: C_3  and  C_4
REMARK    4  A    between atoms: C_4  and  C_5
REMARK    5  A    between atoms: C_4  and  C_7
REMARK    6  A    between atoms: C_5  and  S_6
REMARK    7  A    between atoms: N_9  and  C_10
REMARK    8  A    between atoms: C_10  and  C_11
REMARK    9  A    between atoms: C_10  and  C_15
REMARK   10  A    between atoms: C_11  and  S_12
REMARK   11  A    between atoms: S_12  and  C_13
REMARK   12  A    between atoms: C_13  and  C_14
REMARK   13  A    between atoms: C_15  and  O_17
REMARK                            x       y       z     vdW  Elec       q    Type
REMARK                         _______ _______ _______ _____ _____    ______ ____
ROOT
ATOM      1  C   UNK A   0       3.557   5.711  18.556  0.00  0.00    +0.000 C 
ATOM      2  O   UNK A   0       3.438   6.649  17.767  0.00  0.00    +0.000 OA
ATOM      3  N   UNK A   1       4.815   5.221  18.863  0.00  0.00    +0.000 N 
ATOM      4  H   UNK A   1       4.877   4.342  19.358  0.00  0.00    +0.000 HD
ENDROOT
BRANCH   1   5
ATOM      5  C   UNK A   0       2.370   5.083  19.294  0.00  0.00    +0.000 C 
BRANCH   5   6
ATOM      6  C   UNK A   0       1.541   4.148  18.364  0.00  0.00    +0.000 C 
BRANCH   6   8
ATOM      7  C   UNK A   0       2.904   2.052  17.880  0.00  0.00    +0.000 C 
ATOM      8  C   UNK A   0       2.381   3.374  17.336  0.00  0.00    +0.000 C 
ENDBRANCH   6   8
ENDBRANCH   5   6
BRANCH   5   9
ATOM      9  C   UNK A   0       2.841   4.389  20.584  0.00  0.00    +0.000 C 
BRANCH   9  10
ATOM     10  S   UNK A   0       1.668   3.171  21.274  0.00  0.00    +0.000 S 
ATOM     11  H   UNK A   0       1.521   3.717  22.492  0.00  0.00    +0.000 HD
ENDBRANCH   9  10
ENDBRANCH   5   9
ENDBRANCH   1   5
BRANCH   3  12
ATOM     12  C   UNK A   1       6.042   5.619  18.130  0.00  0.00    +0.000 C 
BRANCH  12  13
ATOM     13  C   UNK A   1       7.230   5.895  19.073  0.00  0.00    +0.000 C 
ATOM     14  O   UNK A   1       7.445   5.288  20.109  0.00  0.00    +0.000 OA
BRANCH  13  15
ATOM     15  O   UNK A   1       8.112   6.818  18.614  0.00  0.00    +0.000 OA
ATOM     16  H   UNK A   1       8.402   7.461  19.302  0.00  0.00    +0.000 HD
ENDBRANCH  13  15
ENDBRANCH  12  13
BRANCH  12  17
ATOM     17  C   UNK A   1       6.493   4.539  17.124  0.00  0.00    +0.000 C 
BRANCH  17  18
ATOM     18  S   UNK A   1       5.430   4.393  15.629  0.00  0.00    +0.000 S 
BRANCH  18  19
ATOM     19  C   UNK A   1       6.726   4.517  14.357  0.00  0.00    +0.000 C 
ATOM     20  C   UNK A   1       6.354   3.790  13.079  0.00  0.00    +0.000 C 
ENDBRANCH  18  19
ENDBRANCH  17  18
ENDBRANCH  12  17
ENDBRANCH   3  12
TORSDOF 11
ENDMDL
MODEL 6
REMARK VINA RESULT:      -5.2      2.890      3.806
REMARK  Name = 
REMARK  13 active torsions:
REMARK  status: ('A' for Active; 'I' for Inactive)
REMARK    1  A    between atoms: C_1  and  C_2
REMARK    2  A    between atoms: C_2  and  C_3
REMARK    3  A    between atoms: C_3  and  C_4
REMARK    4  A    between atoms: C_4  and  C_5
REMARK    5  A    between atoms: C_4  and  C_7
REMARK    6  A    between atoms: C_5  and  S_6
REMARK    7  A    between atoms: N_9  and  C_10
REMARK    8  A    between atoms: C_10  and  C_11
REMARK    9  A    between atoms: C_10  and  C_15
REMARK   10  A    between atoms: C_11  and  S_12
REMARK   11  A    between atoms: S_12  and  C_13
REMARK   12  A    between atoms: C_13  and  C_14
REMARK   13  A    between atoms: C_15  and  O_17
REMARK                            x       y       z     vdW  Elec       q    Type
REMARK                         _______ _______ _______ _____ _____    ______ ____
ROOT
ATOM      1  C   UNK A   0       4.885   4.773  17.461  0.00  0.00    +0.000 C 
ATOM      2  O   UNK A   0       5.533   4.189  16.592  0.00  0.00    +0.000 OA
ATOM      3  N   UNK A   1       4.057   4.055  18.306  0.00  0.00    +0.000 N 
ATOM      4  H   UNK A   1       3.399   4.567  18.879  0.00  0.00    +0.000 HD
ENDROOT
BRANCH   1   5
ATOM      5  C   UNK A   0       4.998   6.280  17.716  0.00  0.00    +0.000 C 
BRANCH   5   6
ATOM      6  C   UNK A   0       6.213   6.904  16.968  0.00  0.00    +0.000 C 
BRANCH   6   8
ATOM      7  C   UNK A   0       8.049   8.442  17.837  0.00  0.00    +0.000 C 
ATOM      8  C   UNK A   0       7.484   7.028  17.823  0.00  0.00    +0.000 C 
ENDBRANCH   6   8
ENDBRANCH   5   6
BRANCH   5   9
ATOM      9  C   UNK A   0       3.666   6.983  17.398  0.00  0.00    +0.000 C 
BRANCH   9  10
ATOM     10  S   UNK A   0       2.602   7.307  18.847  0.00  0.00    +0.000 S 
ATOM     11  H   UNK A   0       3.181   6.449  19.704  0.00  0.00    +0.000 HD
ENDBRANCH   9  10
ENDBRANCH   5   9
ENDBRANCH   1   5
BRANCH   3  12
ATOM     12  C   UNK A   1       3.728   2.623  18.096  0.00  0.00    +0.000 C 
BRANCH  12  13
ATOM     13  C   UNK A   1       4.426   1.701  19.116  0.00  0.00    +0.000 C 
ATOM     14  O   UNK A   1       4.819   2.058  20.214  0.00  0.00    +0.000 OA
BRANCH  13  15
ATOM     15  O   UNK A   1       4.489   0.397  18.746  0.00  0.00    +0.000 OA
ATOM     16  H   UNK A   1       5.166   0.218  18.053  0.00  0.00    +0.000 HD
ENDBRANCH  13  15
ENDBRANCH  12  13
BRANCH  12  17
ATOM     17  C   UNK A   1       2.211   2.356  18.197  0.00  0.00    +0.000 C 
BRANCH  17  18
ATOM     18  S   UNK A   1       1.256   3.669  19.063  0.00  0.00    +0.000 S 
BRANCH  18  19
ATOM     19  C   UNK A   1       1.151   2.894  20.705  0.00  0.00    +0.000 C 
ATOM     20  C   UNK A   1       2.131   3.498  21.693  0.00  0.00    +0.000 C 
ENDBRANCH  18  19
ENDBRANCH  17  18
ENDBRANCH  12  17
ENDBRANCH   3  12
TORSDOF 11
ENDMDL
MODEL 7
REMARK VINA RESULT:      -5.2      2.550      6.002
REMARK  Name = 
REMARK  13 active torsions:
REMARK  status: ('A' for Active; 'I' for Inactive)
REMARK    1  A    between atoms: C_1  and  C_2
REMARK    2  A    between atoms: C_2  and  C_3
REMARK    3  A    between atoms: C_3  and  C_4
REMARK    4  A    between atoms: C_4  and  C_5
REMARK    5  A    between atoms: C_4  and  C_7
REMARK    6  A    between atoms: C_5  and  S_6
REMARK    7  A    between atoms: N_9  and  C_10
REMARK    8  A    between atoms: C_10  and  C_11
REMARK    9  A    between atoms: C_10  and  C_15
REMARK   10  A    between atoms: C_11  and  S_12
REMARK   11  A    between atoms: S_12  and  C_13
REMARK   12  A    between atoms: C_13  and  C_14
REMARK   13  A    between atoms: C_15  and  O_17
REMARK                            x       y       z     vdW  Elec       q    Type
REMARK                         _______ _______ _______ _____ _____    ______ ____
ROOT
ATOM      1  C   UNK A   0       4.050   4.092  17.286  0.00  0.00    +0.000 C 
ATOM      2  O   UNK A   0       4.125   2.873  17.443  0.00  0.00    +0.000 OA
ATOM      3  N   UNK A   1       5.028   4.758  16.568  0.00  0.00    +0.000 N 
ATOM      4  H   UNK A   1       5.049   5.768  16.612  0.00  0.00    +0.000 HD
ENDROOT
BRANCH   1   5
ATOM      5  C   UNK A   0       2.870   4.930  17.792  0.00  0.00    +0.000 C 
BRANCH   5   6
ATOM      6  C   UNK A   0       1.546   4.110  17.812  0.00  0.00    +0.000 C 
BRANCH   6   8
ATOM      7  C   UNK A   0       0.773   3.492  20.160  0.00  0.00    +0.000 C 
ATOM      8  C   UNK A   0       1.491   3.026  18.900  0.00  0.00    +0.000 C 
ENDBRANCH   6   8
ENDBRANCH   5   6
BRANCH   5   9
ATOM      9  C   UNK A   0       3.206   5.570  19.150  0.00  0.00    +0.000 C 
BRANCH   9  10
ATOM     10  S   UNK A   0       2.185   7.019  19.590  0.00  0.00    +0.000 S 
ATOM     11  H   UNK A   0       1.845   7.398  18.347  0.00  0.00    +0.000 HD
ENDBRANCH   9  10
ENDBRANCH   5   9
ENDBRANCH   1   5
BRANCH   3  12
ATOM     12  C   UNK A   1       6.299   4.121  16.142  0.00  0.00    +0.000 C 
BRANCH  12  13
ATOM     13  C   UNK A   1       6.649   4.425  14.672  0.00  0.00    +0.000 C 
ATOM     14  O   UNK A   1       7.268   5.407  14.298  0.00  0.00    +0.000 OA
BRANCH  13  15
ATOM     15  O   UNK A   1       6.303   3.448  13.796  0.00  0.00    +0.000 OA
ATOM     16  H   UNK A   1       5.481   2.968  14.049  0.00  0.00    +0.000 HD
ENDBRANCH  13  15
ENDBRANCH  12  13
BRANCH  12  17
ATOM     17  C   UNK A   1       7.495   4.577  17.005  0.00  0.00    +0.000 C 
BRANCH  17  18
ATOM     18  S   UNK A   1       7.033   5.314  18.627  0.00  0.00    +0.000 S 
BRANCH  18  19
ATOM     19  C   UNK A   1       8.059   6.814  18.549  0.00  0.00    +0.000 C 
ATOM     20  C   UNK A   1       7.635   7.748  17.431  0.00  0.00    +0.000 C 
ENDBRANCH  18  19
ENDBRANCH  17  18
ENDBRANCH  12  17
ENDBRANCH   3  12
TORSDOF 11
ENDMDL
MODEL 8
REMARK VINA RESULT:      -5.2      2.554      3.442
REMARK  Name = 
REMARK  13 active torsions:
REMARK  status: ('A' for Active; 'I' for Inactive)
REMARK    1  A    between atoms: C_1  and  C_2
REMARK    2  A    between atoms: C_2  and  C_3
REMARK    3  A    between atoms: C_3  and  C_4
REMARK    4  A    between atoms: C_4  and  C_5
REMARK    5  A    between atoms: C_4  and  C_7
REMARK    6  A    between atoms: C_5  and  S_6
REMARK    7  A    between atoms: N_9  and  C_10
REMARK    8  A    between atoms: C_10  and  C_11
REMARK    9  A    between atoms: C_10  and  C_15
REMARK   10  A    between atoms: C_11  and  S_12
REMARK   11  A    between atoms: S_12  and  C_13
REMARK   12  A    between atoms: C_13  and  C_14
REMARK   13  A    between atoms: C_15  and  O_17
REMARK                            x       y       z     vdW  Elec       q    Type
REMARK                         _______ _______ _______ _____ _____    ______ ____
ROOT
ATOM      1  C   UNK A   0       5.316   4.630  18.696  0.00  0.00    +0.000 C 
ATOM      2  O   UNK A   0       6.478   4.230  18.614  0.00  0.00    +0.000 OA
ATOM      3  N   UNK A   1       4.325   3.781  19.157  0.00  0.00    +0.000 N 
ATOM      4  H   UNK A   1       3.361   4.064  19.039  0.00  0.00    +0.000 HD
ENDROOT
BRANCH   1   5
ATOM      5  C   UNK A   0       4.902   6.071  18.378  0.00  0.00    +0.000 C 
BRANCH   5   6
ATOM      6  C   UNK A   0       5.738   6.666  17.206  0.00  0.00    +0.000 C 
BRANCH   6   8
ATOM      7  C   UNK A   0       5.845   5.260  15.085  0.00  0.00    +0.000 C 
ATOM      8  C   UNK A   0       5.148   6.402  15.812  0.00  0.00    +0.000 C 
ENDBRANCH   6   8
ENDBRANCH   5   6
BRANCH   5   9
ATOM      9  C   UNK A   0       3.384   6.157  18.143  0.00  0.00    +0.000 C 
BRANCH   9  10
ATOM     10  S   UNK A   0       2.457   7.065  19.428  0.00  0.00    +0.000 S 
ATOM     11  H   UNK A   0       1.215   6.783  19.003  0.00  0.00    +0.000 HD
ENDBRANCH   9  10
ENDBRANCH   5   9
ENDBRANCH   1   5
BRANCH   3  12
ATOM     12  C   UNK A   1       4.533   2.327  19.365  0.00  0.00    +0.000 C 
BRANCH  12  13
ATOM     13  C   UNK A   1       4.538   1.938  20.857  0.00  0.00    +0.000 C 
ATOM     14  O   UNK A   1       5.481   1.422  21.433  0.00  0.00    +0.000 OA
BRANCH  13  15
ATOM     15  O   UNK A   1       3.427   2.310  21.541  0.00  0.00    +0.000 OA
ATOM     16  H   UNK A   1       2.852   2.938  21.044  0.00  0.00    +0.000 HD
ENDBRANCH  13  15
ENDBRANCH  12  13
BRANCH  12  17
ATOM     17  C   UNK A   1       3.445   1.479  18.672  0.00  0.00    +0.000 C 
BRANCH  17  18
ATOM     18  S   UNK A   1       2.212   2.451  17.712  0.00  0.00    +0.000 S 
BRANCH  18  19
ATOM     19  C   UNK A   1       0.837   2.403  18.902  0.00  0.00    +0.000 C 
ATOM     20  C   UNK A   1       0.825   3.609  19.822  0.00  0.00    +0.000 C 
ENDBRANCH  18  19
ENDBRANCH  17  18
ENDBRANCH  12  17
ENDBRANCH   3  12
TORSDOF 11
ENDMDL
MODEL 9
REMARK VINA RESULT:      -5.1      0.905      1.229
REMARK  Name = 
REMARK  13 active torsions:
REMARK  status: ('A' for Active; 'I' for Inactive)
REMARK    1  A    between atoms: C_1  and  C_2
REMARK    2  A    between atoms: C_2  and  C_3
REMARK    3  A    between atoms: C_3  and  C_4
REMARK    4  A    between atoms: C_4  and  C_5
REMARK    5  A    between atoms: C_4  and  C_7
REMARK    6  A    between atoms: C_5  and  S_6
REMARK    7  A    between atoms: N_9  and  C_10
REMARK    8  A    between atoms: C_10  and  C_11
REMARK    9  A    between atoms: C_10  and  C_15
REMARK   10  A    between atoms: C_11  and  S_12
REMARK   11  A    between atoms: S_12  and  C_13
REMARK   12  A    between atoms: C_13  and  C_14
REMARK   13  A    between atoms: C_15  and  O_17
REMARK                            x       y       z     vdW  Elec       q    Type
REMARK                         _______ _______ _______ _____ _____    ______ ____
ROOT
ATOM      1  C   UNK A   0       5.331   4.686  18.463  0.00  0.00    +0.000 C 
ATOM      2  O   UNK A   0       5.243   3.818  19.331  0.00  0.00    +0.000 OA
ATOM      3  N   UNK A   1       4.319   5.619  18.312  0.00  0.00    +0.000 N 
ATOM      4  H   UNK A   1       4.322   6.197  17.482  0.00  0.00    +0.000 HD
ENDROOT
BRANCH   1   5
ATOM      5  C   UNK A   0       6.559   4.844  17.559  0.00  0.00    +0.000 C 
BRANCH   5   6
ATOM      6  C   UNK A   0       6.164   5.290  16.120  0.00  0.00    +0.000 C 
BRANCH   6   8
ATOM      7  C   UNK A   0       6.184   3.954  13.951  0.00  0.00    +0.000 C 
ATOM      8  C   UNK A   0       7.020   4.662  15.008  0.00  0.00    +0.000 C 
ENDBRANCH   6   8
ENDBRANCH   5   6
BRANCH   5   9
ATOM      9  C   UNK A   0       7.597   5.772  18.216  0.00  0.00    +0.000 C 
BRANCH   9  10
ATOM     10  S   UNK A   0       7.561   7.502  17.631  0.00  0.00    +0.000 S 
ATOM     11  H   UNK A   0       8.185   8.069  18.676  0.00  0.00    +0.000 HD
ENDBRANCH   9  10
ENDBRANCH   5   9
ENDBRANCH   1   5
BRANCH   3  12
ATOM     12  C   UNK A   1       3.010   5.515  19.002  0.00  0.00    +0.000 C 
BRANCH  12  13
ATOM     13  C   UNK A   1       2.400   6.894  19.324  0.00  0.00    +0.000 C 
ATOM     14  O   UNK A   1       1.933   7.208  20.406  0.00  0.00    +0.000 OA
BRANCH  13  15
ATOM     15  O   UNK A   1       2.510   7.806  18.325  0.00  0.00    +0.000 OA
ATOM     16  H   UNK A   1       1.848   7.681  17.605  0.00  0.00    +0.000 HD
ENDBRANCH  13  15
ENDBRANCH  12  13
BRANCH  12  17
ATOM     17  C   UNK A   1       1.972   4.736  18.166  0.00  0.00    +0.000 C 
BRANCH  17  18
ATOM     18  S   UNK A   1       1.491   3.104  18.867  0.00  0.00    +0.000 S 
BRANCH  18  19
ATOM     19  C   UNK A   1       1.063   3.645  20.551  0.00  0.00    +0.000 C 
ATOM     20  C   UNK A   1       1.665   2.748  21.617  0.00  0.00    +0.000 C 
ENDBRANCH  18  19
ENDBRANCH  17  18
ENDBRANCH  12  17
ENDBRANCH   3  12
TORSDOF 11
ENDMDL
