MODEL 1
REMARK VINA RESULT:      -8.0      0.000      0.000
REMARK  Name = 
REMARK  5 active torsions:
REMARK  status: ('A' for Active; 'I' for Inactive)
REMARK    1  A    between atoms: C_2  and  C_18
REMARK    2  A    between atoms: N_3  and  C_4
REMARK    3  A    between atoms: C_7  and  S_8
REMARK    4  A    between atoms: S_8  and  N_11
REMARK    5  A    between atoms: C_21  and  C_22
REMARK                            x       y       z     vdW  Elec       q    Type
REMARK                         _______ _______ _______ _____ _____    ______ ____
ROOT
ATOM      1  O   UNL     1       1.872   9.167  17.431  0.00  0.00    +0.000 OA
ATOM      2  C   UNL     1       1.791   8.637  18.539  0.00  0.00    +0.000 C 
ATOM      3  N   UNL     1       2.378   7.441  18.910  0.00  0.00    +0.000 N 
ATOM      4  H   UNL     1       2.180   7.080  19.833  0.00  0.00    +0.000 HD
ENDROOT
BRANCH   3   5
ATOM      5  C   UNL     1       3.232   6.655  18.109  0.00  0.00    +0.000 A 
ATOM      6  C   UNL     1       3.053   5.283  17.902  0.00  0.00    +0.000 A 
ATOM      7  C   UNL     1       3.951   4.553  17.115  0.00  0.00    +0.000 A 
ATOM      8  C   UNL     1       5.013   5.209  16.489  0.00  0.00    +0.000 A 
ATOM      9  C   UNL     1       5.194   6.581  16.678  0.00  0.00    +0.000 A 
ATOM     10  C   UNL     1       4.307   7.300  17.489  0.00  0.00    +0.000 A 
BRANCH   8  11
ATOM     11  S   UNL     1       6.276   4.270  15.641  0.00  0.00    +0.000 S 
ATOM     12  O   UNL     1       7.555   4.758  16.120  0.00  0.00    +0.000 OA
ATOM     13  O   UNL     1       5.920   2.872  15.769  0.00  0.00    +0.000 OA
BRANCH  11  14
ATOM     14  N   UNL     1       6.145   4.687  14.017  0.00  0.00    +0.000 NA
ATOM     15  C   UNL     1       5.167   4.016  13.152  0.00  0.00    +0.000 C 
ATOM     16  C   UNL     1       6.029   3.181  12.224  0.00  0.00    +0.000 C 
ATOM     17  C   UNL     1       7.266   4.039  12.006  0.00  0.00    +0.000 C 
ATOM     18  C   UNL     1       7.360   4.953  13.226  0.00  0.00    +0.000 C 
ENDBRANCH  11  14
ENDBRANCH   8  11
ENDBRANCH   3   5
BRANCH   2  19
ATOM     19  C   UNL     1       1.010   9.349  19.582  0.00  0.00    +0.000 A 
ATOM     20  C   UNL     1       0.803   8.834  20.865  0.00  0.00    +0.000 A 
ATOM     21  C   UNL     1       0.047   9.564  21.789  0.00  0.00    +0.000 A 
ATOM     22  C   UNL     1      -0.516  10.801  21.440  0.00  0.00    +0.000 A 
ATOM     23  C   UNL     1      -0.318  11.303  20.147  0.00  0.00    +0.000 A 
ATOM     24  C   UNL     1       0.437  10.579  19.226  0.00  0.00    +0.000 A 
BRANCH  22  25
ATOM     25  C   UNL     1      -1.328  11.594  22.437  0.00  0.00    +0.000 C 
ATOM     26  F   UNL     1      -1.679  10.875  23.539  0.00  0.00    +0.000 F 
ATOM     27  F   UNL     1      -0.656  12.684  22.900  0.00  0.00    +0.000 F 
ATOM     28  F   UNL     1      -2.491  12.064  21.909  0.00  0.00    +0.000 F 
ENDBRANCH  22  25
ENDBRANCH   2  19
TORSDOF 5
ENDMDL
MODEL 2
REMARK VINA RESULT:      -8.0      3.173      4.057
REMARK  Name = 
REMARK  5 active torsions:
REMARK  status: ('A' for Active; 'I' for Inactive)
REMARK    1  A    between atoms: C_2  and  C_18
REMARK    2  A    between atoms: N_3  and  C_4
REMARK    3  A    between atoms: C_7  and  S_8
REMARK    4  A    between atoms: S_8  and  N_11
REMARK    5  A    between atoms: C_21  and  C_22
REMARK                            x       y       z     vdW  Elec       q    Type
REMARK                         _______ _______ _______ _____ _____    ______ ____
ROOT
ATOM      1  O   UNL     1       1.551   8.739  22.164  0.00  0.00    +0.000 OA
ATOM      2  C   UNL     1       0.965   9.182  21.177  0.00  0.00    +0.000 C 
ATOM      3  N   UNL     1       1.185   8.801  19.865  0.00  0.00    +0.000 N 
ATOM      4  H   UNL     1       0.683   9.290  19.137  0.00  0.00    +0.000 HD
ENDROOT
BRANCH   3   5
ATOM      5  C   UNL     1       2.065   7.787  19.435  0.00  0.00    +0.000 A 
ATOM      6  C   UNL     1       2.744   7.818  18.212  0.00  0.00    +0.000 A 
ATOM      7  C   UNL     1       3.586   6.767  17.832  0.00  0.00    +0.000 A 
ATOM      8  C   UNL     1       3.790   5.694  18.703  0.00  0.00    +0.000 A 
ATOM      9  C   UNL     1       3.128   5.658  19.932  0.00  0.00    +0.000 A 
ATOM     10  C   UNL     1       2.266   6.701  20.294  0.00  0.00    +0.000 A 
BRANCH   8  11
ATOM     11  S   UNL     1       4.704   4.257  18.160  0.00  0.00    +0.000 S 
ATOM     12  O   UNL     1       5.305   4.599  16.885  0.00  0.00    +0.000 OA
ATOM     13  O   UNL     1       5.523   3.831  19.276  0.00  0.00    +0.000 OA
BRANCH  11  14
ATOM     14  N   UNL     1       3.555   3.061  17.880  0.00  0.00    +0.000 NA
ATOM     15  C   UNL     1       2.280   3.391  17.232  0.00  0.00    +0.000 C 
ATOM     16  C   UNL     1       1.264   3.230  18.347  0.00  0.00    +0.000 C 
ATOM     17  C   UNL     1       1.801   2.064  19.164  0.00  0.00    +0.000 C 
ATOM     18  C   UNL     1       3.305   2.029  18.901  0.00  0.00    +0.000 C 
ENDBRANCH  11  14
ENDBRANCH   8  11
ENDBRANCH   3   5
BRANCH   2  19
ATOM     19  C   UNL     1      -0.086  10.205  21.407  0.00  0.00    +0.000 A 
ATOM     20  C   UNL     1      -0.607  11.008  20.387  0.00  0.00    +0.000 A 
ATOM     21  C   UNL     1      -1.592  11.955  20.688  0.00  0.00    +0.000 A 
ATOM     22  C   UNL     1      -2.055  12.118  22.003  0.00  0.00    +0.000 A 
ATOM     23  C   UNL     1      -1.516  11.322  23.022  0.00  0.00    +0.000 A 
ATOM     24  C   UNL     1      -0.537  10.376  22.724  0.00  0.00    +0.000 A 
BRANCH  22  25
ATOM     25  C   UNL     1      -3.121  13.136  22.330  0.00  0.00    +0.000 C 
ATOM     26  F   UNL     1      -4.380  12.614  22.342  0.00  0.00    +0.000 F 
ATOM     27  F   UNL     1      -2.939  13.698  23.557  0.00  0.00    +0.000 F 
ATOM     28  F   UNL     1      -3.151  14.168  21.443  0.00  0.00    +0.000 F 
ENDBRANCH  22  25
ENDBRANCH   2  19
TORSDOF 5
ENDMDL
MODEL 3
REMARK VINA RESULT:      -7.9      3.216      4.046
REMARK  Name = 
REMARK  5 active torsions:
REMARK  status: ('A' for Active; 'I' for Inactive)
REMARK    1  A    between atoms: C_2  and  C_18
REMARK    2  A    between atoms: N_3  and  C_4
REMARK    3  A    between atoms: C_7  and  S_8
REMARK    4  A    between atoms: S_8  and  N_11
REMARK    5  A    between atoms: C_21  and  C_22
REMARK                            x       y       z     vdW  Elec       q    Type
REMARK                         _______ _______ _______ _____ _____    ______ ____
ROOT
ATOM      1  O   UNL     1       1.668   9.253  22.398  0.00  0.00    +0.000 OA
ATOM      2  C   UNL     1       0.858   9.482  21.499  0.00  0.00    +0.000 C 
ATOM      3  N   UNL     1       0.847   8.889  20.249  0.00  0.00    +0.000 N 
ATOM      4  H   UNL     1       0.166   9.213  19.575  0.00  0.00    +0.000 HD
ENDROOT
BRANCH   3   5
ATOM      5  C   UNL     1       1.712   7.866  19.810  0.00  0.00    +0.000 A 
ATOM      6  C   UNL     1       1.958   6.695  20.536  0.00  0.00    +0.000 A 
ATOM      7  C   UNL     1       2.847   5.728  20.057  0.00  0.00    +0.000 A 
ATOM      8  C   UNL     1       3.465   5.908  18.817  0.00  0.00    +0.000 A 
ATOM      9  C   UNL     1       3.217   7.067  18.077  0.00  0.00    +0.000 A 
ATOM     10  C   UNL     1       2.346   8.044  18.575  0.00  0.00    +0.000 A 
BRANCH   8  11
ATOM     11  S   UNL     1       4.745   4.783  18.277  0.00  0.00    +0.000 S 
ATOM     12  O   UNL     1       5.258   5.302  17.024  0.00  0.00    +0.000 OA
ATOM     13  O   UNL     1       5.625   4.571  19.408  0.00  0.00    +0.000 OA
BRANCH  11  14
ATOM     14  N   UNL     1       3.969   3.328  17.950  0.00  0.00    +0.000 NA
ATOM     15  C   UNL     1       2.735   3.304  17.156  0.00  0.00    +0.000 C 
ATOM     16  C   UNL     1       1.670   2.926  18.168  0.00  0.00    +0.000 C 
ATOM     17  C   UNL     1       2.382   1.959  19.102  0.00  0.00    +0.000 C 
ATOM     18  C   UNL     1       3.868   2.298  18.999  0.00  0.00    +0.000 C 
ENDBRANCH  11  14
ENDBRANCH   8  11
ENDBRANCH   3   5
BRANCH   2  19
ATOM     19  C   UNL     1      -0.215  10.468  21.780  0.00  0.00    +0.000 A 
ATOM     20  C   UNL     1      -0.785  10.636  23.045  0.00  0.00    +0.000 A 
ATOM     21  C   UNL     1      -1.799  11.583  23.227  0.00  0.00    +0.000 A 
ATOM     22  C   UNL     1      -2.260  12.357  22.150  0.00  0.00    +0.000 A 
ATOM     23  C   UNL     1      -1.697  12.170  20.881  0.00  0.00    +0.000 A 
ATOM     24  C   UNL     1      -0.684  11.230  20.699  0.00  0.00    +0.000 A 
BRANCH  22  25
ATOM     25  C   UNL     1      -3.352  13.383  22.343  0.00  0.00    +0.000 C 
ATOM     26  F   UNL     1      -3.299  14.402  21.440  0.00  0.00    +0.000 F 
ATOM     27  F   UNL     1      -4.596  12.842  22.222  0.00  0.00    +0.000 F 
ATOM     28  F   UNL     1      -3.312  13.967  23.571  0.00  0.00    +0.000 F 
ENDBRANCH  22  25
ENDBRANCH   2  19
TORSDOF 5
ENDMDL
MODEL 4
REMARK VINA RESULT:      -7.9      3.016      3.945
REMARK  Name = 
REMARK  5 active torsions:
REMARK  status: ('A' for Active; 'I' for Inactive)
REMARK    1  A    between atoms: C_2  and  C_18
REMARK    2  A    between atoms: N_3  and  C_4
REMARK    3  A    between atoms: C_7  and  S_8
REMARK    4  A    between atoms: S_8  and  N_11
REMARK    5  A    between atoms: C_21  and  C_22
REMARK                            x       y       z     vdW  Elec       q    Type
REMARK                         _______ _______ _______ _____ _____    ______ ____
ROOT
ATOM      1  O   UNL     1       1.514  10.472  19.197  0.00  0.00    +0.000 OA
ATOM      2  C   UNL     1       0.853   9.847  20.028  0.00  0.00    +0.000 C 
ATOM      3  N   UNL     1       0.965   8.496  20.301  0.00  0.00    +0.000 N 
ATOM      4  H   UNL     1       0.317   8.089  20.962  0.00  0.00    +0.000 HD
ENDROOT
BRANCH   3   5
ATOM      5  C   UNL     1       1.904   7.611  19.732  0.00  0.00    +0.000 A 
ATOM      6  C   UNL     1       2.447   7.776  18.453  0.00  0.00    +0.000 A 
ATOM      7  C   UNL     1       3.358   6.849  17.935  0.00  0.00    +0.000 A 
ATOM      8  C   UNL     1       3.768   5.769  18.721  0.00  0.00    +0.000 A 
ATOM      9  C   UNL     1       3.243   5.601  20.004  0.00  0.00    +0.000 A 
ATOM     10  C   UNL     1       2.312   6.519  20.506  0.00  0.00    +0.000 A 
BRANCH   8  11
ATOM     11  S   UNL     1       4.777   4.474  18.013  0.00  0.00    +0.000 S 
ATOM     12  O   UNL     1       5.180   4.930  16.696  0.00  0.00    +0.000 OA
ATOM     13  O   UNL     1       5.766   4.117  19.009  0.00  0.00    +0.000 OA
BRANCH  11  14
ATOM     14  N   UNL     1       3.754   3.156  17.808  0.00  0.00    +0.000 NA
ATOM     15  C   UNL     1       2.448   3.320  17.160  0.00  0.00    +0.000 C 
ATOM     16  C   UNL     1       1.461   3.117  18.293  0.00  0.00    +0.000 C 
ATOM     17  C   UNL     1       2.118   2.055  19.163  0.00  0.00    +0.000 C 
ATOM     18  C   UNL     1       3.617   2.158  18.885  0.00  0.00    +0.000 C 
ENDBRANCH  11  14
ENDBRANCH   8  11
ENDBRANCH   3   5
BRANCH   2  19
ATOM     19  C   UNL     1      -0.142  10.609  20.823  0.00  0.00    +0.000 A 
ATOM     20  C   UNL     1      -0.948  11.613  20.278  0.00  0.00    +0.000 A 
ATOM     21  C   UNL     1      -1.857  12.291  21.098  0.00  0.00    +0.000 A 
ATOM     22  C   UNL     1      -1.961  11.984  22.463  0.00  0.00    +0.000 A 
ATOM     23  C   UNL     1      -1.138  10.989  23.006  0.00  0.00    +0.000 A 
ATOM     24  C   UNL     1      -0.233  10.311  22.191  0.00  0.00    +0.000 A 
BRANCH  22  25
ATOM     25  C   UNL     1      -2.945  12.710  23.350  0.00  0.00    +0.000 C 
ATOM     26  F   UNL     1      -3.912  13.370  22.654  0.00  0.00    +0.000 F 
ATOM     27  F   UNL     1      -3.601  11.867  24.193  0.00  0.00    +0.000 F 
ATOM     28  F   UNL     1      -2.347  13.644  24.140  0.00  0.00    +0.000 F 
ENDBRANCH  22  25
ENDBRANCH   2  19
TORSDOF 5
ENDMDL
MODEL 5
REMARK VINA RESULT:      -7.9      3.156      4.015
REMARK  Name = 
REMARK  5 active torsions:
REMARK  status: ('A' for Active; 'I' for Inactive)
REMARK    1  A    between atoms: C_2  and  C_18
REMARK    2  A    between atoms: N_3  and  C_4
REMARK    3  A    between atoms: C_7  and  S_8
REMARK    4  A    between atoms: S_8  and  N_11
REMARK    5  A    between atoms: C_21  and  C_22
REMARK                            x       y       z     vdW  Elec       q    Type
REMARK                         _______ _______ _______ _____ _____    ______ ____
ROOT
ATOM      1  O   UNL     1       1.412   8.889  22.354  0.00  0.00    +0.000 OA
ATOM      2  C   UNL     1       0.820   9.320  21.364  0.00  0.00    +0.000 C 
ATOM      3  N   UNL     1       1.003   8.893  20.061  0.00  0.00    +0.000 N 
ATOM      4  H   UNL     1       0.502   9.374  19.327  0.00  0.00    +0.000 HD
ENDROOT
BRANCH   3   5
ATOM      5  C   UNL     1       1.844   7.839  19.646  0.00  0.00    +0.000 A 
ATOM      6  C   UNL     1       2.044   6.670  20.388  0.00  0.00    +0.000 A 
ATOM      7  C   UNL     1       2.911   5.671  19.934  0.00  0.00    +0.000 A 
ATOM      8  C   UNL     1       3.550   5.818  18.700  0.00  0.00    +0.000 A 
ATOM      9  C   UNL     1       3.348   6.975  17.944  0.00  0.00    +0.000 A 
ATOM     10  C   UNL     1       2.500   7.983  18.419  0.00  0.00    +0.000 A 
BRANCH   8  11
ATOM     11  S   UNL     1       4.804   4.649  18.192  0.00  0.00    +0.000 S 
ATOM     12  O   UNL     1       5.308   5.107  16.911  0.00  0.00    +0.000 OA
ATOM     13  O   UNL     1       5.696   4.469  19.319  0.00  0.00    +0.000 OA
BRANCH  11  14
ATOM     14  N   UNL     1       3.999   3.196  17.936  0.00  0.00    +0.000 NA
ATOM     15  C   UNL     1       2.772   3.156  17.131  0.00  0.00    +0.000 C 
ATOM     16  C   UNL     1       1.689   2.857  18.150  0.00  0.00    +0.000 C 
ATOM     17  C   UNL     1       2.370   1.926  19.143  0.00  0.00    +0.000 C 
ATOM     18  C   UNL     1       3.864   2.226  19.038  0.00  0.00    +0.000 C 
ENDBRANCH  11  14
ENDBRANCH   8  11
ENDBRANCH   3   5
BRANCH   2  19
ATOM     19  C   UNL     1      -0.196  10.380  21.582  0.00  0.00    +0.000 A 
ATOM     20  C   UNL     1      -0.633  11.239  20.568  0.00  0.00    +0.000 A 
ATOM     21  C   UNL     1      -1.588  12.219  20.856  0.00  0.00    +0.000 A 
ATOM     22  C   UNL     1      -2.105  12.359  22.154  0.00  0.00    +0.000 A 
ATOM     23  C   UNL     1      -1.649  11.507  23.169  0.00  0.00    +0.000 A 
ATOM     24  C   UNL     1      -0.699  10.528  22.882  0.00  0.00    +0.000 A 
BRANCH  22  25
ATOM     25  C   UNL     1      -3.140  13.414  22.468  0.00  0.00    +0.000 C 
ATOM     26  F   UNL     1      -2.752  14.273  23.452  0.00  0.00    +0.000 F 
ATOM     27  F   UNL     1      -3.431  14.190  21.388  0.00  0.00    +0.000 F 
ATOM     28  F   UNL     1      -4.323  12.881  22.880  0.00  0.00    +0.000 F 
ENDBRANCH  22  25
ENDBRANCH   2  19
TORSDOF 5
ENDMDL
MODEL 6
REMARK VINA RESULT:      -7.9      3.290      4.093
REMARK  Name = 
REMARK  5 active torsions:
REMARK  status: ('A' for Active; 'I' for Inactive)
REMARK    1  A    between atoms: C_2  and  C_18
REMARK    2  A    between atoms: N_3  and  C_4
REMARK    3  A    between atoms: C_7  and  S_8
REMARK    4  A    between atoms: S_8  and  N_11
REMARK    5  A    between atoms: C_21  and  C_22
REMARK                            x       y       z     vdW  Elec       q    Type
REMARK                         _______ _______ _______ _____ _____    ______ ____
ROOT
ATOM      1  O   UNL     1       1.869   9.191  22.245  0.00  0.00    +0.000 OA
ATOM      2  C   UNL     1       1.023   9.388  21.373  0.00  0.00    +0.000 C 
ATOM      3  N   UNL     1       1.001   8.805  20.119  0.00  0.00    +0.000 N 
ATOM      4  H   UNL     1       0.287   9.101  19.468  0.00  0.00    +0.000 HD
ENDROOT
BRANCH   3   5
ATOM      5  C   UNL     1       1.900   7.826  19.646  0.00  0.00    +0.000 A 
ATOM      6  C   UNL     1       2.569   7.917  18.420  0.00  0.00    +0.000 A 
ATOM      7  C   UNL     1       3.431   6.900  17.996  0.00  0.00    +0.000 A 
ATOM      8  C   UNL     1       3.664   5.800  18.825  0.00  0.00    +0.000 A 
ATOM      9  C   UNL     1       3.011   5.704  20.056  0.00  0.00    +0.000 A 
ATOM     10  C   UNL     1       2.130   6.714  20.462  0.00  0.00    +0.000 A 
BRANCH   8  11
ATOM     11  S   UNL     1       4.605   4.404  18.223  0.00  0.00    +0.000 S 
ATOM     12  O   UNL     1       5.107   4.771  16.913  0.00  0.00    +0.000 OA
ATOM     13  O   UNL     1       5.512   4.017  19.284  0.00  0.00    +0.000 OA
BRANCH  11  14
ATOM     14  N   UNL     1       3.495   3.158  18.016  0.00  0.00    +0.000 NA
ATOM     15  C   UNL     1       2.222   3.401  17.328  0.00  0.00    +0.000 C 
ATOM     16  C   UNL     1       1.194   3.293  18.437  0.00  0.00    +0.000 C 
ATOM     17  C   UNL     1       1.749   2.206  19.345  0.00  0.00    +0.000 C 
ATOM     18  C   UNL     1       3.258   2.196  19.108  0.00  0.00    +0.000 C 
ENDBRANCH  11  14
ENDBRANCH   8  11
ENDBRANCH   3   5
BRANCH   2  19
ATOM     19  C   UNL     1      -0.086  10.321  21.694  0.00  0.00    +0.000 A 
ATOM     20  C   UNL     1      -0.647  10.430  22.970  0.00  0.00    +0.000 A 
ATOM     21  C   UNL     1      -1.696  11.328  23.190  0.00  0.00    +0.000 A 
ATOM     22  C   UNL     1      -2.201  12.114  22.142  0.00  0.00    +0.000 A 
ATOM     23  C   UNL     1      -1.646  11.987  20.862  0.00  0.00    +0.000 A 
ATOM     24  C   UNL     1      -0.598  11.094  20.642  0.00  0.00    +0.000 A 
BRANCH  22  25
ATOM     25  C   UNL     1      -3.331  13.088  22.376  0.00  0.00    +0.000 C 
ATOM     26  F   UNL     1      -3.408  13.524  23.665  0.00  0.00    +0.000 F 
ATOM     27  F   UNL     1      -3.215  14.208  21.611  0.00  0.00    +0.000 F 
ATOM     28  F   UNL     1      -4.550  12.557  22.086  0.00  0.00    +0.000 F 
ENDBRANCH  22  25
ENDBRANCH   2  19
TORSDOF 5
ENDMDL
MODEL 7
REMARK VINA RESULT:      -7.9      2.457      2.929
REMARK  Name = 
REMARK  5 active torsions:
REMARK  status: ('A' for Active; 'I' for Inactive)
REMARK    1  A    between atoms: C_2  and  C_18
REMARK    2  A    between atoms: N_3  and  C_4
REMARK    3  A    between atoms: C_7  and  S_8
REMARK    4  A    between atoms: S_8  and  N_11
REMARK    5  A    between atoms: C_21  and  C_22
REMARK                            x       y       z     vdW  Elec       q    Type
REMARK                         _______ _______ _______ _____ _____    ______ ____
ROOT
ATOM      1  O   UNL     1       1.508   7.050  21.431  0.00  0.00    +0.000 OA
ATOM      2  C   UNL     1       1.353   8.088  20.788  0.00  0.00    +0.000 C 
ATOM      3  N   UNL     1       1.905   8.364  19.549  0.00  0.00    +0.000 N 
ATOM      4  H   UNL     1       1.754   9.282  19.155  0.00  0.00    +0.000 HD
ENDROOT
BRANCH   3   5
ATOM      5  C   UNL     1       2.680   7.477  18.773  0.00  0.00    +0.000 A 
ATOM      6  C   UNL     1       2.852   6.124  19.084  0.00  0.00    +0.000 A 
ATOM      7  C   UNL     1       3.654   5.301  18.286  0.00  0.00    +0.000 A 
ATOM      8  C   UNL     1       4.254   5.823  17.137  0.00  0.00    +0.000 A 
ATOM      9  C   UNL     1       4.079   7.169  16.810  0.00  0.00    +0.000 A 
ATOM     10  C   UNL     1       3.296   7.994  17.628  0.00  0.00    +0.000 A 
BRANCH   8  11
ATOM     11  S   UNL     1       5.432   4.845  16.214  0.00  0.00    +0.000 S 
ATOM     12  O   UNL     1       5.210   3.461  16.587  0.00  0.00    +0.000 OA
ATOM     13  O   UNL     1       5.339   5.265  14.831  0.00  0.00    +0.000 OA
BRANCH  11  14
ATOM     14  N   UNL     1       6.948   5.293  16.786  0.00  0.00    +0.000 NA
ATOM     15  C   UNL     1       7.533   4.621  17.952  0.00  0.00    +0.000 C 
ATOM     16  C   UNL     1       7.501   5.687  19.030  0.00  0.00    +0.000 C 
ATOM     17  C   UNL     1       7.768   6.979  18.272  0.00  0.00    +0.000 C 
ATOM     18  C   UNL     1       7.324   6.717  16.833  0.00  0.00    +0.000 C 
ENDBRANCH  11  14
ENDBRANCH   8  11
ENDBRANCH   3   5
BRANCH   2  19
ATOM     19  C   UNL     1       0.484   9.136  21.378  0.00  0.00    +0.000 A 
ATOM     20  C   UNL     1       0.139   9.168  22.733  0.00  0.00    +0.000 A 
ATOM     21  C   UNL     1      -0.694  10.186  23.211  0.00  0.00    +0.000 A 
ATOM     22  C   UNL     1      -1.197  11.169  22.345  0.00  0.00    +0.000 A 
ATOM     23  C   UNL     1      -0.861  11.121  20.985  0.00  0.00    +0.000 A 
ATOM     24  C   UNL     1      -0.030  10.109  20.508  0.00  0.00    +0.000 A 
BRANCH  22  25
ATOM     25  C   UNL     1      -2.092  12.272  22.858  0.00  0.00    +0.000 C 
ATOM     26  F   UNL     1      -3.102  11.820  23.653  0.00  0.00    +0.000 F 
ATOM     27  F   UNL     1      -1.411  13.185  23.604  0.00  0.00    +0.000 F 
ATOM     28  F   UNL     1      -2.688  12.973  21.855  0.00  0.00    +0.000 F 
ENDBRANCH  22  25
ENDBRANCH   2  19
TORSDOF 5
ENDMDL
MODEL 8
REMARK VINA RESULT:      -7.7      2.176      2.764
REMARK  Name = 
REMARK  5 active torsions:
REMARK  status: ('A' for Active; 'I' for Inactive)
REMARK    1  A    between atoms: C_2  and  C_18
REMARK    2  A    between atoms: N_3  and  C_4
REMARK    3  A    between atoms: C_7  and  S_8
REMARK    4  A    between atoms: S_8  and  N_11
REMARK    5  A    between atoms: C_21  and  C_22
REMARK                            x       y       z     vdW  Elec       q    Type
REMARK                         _______ _______ _______ _____ _____    ______ ____
ROOT
ATOM      1  O   UNL     1       1.732   9.913  18.087  0.00  0.00    +0.000 OA
ATOM      2  C   UNL     1       1.425   9.280  19.098  0.00  0.00    +0.000 C 
ATOM      3  N   UNL     1       1.796   7.978  19.383  0.00  0.00    +0.000 N 
ATOM      4  H   UNL     1       1.422   7.549  20.218  0.00  0.00    +0.000 HD
ENDROOT
BRANCH   3   5
ATOM      5  C   UNL     1       2.651   7.172  18.603  0.00  0.00    +0.000 A 
ATOM      6  C   UNL     1       2.764   5.786  18.760  0.00  0.00    +0.000 A 
ATOM      7  C   UNL     1       3.650   5.045  17.971  0.00  0.00    +0.000 A 
ATOM      8  C   UNL     1       4.398   5.688  16.981  0.00  0.00    +0.000 A 
ATOM      9  C   UNL     1       4.284   7.068  16.807  0.00  0.00    +0.000 A 
ATOM     10  C   UNL     1       3.415   7.808  17.619  0.00  0.00    +0.000 A 
BRANCH   8  11
ATOM     11  S   UNL     1       5.671   4.797  16.096  0.00  0.00    +0.000 S 
ATOM     12  O   UNL     1       5.506   3.394  16.425  0.00  0.00    +0.000 OA
ATOM     13  O   UNL     1       5.624   5.248  14.720  0.00  0.00    +0.000 OA
BRANCH  11  14
ATOM     14  N   UNL     1       7.131   5.309  16.754  0.00  0.00    +0.000 NA
ATOM     15  C   UNL     1       7.681   4.654  17.947  0.00  0.00    +0.000 C 
ATOM     16  C   UNL     1       7.540   5.710  19.027  0.00  0.00    +0.000 C 
ATOM     17  C   UNL     1       7.789   7.019  18.293  0.00  0.00    +0.000 C 
ATOM     18  C   UNL     1       7.438   6.748  16.830  0.00  0.00    +0.000 C 
ENDBRANCH  11  14
ENDBRANCH   8  11
ENDBRANCH   3   5
BRANCH   2  19
ATOM     19  C   UNL     1       0.597   9.976  20.115  0.00  0.00    +0.000 A 
ATOM     20  C   UNL     1       0.655   9.679  21.480  0.00  0.00    +0.000 A 
ATOM     21  C   UNL     1      -0.164  10.375  22.375  0.00  0.00    +0.000 A 
ATOM     22  C   UNL     1      -1.053  11.361  21.917  0.00  0.00    +0.000 A 
ATOM     23  C   UNL     1      -1.119  11.641  20.546  0.00  0.00    +0.000 A 
ATOM     24  C   UNL     1      -0.301  10.950  19.654  0.00  0.00    +0.000 A 
BRANCH  22  25
ATOM     25  C   UNL     1      -1.937  12.117  22.881  0.00  0.00    +0.000 C 
ATOM     26  F   UNL     1      -2.911  12.843  22.263  0.00  0.00    +0.000 F 
ATOM     27  F   UNL     1      -2.582  11.290  23.749  0.00  0.00    +0.000 F 
ATOM     28  F   UNL     1      -1.241  13.001  23.647  0.00  0.00    +0.000 F 
ENDBRANCH  22  25
ENDBRANCH   2  19
TORSDOF 5
ENDMDL
MODEL 9
REMARK VINA RESULT:      -7.6      3.374      4.506
REMARK  Name = 
REMARK  5 active torsions:
REMARK  status: ('A' for Active; 'I' for Inactive)
REMARK    1  A    between atoms: C_2  and  C_18
REMARK    2  A    between atoms: N_3  and  C_4
REMARK    3  A    between atoms: C_7  and  S_8
REMARK    4  A    between atoms: S_8  and  N_11
REMARK    5  A    between atoms: C_21  and  C_22
REMARK                            x       y       z     vdW  Elec       q    Type
REMARK                         _______ _______ _______ _____ _____    ______ ____
ROOT
ATOM      1  O   UNL     1       1.192  10.068  22.181  0.00  0.00    +0.000 OA
ATOM      2  C   UNL     1       0.334  10.245  21.316  0.00  0.00    +0.000 C 
ATOM      3  N   UNL     1       0.336   9.694  20.048  0.00  0.00    +0.000 N 
ATOM      4  H   UNL     1      -0.395   9.971  19.407  0.00  0.00    +0.000 HD
ENDROOT
BRANCH   3   5
ATOM      5  C   UNL     1       1.280   8.774  19.547  0.00  0.00    +0.000 A 
ATOM      6  C   UNL     1       1.898   8.901  18.298  0.00  0.00    +0.000 A 
ATOM      7  C   UNL     1       2.809   7.940  17.847  0.00  0.00    +0.000 A 
ATOM      8  C   UNL     1       3.144   6.863  18.672  0.00  0.00    +0.000 A 
ATOM      9  C   UNL     1       2.543   6.733  19.926  0.00  0.00    +0.000 A 
ATOM     10  C   UNL     1       1.612   7.684  20.360  0.00  0.00    +0.000 A 
BRANCH   8  11
ATOM     11  S   UNL     1       4.153   5.528  18.043  0.00  0.00    +0.000 S 
ATOM     12  O   UNL     1       4.865   6.048  16.892  0.00  0.00    +0.000 OA
ATOM     13  O   UNL     1       4.872   4.974  19.172  0.00  0.00    +0.000 OA
BRANCH  11  14
ATOM     14  N   UNL     1       3.077   4.358  17.495  0.00  0.00    +0.000 NA
ATOM     15  C   UNL     1       1.635   4.506  17.725  0.00  0.00    +0.000 C 
ATOM     16  C   UNL     1       1.325   3.422  18.739  0.00  0.00    +0.000 C 
ATOM     17  C   UNL     1       2.253   2.282  18.349  0.00  0.00    +0.000 C 
ATOM     18  C   UNL     1       3.423   2.931  17.610  0.00  0.00    +0.000 C 
ENDBRANCH  11  14
ENDBRANCH   8  11
ENDBRANCH   3   5
BRANCH   2  19
ATOM     19  C   UNL     1      -0.819  11.113  21.665  0.00  0.00    +0.000 A 
ATOM     20  C   UNL     1      -1.441  11.963  20.745  0.00  0.00    +0.000 A 
ATOM     21  C   UNL     1      -2.518  12.756  21.154  0.00  0.00    +0.000 A 
ATOM     22  C   UNL     1      -2.974  12.719  22.481  0.00  0.00    +0.000 A 
ATOM     23  C   UNL     1      -2.334  11.878  23.402  0.00  0.00    +0.000 A 
ATOM     24  C   UNL     1      -1.263  11.085  22.995  0.00  0.00    +0.000 A 
BRANCH  22  25
ATOM     25  C   UNL     1      -4.139  13.571  22.926  0.00  0.00    +0.000 C 
ATOM     26  F   UNL     1      -4.694  14.296  21.915  0.00  0.00    +0.000 F 
ATOM     27  F   UNL     1      -5.152  12.827  23.451  0.00  0.00    +0.000 F 
ATOM     28  F   UNL     1      -3.794  14.471  23.887  0.00  0.00    +0.000 F 
ENDBRANCH  22  25
ENDBRANCH   2  19
TORSDOF 5
ENDMDL
