MODEL 1
REMARK VINA RESULT:      -8.6      0.000      0.000
REMARK  Name = 
REMARK  5 active torsions:
REMARK  status: ('A' for Active; 'I' for Inactive)
REMARK    1  A    between atoms: C_2  and  C_3
REMARK    2  A    between atoms: C_3  and  N_4
REMARK    3  A    between atoms: C_9  and  C_10
REMARK    4  A    between atoms: N_19  and  C_20
REMARK    5  A    between atoms: C_20  and  C_21
REMARK                            x       y       z     vdW  Elec       q    Type
REMARK                         _______ _______ _______ _____ _____    ______ ____
ROOT
ATOM      1  N   UNL     1       4.911   4.081  17.270  0.00  0.00    +0.000 NA
ATOM      2  C   UNL     1       5.379   4.829  16.093  0.00  0.00    +0.000 C 
ATOM      3  C   UNL     1       6.807   5.362  16.275  0.00  0.00    +0.000 C 
ATOM      4  C   UNL     1       7.025   6.118  17.581  0.00  0.00    +0.000 C 
ATOM      5  C   UNL     1       6.417   5.372  18.763  0.00  0.00    +0.000 C 
ATOM      6  C   UNL     1       4.974   4.898  18.508  0.00  0.00    +0.000 C 
ENDROOT
BRANCH   6   7
ATOM      7  C   UNL     1       3.984   6.044  18.577  0.00  0.00    +0.000 A 
ATOM      8  C   UNL     1       3.621   7.030  17.674  0.00  0.00    +0.000 A 
ATOM      9  C   UNL     1       2.661   7.880  18.281  0.00  0.00    +0.000 A 
ATOM     10  C   UNL     1       1.963   9.025  17.852  0.00  0.00    +0.000 A 
ATOM     11  C   UNL     1       1.064   9.642  18.727  0.00  0.00    +0.000 A 
ATOM     12  C   UNL     1       0.860   9.133  20.008  0.00  0.00    +0.000 A 
ATOM     13  C   UNL     1       1.546   7.997  20.453  0.00  0.00    +0.000 A 
ATOM     14  C   UNL     1       2.443   7.392  19.565  0.00  0.00    +0.000 A 
ATOM     15  N   UNL     1       3.247   6.285  19.719  0.00  0.00    +0.000 N 
ATOM     16  H   UNL     1       3.290   5.735  20.565  0.00  0.00    +0.000 HD
ENDBRANCH   6   7
BRANCH   1  17
ATOM     17  C   UNL     1       3.551   3.508  17.084  0.00  0.00    +0.000 C 
BRANCH  17  19
ATOM     18  O   UNL     1       3.612   1.597  18.569  0.00  0.00    +0.000 OA
ATOM     19  C   UNL     1       3.068   2.654  18.264  0.00  0.00    +0.000 C 
ATOM     20  N   UNL     1       1.948   3.111  18.919  0.00  0.00    +0.000 N 
ATOM     21  H   UNL     1       1.479   3.916  18.514  0.00  0.00    +0.000 HD
BRANCH  20  22
ATOM     22  C   UNL     1       1.349   2.365  20.024  0.00  0.00    +0.000 C 
BRANCH  22  23
ATOM     23  C   UNL     1       1.723   2.837  21.434  0.00  0.00    +0.000 C 
ATOM     24  F   UNL     1       1.761   4.188  21.534  0.00  0.00    +0.000 F 
ATOM     25  F   UNL     1       0.863   2.377  22.368  0.00  0.00    +0.000 F 
ATOM     26  F   UNL     1       2.957   2.384  21.766  0.00  0.00    +0.000 F 
ENDBRANCH  22  23
ENDBRANCH  20  22
ENDBRANCH  17  19
ENDBRANCH   1  17
TORSDOF 5
ENDMDL
MODEL 2
REMARK VINA RESULT:      -8.4      4.723      6.339
REMARK  Name = 
REMARK  5 active torsions:
REMARK  status: ('A' for Active; 'I' for Inactive)
REMARK    1  A    between atoms: C_2  and  C_3
REMARK    2  A    between atoms: C_3  and  N_4
REMARK    3  A    between atoms: C_9  and  C_10
REMARK    4  A    between atoms: N_19  and  C_20
REMARK    5  A    between atoms: C_20  and  C_21
REMARK                            x       y       z     vdW  Elec       q    Type
REMARK                         _______ _______ _______ _____ _____    ______ ____
ROOT
ATOM      1  N   UNL     1       7.004   5.356  16.510  0.00  0.00    +0.000 NA
ATOM      2  C   UNL     1       6.752   6.796  16.677  0.00  0.00    +0.000 C 
ATOM      3  C   UNL     1       7.765   7.455  17.624  0.00  0.00    +0.000 C 
ATOM      4  C   UNL     1       7.936   6.727  18.952  0.00  0.00    +0.000 C 
ATOM      5  C   UNL     1       8.069   5.222  18.749  0.00  0.00    +0.000 C 
ATOM      6  C   UNL     1       6.997   4.637  17.809  0.00  0.00    +0.000 C 
ENDROOT
BRANCH   6   7
ATOM      7  C   UNL     1       5.645   4.541  18.488  0.00  0.00    +0.000 A 
ATOM      8  C   UNL     1       4.650   5.470  18.739  0.00  0.00    +0.000 A 
ATOM      9  C   UNL     1       3.598   4.838  19.450  0.00  0.00    +0.000 A 
ATOM     10  C   UNL     1       2.366   5.283  19.967  0.00  0.00    +0.000 A 
ATOM     11  C   UNL     1       1.542   4.374  20.640  0.00  0.00    +0.000 A 
ATOM     12  C   UNL     1       1.933   3.046  20.798  0.00  0.00    +0.000 A 
ATOM     13  C   UNL     1       3.155   2.587  20.294  0.00  0.00    +0.000 A 
ATOM     14  C   UNL     1       3.967   3.509  19.623  0.00  0.00    +0.000 A 
ATOM     15  N   UNL     1       5.202   3.352  19.033  0.00  0.00    +0.000 N 
ATOM     16  H   UNL     1       5.710   2.479  19.015  0.00  0.00    +0.000 HD
ENDBRANCH   6   7
BRANCH   1  17
ATOM     17  C   UNL     1       6.066   4.716  15.548  0.00  0.00    +0.000 C 
BRANCH  17  19
ATOM     18  O   UNL     1       7.461   5.306  13.659  0.00  0.00    +0.000 OA
ATOM     19  C   UNL     1       6.655   4.518  14.144  0.00  0.00    +0.000 C 
ATOM     20  N   UNL     1       6.175   3.440  13.437  0.00  0.00    +0.000 N 
ATOM     21  H   UNL     1       5.409   2.922  13.858  0.00  0.00    +0.000 HD
BRANCH  20  22
ATOM     22  C   UNL     1       6.608   3.168  12.068  0.00  0.00    +0.000 C 
BRANCH  22  23
ATOM     23  C   UNL     1       5.921   1.990  11.368  0.00  0.00    +0.000 C 
ATOM     24  F   UNL     1       5.798   0.908  12.175  0.00  0.00    +0.000 F 
ATOM     25  F   UNL     1       4.689   2.314  10.919  0.00  0.00    +0.000 F 
ATOM     26  F   UNL     1       6.648   1.597  10.293  0.00  0.00    +0.000 F 
ENDBRANCH  22  23
ENDBRANCH  20  22
ENDBRANCH  17  19
ENDBRANCH   1  17
TORSDOF 5
ENDMDL
MODEL 3
REMARK VINA RESULT:      -8.3      4.535      6.187
REMARK  Name = 
REMARK  5 active torsions:
REMARK  status: ('A' for Active; 'I' for Inactive)
REMARK    1  A    between atoms: C_2  and  C_3
REMARK    2  A    between atoms: C_3  and  N_4
REMARK    3  A    between atoms: C_9  and  C_10
REMARK    4  A    between atoms: N_19  and  C_20
REMARK    5  A    between atoms: C_20  and  C_21
REMARK                            x       y       z     vdW  Elec       q    Type
REMARK                         _______ _______ _______ _____ _____    ______ ____
ROOT
ATOM      1  N   UNL     1       6.713   5.716  16.551  0.00  0.00    +0.000 NA
ATOM      2  C   UNL     1       6.645   7.047  17.175  0.00  0.00    +0.000 C 
ATOM      3  C   UNL     1       7.787   7.278  18.173  0.00  0.00    +0.000 C 
ATOM      4  C   UNL     1       7.957   6.157  19.192  0.00  0.00    +0.000 C 
ATOM      5  C   UNL     1       7.898   4.787  18.525  0.00  0.00    +0.000 C 
ATOM      6  C   UNL     1       6.706   4.629  17.562  0.00  0.00    +0.000 C 
ENDROOT
BRANCH   6   7
ATOM      7  C   UNL     1       5.400   4.448  18.308  0.00  0.00    +0.000 A 
ATOM      8  C   UNL     1       4.695   5.259  19.182  0.00  0.00    +0.000 A 
ATOM      9  C   UNL     1       3.536   4.567  19.619  0.00  0.00    +0.000 A 
ATOM     10  C   UNL     1       2.483   4.887  20.498  0.00  0.00    +0.000 A 
ATOM     11  C   UNL     1       1.469   3.949  20.716  0.00  0.00    +0.000 A 
ATOM     12  C   UNL     1       1.499   2.712  20.075  0.00  0.00    +0.000 A 
ATOM     13  C   UNL     1       2.538   2.375  19.200  0.00  0.00    +0.000 A 
ATOM     14  C   UNL     1       3.545   3.326  18.993  0.00  0.00    +0.000 A 
ATOM     15  N   UNL     1       4.674   3.278  18.206  0.00  0.00    +0.000 N 
ATOM     16  H   UNL     1       4.931   2.482  17.640  0.00  0.00    +0.000 HD
ENDBRANCH   6   7
BRANCH   1  17
ATOM     17  C   UNL     1       5.646   5.502  15.536  0.00  0.00    +0.000 C 
BRANCH  17  19
ATOM     18  O   UNL     1       7.279   5.083  13.798  0.00  0.00    +0.000 OA
ATOM     19  C   UNL     1       6.148   4.874  14.229  0.00  0.00    +0.000 C 
ATOM     20  N   UNL     1       5.234   4.117  13.535  0.00  0.00    +0.000 N 
ATOM     21  H   UNL     1       4.282   4.111  13.890  0.00  0.00    +0.000 HD
BRANCH  20  22
ATOM     22  C   UNL     1       5.562   3.509  12.247  0.00  0.00    +0.000 C 
BRANCH  22  23
ATOM     23  C   UNL     1       4.371   3.128  11.360  0.00  0.00    +0.000 C 
ATOM     24  F   UNL     1       3.242   2.909  12.077  0.00  0.00    +0.000 F 
ATOM     25  F   UNL     1       4.099   4.078  10.439  0.00  0.00    +0.000 F 
ATOM     26  F   UNL     1       4.637   1.982  10.688  0.00  0.00    +0.000 F 
ENDBRANCH  22  23
ENDBRANCH  20  22
ENDBRANCH  17  19
ENDBRANCH   1  17
TORSDOF 5
ENDMDL
MODEL 4
REMARK VINA RESULT:      -8.2      4.548      6.116
REMARK  Name = 
REMARK  5 active torsions:
REMARK  status: ('A' for Active; 'I' for Inactive)
REMARK    1  A    between atoms: C_2  and  C_3
REMARK    2  A    between atoms: C_3  and  N_4
REMARK    3  A    between atoms: C_9  and  C_10
REMARK    4  A    between atoms: N_19  and  C_20
REMARK    5  A    between atoms: C_20  and  C_21
REMARK                            x       y       z     vdW  Elec       q    Type
REMARK                         _______ _______ _______ _____ _____    ______ ____
ROOT
ATOM      1  N   UNL     1       7.226   5.037  16.750  0.00  0.00    +0.000 NA
ATOM      2  C   UNL     1       6.827   6.437  16.535  0.00  0.00    +0.000 C 
ATOM      3  C   UNL     1       7.689   7.416  17.344  0.00  0.00    +0.000 C 
ATOM      4  C   UNL     1       7.814   7.057  18.820  0.00  0.00    +0.000 C 
ATOM      5  C   UNL     1       8.106   5.573  19.009  0.00  0.00    +0.000 C 
ATOM      6  C   UNL     1       7.177   4.660  18.185  0.00  0.00    +0.000 C 
ENDROOT
BRANCH   6   7
ATOM      7  C   UNL     1       5.788   4.580  18.786  0.00  0.00    +0.000 A 
ATOM      8  C   UNL     1       4.811   5.532  19.028  0.00  0.00    +0.000 A 
ATOM      9  C   UNL     1       3.702   4.906  19.652  0.00  0.00    +0.000 A 
ATOM     10  C   UNL     1       2.459   5.369  20.123  0.00  0.00    +0.000 A 
ATOM     11  C   UNL     1       1.570   4.460  20.707  0.00  0.00    +0.000 A 
ATOM     12  C   UNL     1       1.908   3.113  20.821  0.00  0.00    +0.000 A 
ATOM     13  C   UNL     1       3.140   2.634  20.361  0.00  0.00    +0.000 A 
ATOM     14  C   UNL     1       4.018   3.557  19.780  0.00  0.00    +0.000 A 
ATOM     15  N   UNL     1       5.277   3.384  19.249  0.00  0.00    +0.000 N 
ATOM     16  H   UNL     1       5.756   2.496  19.216  0.00  0.00    +0.000 HD
ENDBRANCH   6   7
BRANCH   1  17
ATOM     17  C   UNL     1       6.438   4.081  15.926  0.00  0.00    +0.000 C 
BRANCH  17  19
ATOM     18  O   UNL     1       7.225   5.230  13.945  0.00  0.00    +0.000 OA
ATOM     19  C   UNL     1       6.607   4.278  14.413  0.00  0.00    +0.000 C 
ATOM     20  N   UNL     1       5.970   3.360  13.612  0.00  0.00    +0.000 N 
ATOM     21  H   UNL     1       5.366   2.688  14.077  0.00  0.00    +0.000 HD
BRANCH  20  22
ATOM     22  C   UNL     1       6.001   3.462  12.154  0.00  0.00    +0.000 C 
BRANCH  22  23
ATOM     23  C   UNL     1       4.687   3.147  11.430  0.00  0.00    +0.000 C 
ATOM     24  F   UNL     1       4.722   1.952  10.791  0.00  0.00    +0.000 F 
ATOM     25  F   UNL     1       3.633   3.135  12.273  0.00  0.00    +0.000 F 
ATOM     26  F   UNL     1       4.437   4.088  10.487  0.00  0.00    +0.000 F 
ENDBRANCH  22  23
ENDBRANCH  20  22
ENDBRANCH  17  19
ENDBRANCH   1  17
TORSDOF 5
ENDMDL
MODEL 5
REMARK VINA RESULT:      -8.1      3.453      5.161
REMARK  Name = 
REMARK  5 active torsions:
REMARK  status: ('A' for Active; 'I' for Inactive)
REMARK    1  A    between atoms: C_2  and  C_3
REMARK    2  A    between atoms: C_3  and  N_4
REMARK    3  A    between atoms: C_9  and  C_10
REMARK    4  A    between atoms: N_19  and  C_20
REMARK    5  A    between atoms: C_20  and  C_21
REMARK                            x       y       z     vdW  Elec       q    Type
REMARK                         _______ _______ _______ _____ _____    ______ ____
ROOT
ATOM      1  N   UNL     1       4.060   3.933  18.837  0.00  0.00    +0.000 NA
ATOM      2  C   UNL     1       3.417   3.259  19.976  0.00  0.00    +0.000 C 
ATOM      3  C   UNL     1       2.244   2.371  19.536  0.00  0.00    +0.000 C 
ATOM      4  C   UNL     1       1.245   3.071  18.623  0.00  0.00    +0.000 C 
ATOM      5  C   UNL     1       1.952   3.862  17.528  0.00  0.00    +0.000 C 
ATOM      6  C   UNL     1       3.095   4.748  18.058  0.00  0.00    +0.000 C 
ENDROOT
BRANCH   6   7
ATOM      7  C   UNL     1       2.570   5.981  18.766  0.00  0.00    +0.000 A 
ATOM      8  C   UNL     1       2.167   6.217  20.071  0.00  0.00    +0.000 A 
ATOM      9  C   UNL     1       1.724   7.560  20.180  0.00  0.00    +0.000 A 
ATOM     10  C   UNL     1       1.207   8.333  21.237  0.00  0.00    +0.000 A 
ATOM     11  C   UNL     1       0.854   9.665  20.998  0.00  0.00    +0.000 A 
ATOM     12  C   UNL     1       1.011  10.222  19.730  0.00  0.00    +0.000 A 
ATOM     13  C   UNL     1       1.520   9.469  18.667  0.00  0.00    +0.000 A 
ATOM     14  C   UNL     1       1.868   8.138  18.923  0.00  0.00    +0.000 A 
ATOM     15  N   UNL     1       2.382   7.170  18.090  0.00  0.00    +0.000 N 
ATOM     16  H   UNL     1       2.583   7.319  17.111  0.00  0.00    +0.000 HD
ENDBRANCH   6   7
BRANCH   1  17
ATOM     17  C   UNL     1       5.236   4.750  19.242  0.00  0.00    +0.000 C 
BRANCH  17  19
ATOM     18  O   UNL     1       6.437   6.377  17.912  0.00  0.00    +0.000 OA
ATOM     19  C   UNL     1       6.113   5.203  18.068  0.00  0.00    +0.000 C 
ATOM     20  N   UNL     1       6.459   4.227  17.162  0.00  0.00    +0.000 N 
ATOM     21  H   UNL     1       6.033   3.314  17.290  0.00  0.00    +0.000 HD
BRANCH  20  22
ATOM     22  C   UNL     1       7.243   4.534  15.968  0.00  0.00    +0.000 C 
BRANCH  22  23
ATOM     23  C   UNL     1       6.463   4.597  14.650  0.00  0.00    +0.000 C 
ATOM     24  F   UNL     1       7.168   5.194  13.659  0.00  0.00    +0.000 F 
ATOM     25  F   UNL     1       6.096   3.372  14.217  0.00  0.00    +0.000 F 
ATOM     26  F   UNL     1       5.328   5.321  14.814  0.00  0.00    +0.000 F 
ENDBRANCH  22  23
ENDBRANCH  20  22
ENDBRANCH  17  19
ENDBRANCH   1  17
TORSDOF 5
ENDMDL
MODEL 6
REMARK VINA RESULT:      -8.1      2.733      5.251
REMARK  Name = 
REMARK  5 active torsions:
REMARK  status: ('A' for Active; 'I' for Inactive)
REMARK    1  A    between atoms: C_2  and  C_3
REMARK    2  A    between atoms: C_3  and  N_4
REMARK    3  A    between atoms: C_9  and  C_10
REMARK    4  A    between atoms: N_19  and  C_20
REMARK    5  A    between atoms: C_20  and  C_21
REMARK                            x       y       z     vdW  Elec       q    Type
REMARK                         _______ _______ _______ _____ _____    ______ ____
ROOT
ATOM      1  N   UNL     1       5.833   5.081  18.397  0.00  0.00    +0.000 NA
ATOM      2  C   UNL     1       7.297   4.984  18.510  0.00  0.00    +0.000 C 
ATOM      3  C   UNL     1       7.961   6.363  18.627  0.00  0.00    +0.000 C 
ATOM      4  C   UNL     1       7.515   7.358  17.562  0.00  0.00    +0.000 C 
ATOM      5  C   UNL     1       6.001   7.341  17.384  0.00  0.00    +0.000 C 
ATOM      6  C   UNL     1       5.420   5.921  17.245  0.00  0.00    +0.000 C 
ENDROOT
BRANCH   6   7
ATOM      7  C   UNL     1       5.701   5.329  15.879  0.00  0.00    +0.000 A 
ATOM      8  C   UNL     1       5.070   4.349  15.130  0.00  0.00    +0.000 A 
ATOM      9  C   UNL     1       5.787   4.160  13.920  0.00  0.00    +0.000 A 
ATOM     10  C   UNL     1       5.620   3.310  12.810  0.00  0.00    +0.000 A 
ATOM     11  C   UNL     1       6.537   3.378  11.756  0.00  0.00    +0.000 A 
ATOM     12  C   UNL     1       7.603   4.274  11.802  0.00  0.00    +0.000 A 
ATOM     13  C   UNL     1       7.788   5.124  12.898  0.00  0.00    +0.000 A 
ATOM     14  C   UNL     1       6.861   5.044  13.944  0.00  0.00    +0.000 A 
ATOM     15  N   UNL     1       6.786   5.739  15.130  0.00  0.00    +0.000 N 
ATOM     16  H   UNL     1       7.450   6.448  15.409  0.00  0.00    +0.000 HD
ENDBRANCH   6   7
BRANCH   1  17
ATOM     17  C   UNL     1       5.171   3.749  18.343  0.00  0.00    +0.000 C 
BRANCH  17  19
ATOM     18  O   UNL     1       4.776   2.373  20.296  0.00  0.00    +0.000 OA
ATOM     19  C   UNL     1       4.451   3.359  19.641  0.00  0.00    +0.000 C 
ATOM     20  N   UNL     1       3.376   4.143  19.992  0.00  0.00    +0.000 N 
ATOM     21  H   UNL     1       3.089   4.851  19.322  0.00  0.00    +0.000 HD
BRANCH  20  22
ATOM     22  C   UNL     1       2.567   3.850  21.173  0.00  0.00    +0.000 C 
BRANCH  22  23
ATOM     23  C   UNL     1       1.309   3.007  20.933  0.00  0.00    +0.000 C 
ATOM     24  F   UNL     1       1.537   1.964  20.097  0.00  0.00    +0.000 F 
ATOM     25  F   UNL     1       0.801   2.513  22.082  0.00  0.00    +0.000 F 
ATOM     26  F   UNL     1       0.342   3.764  20.359  0.00  0.00    +0.000 F 
ENDBRANCH  22  23
ENDBRANCH  20  22
ENDBRANCH  17  19
ENDBRANCH   1  17
TORSDOF 5
ENDMDL
MODEL 7
REMARK VINA RESULT:      -7.9      0.946      1.119
REMARK  Name = 
REMARK  5 active torsions:
REMARK  status: ('A' for Active; 'I' for Inactive)
REMARK    1  A    between atoms: C_2  and  C_3
REMARK    2  A    between atoms: C_3  and  N_4
REMARK    3  A    between atoms: C_9  and  C_10
REMARK    4  A    between atoms: N_19  and  C_20
REMARK    5  A    between atoms: C_20  and  C_21
REMARK                            x       y       z     vdW  Elec       q    Type
REMARK                         _______ _______ _______ _____ _____    ______ ____
ROOT
ATOM      1  N   UNL     1       4.627   4.050  17.451  0.00  0.00    +0.000 NA
ATOM      2  C   UNL     1       5.493   4.836  16.559  0.00  0.00    +0.000 C 
ATOM      3  C   UNL     1       6.864   5.122  17.186  0.00  0.00    +0.000 C 
ATOM      4  C   UNL     1       6.793   5.695  18.597  0.00  0.00    +0.000 C 
ATOM      5  C   UNL     1       5.793   4.932  19.457  0.00  0.00    +0.000 C 
ATOM      6  C   UNL     1       4.435   4.714  18.764  0.00  0.00    +0.000 C 
ENDROOT
BRANCH   6   7
ATOM      7  C   UNL     1       3.609   5.985  18.732  0.00  0.00    +0.000 A 
ATOM      8  C   UNL     1       3.429   6.966  17.770  0.00  0.00    +0.000 A 
ATOM      9  C   UNL     1       2.566   7.965  18.288  0.00  0.00    +0.000 A 
ATOM     10  C   UNL     1       2.053   9.172  17.774  0.00  0.00    +0.000 A 
ATOM     11  C   UNL     1       1.204   9.946  18.572  0.00  0.00    +0.000 A 
ATOM     12  C   UNL     1       0.870   9.531  19.860  0.00  0.00    +0.000 A 
ATOM     13  C   UNL     1       1.372   8.337  20.389  0.00  0.00    +0.000 A 
ATOM     14  C   UNL     1       2.220   7.574  19.577  0.00  0.00    +0.000 A 
ATOM     15  N   UNL     1       2.857   6.378  19.821  0.00  0.00    +0.000 N 
ATOM     16  H   UNL     1       2.782   5.868  20.690  0.00  0.00    +0.000 HD
ENDBRANCH   6   7
BRANCH   1  17
ATOM     17  C   UNL     1       3.316   3.715  16.832  0.00  0.00    +0.000 C 
BRANCH  17  19
ATOM     18  O   UNL     1       1.088   3.765  17.776  0.00  0.00    +0.000 OA
ATOM     19  C   UNL     1       2.231   3.324  17.844  0.00  0.00    +0.000 C 
ATOM     20  N   UNL     1       2.633   2.501  18.870  0.00  0.00    +0.000 N 
ATOM     21  H   UNL     1       3.627   2.297  18.929  0.00  0.00    +0.000 HD
BRANCH  20  22
ATOM     22  C   UNL     1       1.715   2.098  19.934  0.00  0.00    +0.000 C 
BRANCH  22  23
ATOM     23  C   UNL     1       1.570   3.079  21.103  0.00  0.00    +0.000 C 
ATOM     24  F   UNL     1       2.761   3.591  21.500  0.00  0.00    +0.000 F 
ATOM     25  F   UNL     1       0.755   4.112  20.802  0.00  0.00    +0.000 F 
ATOM     26  F   UNL     1       1.038   2.447  22.178  0.00  0.00    +0.000 F 
ENDBRANCH  22  23
ENDBRANCH  20  22
ENDBRANCH  17  19
ENDBRANCH   1  17
TORSDOF 5
ENDMDL
MODEL 8
REMARK VINA RESULT:      -7.9      2.891      5.259
REMARK  Name = 
REMARK  5 active torsions:
REMARK  status: ('A' for Active; 'I' for Inactive)
REMARK    1  A    between atoms: C_2  and  C_3
REMARK    2  A    between atoms: C_3  and  N_4
REMARK    3  A    between atoms: C_9  and  C_10
REMARK    4  A    between atoms: N_19  and  C_20
REMARK    5  A    between atoms: C_20  and  C_21
REMARK                            x       y       z     vdW  Elec       q    Type
REMARK                         _______ _______ _______ _____ _____    ______ ____
ROOT
ATOM      1  N   UNL     1       6.033   5.522  18.644  0.00  0.00    +0.000 NA
ATOM      2  C   UNL     1       7.499   5.397  18.669  0.00  0.00    +0.000 C 
ATOM      3  C   UNL     1       8.197   6.763  18.642  0.00  0.00    +0.000 C 
ATOM      4  C   UNL     1       7.702   7.691  17.538  0.00  0.00    +0.000 C 
ATOM      5  C   UNL     1       6.179   7.699  17.461  0.00  0.00    +0.000 C 
ATOM      6  C   UNL     1       5.562   6.288  17.463  0.00  0.00    +0.000 C 
ENDROOT
BRANCH   6   7
ATOM      7  C   UNL     1       5.739   5.593  16.128  0.00  0.00    +0.000 A 
ATOM      8  C   UNL     1       4.983   4.653  15.449  0.00  0.00    +0.000 A 
ATOM      9  C   UNL     1       5.643   4.316  14.239  0.00  0.00    +0.000 A 
ATOM     10  C   UNL     1       5.353   3.431  13.183  0.00  0.00    +0.000 A 
ATOM     11  C   UNL     1       6.245   3.335  12.110  0.00  0.00    +0.000 A 
ATOM     12  C   UNL     1       7.407   4.104  12.085  0.00  0.00    +0.000 A 
ATOM     13  C   UNL     1       7.714   4.987  13.126  0.00  0.00    +0.000 A 
ATOM     14  C   UNL     1       6.811   5.071  14.192  0.00  0.00    +0.000 A 
ATOM     15  N   UNL     1       6.846   5.834  15.338  0.00  0.00    +0.000 N 
ATOM     16  H   UNL     1       7.592   6.476  15.563  0.00  0.00    +0.000 HD
ENDBRANCH   6   7
BRANCH   1  17
ATOM     17  C   UNL     1       5.343   4.206  18.730  0.00  0.00    +0.000 C 
BRANCH  17  19
ATOM     18  O   UNL     1       3.410   4.808  20.058  0.00  0.00    +0.000 OA
ATOM     19  C   UNL     1       3.840   4.310  19.021  0.00  0.00    +0.000 C 
ATOM     20  N   UNL     1       3.004   3.752  18.082  0.00  0.00    +0.000 N 
ATOM     21  H   UNL     1       3.446   3.238  17.325  0.00  0.00    +0.000 HD
BRANCH  20  22
ATOM     22  C   UNL     1       1.554   3.731  18.262  0.00  0.00    +0.000 C 
BRANCH  22  23
ATOM     23  C   UNL     1       1.002   2.594  19.130  0.00  0.00    +0.000 C 
ATOM     24  F   UNL     1      -0.032   1.948  18.538  0.00  0.00    +0.000 F 
ATOM     25  F   UNL     1       1.947   1.678  19.429  0.00  0.00    +0.000 F 
ATOM     26  F   UNL     1       0.535   3.088  20.303  0.00  0.00    +0.000 F 
ENDBRANCH  22  23
ENDBRANCH  20  22
ENDBRANCH  17  19
ENDBRANCH   1  17
TORSDOF 5
ENDMDL
MODEL 9
REMARK VINA RESULT:      -7.7      3.444      5.034
REMARK  Name = 
REMARK  5 active torsions:
REMARK  status: ('A' for Active; 'I' for Inactive)
REMARK    1  A    between atoms: C_2  and  C_3
REMARK    2  A    between atoms: C_3  and  N_4
REMARK    3  A    between atoms: C_9  and  C_10
REMARK    4  A    between atoms: N_19  and  C_20
REMARK    5  A    between atoms: C_20  and  C_21
REMARK                            x       y       z     vdW  Elec       q    Type
REMARK                         _______ _______ _______ _____ _____    ______ ____
ROOT
ATOM      1  N   UNL     1       4.020   4.307  18.902  0.00  0.00    +0.000 NA
ATOM      2  C   UNL     1       3.329   3.779  20.089  0.00  0.00    +0.000 C 
ATOM      3  C   UNL     1       2.178   2.835  19.717  0.00  0.00    +0.000 C 
ATOM      4  C   UNL     1       1.218   3.406  18.680  0.00  0.00    +0.000 C 
ATOM      5  C   UNL     1       1.970   4.055  17.525  0.00  0.00    +0.000 C 
ATOM      6  C   UNL     1       3.088   5.010  17.985  0.00  0.00    +0.000 C 
ENDROOT
BRANCH   6   7
ATOM      7  C   UNL     1       2.531   6.319  18.507  0.00  0.00    +0.000 A 
ATOM      8  C   UNL     1       2.299   7.548  17.911  0.00  0.00    +0.000 A 
ATOM      9  C   UNL     1       1.794   8.446  18.887  0.00  0.00    +0.000 A 
ATOM     10  C   UNL     1       1.400   9.797  18.857  0.00  0.00    +0.000 A 
ATOM     11  C   UNL     1       0.940  10.398  20.033  0.00  0.00    +0.000 A 
ATOM     12  C   UNL     1       0.871   9.671  21.220  0.00  0.00    +0.000 A 
ATOM     13  C   UNL     1       1.260   8.328  21.270  0.00  0.00    +0.000 A 
ATOM     14  C   UNL     1       1.719   7.742  20.084  0.00  0.00    +0.000 A 
ATOM     15  N   UNL     1       2.164   6.464  19.830  0.00  0.00    +0.000 N 
ATOM     16  H   UNL     1       2.219   5.738  20.531  0.00  0.00    +0.000 HD
ENDBRANCH   6   7
BRANCH   1  17
ATOM     17  C   UNL     1       5.176   5.177  19.249  0.00  0.00    +0.000 C 
BRANCH  17  19
ATOM     18  O   UNL     1       6.509   6.595  17.808  0.00  0.00    +0.000 OA
ATOM     19  C   UNL     1       6.117   5.461  18.070  0.00  0.00    +0.000 C 
ATOM     20  N   UNL     1       6.443   4.379  17.285  0.00  0.00    +0.000 N 
ATOM     21  H   UNL     1       5.964   3.507  17.489  0.00  0.00    +0.000 HD
BRANCH  20  22
ATOM     22  C   UNL     1       7.284   4.519  16.098  0.00  0.00    +0.000 C 
BRANCH  22  23
ATOM     23  C   UNL     1       6.545   4.604  14.758  0.00  0.00    +0.000 C 
ATOM     24  F   UNL     1       7.319   5.121  13.772  0.00  0.00    +0.000 F 
ATOM     25  F   UNL     1       6.101   3.398  14.345  0.00  0.00    +0.000 F 
ATOM     26  F   UNL     1       5.463   5.413  14.872  0.00  0.00    +0.000 F 
ENDBRANCH  22  23
ENDBRANCH  20  22
ENDBRANCH  17  19
ENDBRANCH   1  17
TORSDOF 5
ENDMDL
