MODEL 1
REMARK VINA RESULT:      -8.1      0.000      0.000
REMARK  Name = 
REMARK  5 active torsions:
REMARK  status: ('A' for Active; 'I' for Inactive)
REMARK    1  A    between atoms: C_2  and  C_3
REMARK    2  A    between atoms: C_3  and  C_4
REMARK    3  A    between atoms: C_4  and  N_5
REMARK    4  A    between atoms: N_17  and  C_18
REMARK    5  A    between atoms: C_21  and  N_22
REMARK                            x       y       z     vdW  Elec       q    Type
REMARK                         _______ _______ _______ _____ _____    ______ ____
ROOT
ATOM      1  C   UNL     1       8.096   7.293  18.366  0.00  0.00    +0.000 C 
ENDROOT
BRANCH   1   3
ATOM      2  O   UNL     1       7.637   9.485  17.603  0.00  0.00    +0.000 OA
ATOM      3  C   UNL     1       8.306   8.789  18.350  0.00  0.00    +0.000 C 
ATOM      4  N   UNL     1       9.279   9.330  19.149  0.00  0.00    +0.000 N 
ATOM      5  H   UNL     1       9.861   8.666  19.682  0.00  0.00    +0.000 HD
BRANCH   4   6
ATOM      6  C   UNL     1       9.623  10.720  19.261  0.00  0.00    +0.000 A 
ATOM      7  C   UNL     1       9.373  11.496  20.415  0.00  0.00    +0.000 A 
ATOM      8  C   UNL     1       9.722  12.851  20.454  0.00  0.00    +0.000 A 
ATOM      9  C   UNL     1      10.325  13.469  19.347  0.00  0.00    +0.000 A 
ATOM     10  C   UNL     1      10.588  12.697  18.200  0.00  0.00    +0.000 A 
ATOM     11  C   UNL     1      10.251  11.341  18.167  0.00  0.00    +0.000 A 
BRANCH   9  12
ATOM     12  N   UNL     1      10.660  14.858  19.379  0.00  0.00    +0.000 N 
ATOM     13  O   UNL     1       9.847  15.671  19.701  0.00  0.00    +0.000 OA
ATOM     14  O   UNL     1      11.862  15.263  19.026  0.00  0.00    +0.000 OA
ENDBRANCH   9  12
ENDBRANCH   4   6
ENDBRANCH   1   3
BRANCH   1  15
ATOM     15  C   UNL     1       7.102   6.769  17.297  0.00  0.00    +0.000 C 
BRANCH  15  16
ATOM     16  N   UNL     1       6.859   5.300  17.371  0.00  0.00    +0.000 NA
ATOM     17  C   UNL     1       6.597   4.791  18.738  0.00  0.00    +0.000 C 
ATOM     18  C   UNL     1       5.279   5.350  19.294  0.00  0.00    +0.000 C 
ATOM     19  N   UNL     1       4.201   4.970  18.389  0.00  0.00    +0.000 N 
ATOM     20  C   UNL     1       3.030   4.307  18.882  0.00  0.00    +0.000 A 
ATOM     21  C   UNL     1       2.579   4.542  20.200  0.00  0.00    +0.000 A 
ATOM     22  C   UNL     1       1.434   3.906  20.669  0.00  0.00    +0.000 A 
ATOM     23  C   UNL     1       0.745   3.027  19.841  0.00  0.00    +0.000 A 
ATOM     24  C   UNL     1       1.206   2.812  18.539  0.00  0.00    +0.000 A 
ATOM     25  N   UNL     1       2.315   3.461  18.085  0.00  0.00    +0.000 NA
ATOM     26  C   UNL     1       4.371   5.302  16.978  0.00  0.00    +0.000 C 
ATOM     27  C   UNL     1       5.762   4.853  16.473  0.00  0.00    +0.000 C 
ENDBRANCH  15  16
ENDBRANCH   1  15
TORSDOF 5
ENDMDL
MODEL 2
REMARK VINA RESULT:      -7.8      0.993      1.466
REMARK  Name = 
REMARK  5 active torsions:
REMARK  status: ('A' for Active; 'I' for Inactive)
REMARK    1  A    between atoms: C_2  and  C_3
REMARK    2  A    between atoms: C_3  and  C_4
REMARK    3  A    between atoms: C_4  and  N_5
REMARK    4  A    between atoms: N_17  and  C_18
REMARK    5  A    between atoms: C_21  and  N_22
REMARK                            x       y       z     vdW  Elec       q    Type
REMARK                         _______ _______ _______ _____ _____    ______ ____
ROOT
ATOM      1  C   UNL     1       8.286   7.769  18.647  0.00  0.00    +0.000 C 
ENDROOT
BRANCH   1   3
ATOM      2  O   UNL     1       7.700   9.689  17.393  0.00  0.00    +0.000 OA
ATOM      3  C   UNL     1       8.442   9.216  18.239  0.00  0.00    +0.000 C 
ATOM      4  N   UNL     1       9.447   9.957  18.802  0.00  0.00    +0.000 N 
ATOM      5  H   UNL     1      10.087   9.460  19.440  0.00  0.00    +0.000 HD
BRANCH   4   6
ATOM      6  C   UNL     1       9.749  11.336  18.535  0.00  0.00    +0.000 A 
ATOM      7  C   UNL     1      10.654  11.758  17.535  0.00  0.00    +0.000 A 
ATOM      8  C   UNL     1      10.913  13.118  17.335  0.00  0.00    +0.000 A 
ATOM      9  C   UNL     1      10.283  14.094  18.123  0.00  0.00    +0.000 A 
ATOM     10  C   UNL     1       9.370  13.679  19.111  0.00  0.00    +0.000 A 
ATOM     11  C   UNL     1       9.102  12.321  19.302  0.00  0.00    +0.000 A 
BRANCH   9  12
ATOM     12  N   UNL     1      10.566  15.482  17.933  0.00  0.00    +0.000 N 
ATOM     13  O   UNL     1      10.951  15.883  16.877  0.00  0.00    +0.000 OA
ATOM     14  O   UNL     1      10.432  16.333  18.929  0.00  0.00    +0.000 OA
ENDBRANCH   9  12
ENDBRANCH   4   6
ENDBRANCH   1   3
BRANCH   1  15
ATOM     15  C   UNL     1       7.440   6.912  17.670  0.00  0.00    +0.000 C 
BRANCH  15  16
ATOM     16  N   UNL     1       7.346   5.475  18.059  0.00  0.00    +0.000 NA
ATOM     17  C   UNL     1       6.667   5.234  19.353  0.00  0.00    +0.000 C 
ATOM     18  C   UNL     1       5.185   5.632  19.284  0.00  0.00    +0.000 C 
ATOM     19  N   UNL     1       4.553   4.860  18.221  0.00  0.00    +0.000 N 
ATOM     20  C   UNL     1       3.362   4.104  18.473  0.00  0.00    +0.000 A 
ATOM     21  C   UNL     1       2.444   4.528  19.461  0.00  0.00    +0.000 A 
ATOM     22  C   UNL     1       1.283   3.797  19.693  0.00  0.00    +0.000 A 
ATOM     23  C   UNL     1       1.037   2.641  18.959  0.00  0.00    +0.000 A 
ATOM     24  C   UNL     1       1.956   2.243  17.984  0.00  0.00    +0.000 A 
ATOM     25  N   UNL     1       3.077   2.982  17.751  0.00  0.00    +0.000 NA
ATOM     26  C   UNL     1       5.181   4.905  16.904  0.00  0.00    +0.000 C 
ATOM     27  C   UNL     1       6.701   4.638  17.014  0.00  0.00    +0.000 C 
ENDBRANCH  15  16
ENDBRANCH   1  15
TORSDOF 5
ENDMDL
MODEL 3
REMARK VINA RESULT:      -7.6      1.671      1.856
REMARK  Name = 
REMARK  5 active torsions:
REMARK  status: ('A' for Active; 'I' for Inactive)
REMARK    1  A    between atoms: C_2  and  C_3
REMARK    2  A    between atoms: C_3  and  C_4
REMARK    3  A    between atoms: C_4  and  N_5
REMARK    4  A    between atoms: N_17  and  C_18
REMARK    5  A    between atoms: C_21  and  N_22
REMARK                            x       y       z     vdW  Elec       q    Type
REMARK                         _______ _______ _______ _____ _____    ______ ____
ROOT
ATOM      1  C   UNL     1       8.495   8.227  18.534  0.00  0.00    +0.000 C 
ENDROOT
BRANCH   1   3
ATOM      2  O   UNL     1       9.060  10.047  19.937  0.00  0.00    +0.000 OA
ATOM      3  C   UNL     1       8.919   9.655  18.789  0.00  0.00    +0.000 C 
ATOM      4  N   UNL     1       9.094  10.495  17.722  0.00  0.00    +0.000 N 
ATOM      5  H   UNL     1       8.866  10.113  16.791  0.00  0.00    +0.000 HD
BRANCH   4   6
ATOM      6  C   UNL     1       9.486  11.876  17.772  0.00  0.00    +0.000 A 
ATOM      7  C   UNL     1       8.580  12.938  17.993  0.00  0.00    +0.000 A 
ATOM      8  C   UNL     1       9.026  14.264  18.017  0.00  0.00    +0.000 A 
ATOM      9  C   UNL     1      10.382  14.569  17.820  0.00  0.00    +0.000 A 
ATOM     10  C   UNL     1      11.290  13.514  17.613  0.00  0.00    +0.000 A 
ATOM     11  C   UNL     1      10.846  12.190  17.602  0.00  0.00    +0.000 A 
BRANCH   9  12
ATOM     12  N   UNL     1      10.833  15.926  17.822  0.00  0.00    +0.000 N 
ATOM     13  O   UNL     1      11.568  16.319  18.677  0.00  0.00    +0.000 OA
ATOM     14  O   UNL     1      10.423  16.767  16.896  0.00  0.00    +0.000 OA
ENDBRANCH   9  12
ENDBRANCH   4   6
ENDBRANCH   1   3
BRANCH   1  15
ATOM     15  C   UNL     1       7.244   8.076  17.632  0.00  0.00    +0.000 C 
BRANCH  15  16
ATOM     16  N   UNL     1       7.176   6.774  16.910  0.00  0.00    +0.000 NA
ATOM     17  C   UNL     1       7.406   5.587  17.766  0.00  0.00    +0.000 C 
ATOM     18  C   UNL     1       6.283   5.424  18.801  0.00  0.00    +0.000 C 
ATOM     19  N   UNL     1       5.017   5.305  18.088  0.00  0.00    +0.000 N 
ATOM     20  C   UNL     1       4.128   4.212  18.350  0.00  0.00    +0.000 A 
ATOM     21  C   UNL     1       4.094   3.611  19.629  0.00  0.00    +0.000 A 
ATOM     22  C   UNL     1       3.219   2.558  19.881  0.00  0.00    +0.000 A 
ATOM     23  C   UNL     1       2.392   2.090  18.866  0.00  0.00    +0.000 A 
ATOM     24  C   UNL     1       2.439   2.702  17.610  0.00  0.00    +0.000 A 
ATOM     25  N   UNL     1       3.283   3.748  17.385  0.00  0.00    +0.000 NA
ATOM     26  C   UNL     1       4.702   6.347  17.116  0.00  0.00    +0.000 C 
ATOM     27  C   UNL     1       5.901   6.592  16.169  0.00  0.00    +0.000 C 
ENDBRANCH  15  16
ENDBRANCH   1  15
TORSDOF 5
ENDMDL
MODEL 4
REMARK VINA RESULT:      -7.6      1.690      1.979
REMARK  Name = 
REMARK  5 active torsions:
REMARK  status: ('A' for Active; 'I' for Inactive)
REMARK    1  A    between atoms: C_2  and  C_3
REMARK    2  A    between atoms: C_3  and  C_4
REMARK    3  A    between atoms: C_4  and  N_5
REMARK    4  A    between atoms: N_17  and  C_18
REMARK    5  A    between atoms: C_21  and  N_22
REMARK                            x       y       z     vdW  Elec       q    Type
REMARK                         _______ _______ _______ _____ _____    ______ ____
ROOT
ATOM      1  C   UNL     1       8.524   8.282  18.585  0.00  0.00    +0.000 C 
ENDROOT
BRANCH   1   3
ATOM      2  O   UNL     1       9.224  10.095  19.936  0.00  0.00    +0.000 OA
ATOM      3  C   UNL     1       8.958   9.713  18.807  0.00  0.00    +0.000 C 
ATOM      4  N   UNL     1       9.003  10.565  17.736  0.00  0.00    +0.000 N 
ATOM      5  H   UNL     1       8.676  10.190  16.832  0.00  0.00    +0.000 HD
BRANCH   4   6
ATOM      6  C   UNL     1       9.383  11.951  17.757  0.00  0.00    +0.000 A 
ATOM      7  C   UNL     1      10.721  12.395  17.652  0.00  0.00    +0.000 A 
ATOM      8  C   UNL     1      11.025  13.760  17.692  0.00  0.00    +0.000 A 
ATOM      9  C   UNL     1      10.010  14.718  17.841  0.00  0.00    +0.000 A 
ATOM     10  C   UNL     1       8.675  14.281  17.932  0.00  0.00    +0.000 A 
ATOM     11  C   UNL     1       8.371  12.918  17.880  0.00  0.00    +0.000 A 
BRANCH   9  12
ATOM     12  N   UNL     1      10.323  16.111  17.906  0.00  0.00    +0.000 N 
ATOM     13  O   UNL     1      10.287  16.693  18.948  0.00  0.00    +0.000 OA
ATOM     14  O   UNL     1      10.629  16.778  16.813  0.00  0.00    +0.000 OA
ENDBRANCH   9  12
ENDBRANCH   4   6
ENDBRANCH   1   3
BRANCH   1  15
ATOM     15  C   UNL     1       7.294   8.118  17.655  0.00  0.00    +0.000 C 
BRANCH  15  16
ATOM     16  N   UNL     1       7.244   6.804  16.952  0.00  0.00    +0.000 NA
ATOM     17  C   UNL     1       7.442   5.630  17.833  0.00  0.00    +0.000 C 
ATOM     18  C   UNL     1       6.286   5.487  18.834  0.00  0.00    +0.000 C 
ATOM     19  N   UNL     1       5.042   5.362  18.084  0.00  0.00    +0.000 N 
ATOM     20  C   UNL     1       4.142   4.277  18.335  0.00  0.00    +0.000 A 
ATOM     21  C   UNL     1       4.065   3.696  19.621  0.00  0.00    +0.000 A 
ATOM     22  C   UNL     1       3.179   2.650  19.862  0.00  0.00    +0.000 A 
ATOM     23  C   UNL     1       2.381   2.170  18.829  0.00  0.00    +0.000 A 
ATOM     24  C   UNL     1       2.470   2.762  17.566  0.00  0.00    +0.000 A 
ATOM     25  N   UNL     1       3.325   3.801  17.350  0.00  0.00    +0.000 NA
ATOM     26  C   UNL     1       4.763   6.390  17.086  0.00  0.00    +0.000 C 
ATOM     27  C   UNL     1       5.991   6.616  16.174  0.00  0.00    +0.000 C 
ENDBRANCH  15  16
ENDBRANCH   1  15
TORSDOF 5
ENDMDL
MODEL 5
REMARK VINA RESULT:      -7.5      6.059      7.755
REMARK  Name = 
REMARK  5 active torsions:
REMARK  status: ('A' for Active; 'I' for Inactive)
REMARK    1  A    between atoms: C_2  and  C_3
REMARK    2  A    between atoms: C_3  and  C_4
REMARK    3  A    between atoms: C_4  and  N_5
REMARK    4  A    between atoms: N_17  and  C_18
REMARK    5  A    between atoms: C_21  and  N_22
REMARK                            x       y       z     vdW  Elec       q    Type
REMARK                         _______ _______ _______ _____ _____    ______ ____
ROOT
ATOM      1  C   UNL     1       2.269   3.714  21.217  0.00  0.00    +0.000 C 
ENDROOT
BRANCH   1   3
ATOM      2  O   UNL     1       0.440   4.948  20.360  0.00  0.00    +0.000 OA
ATOM      3  C   UNL     1       1.589   4.989  20.771  0.00  0.00    +0.000 C 
ATOM      4  N   UNL     1       2.296   6.161  20.799  0.00  0.00    +0.000 N 
ATOM      5  H   UNL     1       3.289   6.096  21.072  0.00  0.00    +0.000 HD
BRANCH   4   6
ATOM      6  C   UNL     1       1.820   7.460  20.410  0.00  0.00    +0.000 A 
ATOM      7  C   UNL     1       1.968   7.989  19.108  0.00  0.00    +0.000 A 
ATOM      8  C   UNL     1       1.492   9.268  18.799  0.00  0.00    +0.000 A 
ATOM      9  C   UNL     1       0.860  10.055  19.775  0.00  0.00    +0.000 A 
ATOM     10  C   UNL     1       0.698   9.527  21.069  0.00  0.00    +0.000 A 
ATOM     11  C   UNL     1       1.163   8.245  21.374  0.00  0.00    +0.000 A 
BRANCH   9  12
ATOM     12  N   UNL     1       0.395  11.370  19.464  0.00  0.00    +0.000 N 
ATOM     13  O   UNL     1       0.541  12.264  20.242  0.00  0.00    +0.000 OA
ATOM     14  O   UNL     1      -0.225  11.608  18.327  0.00  0.00    +0.000 OA
ENDBRANCH   9  12
ENDBRANCH   4   6
ENDBRANCH   1   3
BRANCH   1  15
ATOM     15  C   UNL     1       2.144   2.534  20.220  0.00  0.00    +0.000 C 
BRANCH  15  16
ATOM     16  N   UNL     1       3.455   1.947  19.817  0.00  0.00    +0.000 NA
ATOM     17  C   UNL     1       3.511   1.480  18.412  0.00  0.00    +0.000 C 
ATOM     18  C   UNL     1       3.387   2.657  17.432  0.00  0.00    +0.000 C 
ATOM     19  N   UNL     1       4.468   3.596  17.705  0.00  0.00    +0.000 N 
ATOM     20  C   UNL     1       5.334   4.042  16.654  0.00  0.00    +0.000 A 
ATOM     21  C   UNL     1       4.858   4.126  15.326  0.00  0.00    +0.000 A 
ATOM     22  C   UNL     1       5.700   4.572  14.311  0.00  0.00    +0.000 A 
ATOM     23  C   UNL     1       7.014   4.920  14.607  0.00  0.00    +0.000 A 
ATOM     24  C   UNL     1       7.461   4.833  15.928  0.00  0.00    +0.000 A 
ATOM     25  N   UNL     1       6.619   4.418  16.916  0.00  0.00    +0.000 NA
ATOM     26  C   UNL     1       4.614   4.059  19.082  0.00  0.00    +0.000 C 
ATOM     27  C   UNL     1       4.597   2.865  20.065  0.00  0.00    +0.000 C 
ENDBRANCH  15  16
ENDBRANCH   1  15
TORSDOF 5
ENDMDL
MODEL 6
REMARK VINA RESULT:      -7.5      1.028      1.583
REMARK  Name = 
REMARK  5 active torsions:
REMARK  status: ('A' for Active; 'I' for Inactive)
REMARK    1  A    between atoms: C_2  and  C_3
REMARK    2  A    between atoms: C_3  and  C_4
REMARK    3  A    between atoms: C_4  and  N_5
REMARK    4  A    between atoms: N_17  and  C_18
REMARK    5  A    between atoms: C_21  and  N_22
REMARK                            x       y       z     vdW  Elec       q    Type
REMARK                         _______ _______ _______ _____ _____    ______ ____
ROOT
ATOM      1  C   UNL     1       7.783   6.957  18.202  0.00  0.00    +0.000 C 
ENDROOT
BRANCH   1   3
ATOM      2  O   UNL     1       7.760   9.097  17.193  0.00  0.00    +0.000 OA
ATOM      3  C   UNL     1       8.139   8.424  18.138  0.00  0.00    +0.000 C 
ATOM      4  N   UNL     1       8.921   8.959  19.127  0.00  0.00    +0.000 N 
ATOM      5  H   UNL     1       9.276   8.304  19.841  0.00  0.00    +0.000 HD
BRANCH   4   6
ATOM      6  C   UNL     1       9.362  10.322  19.230  0.00  0.00    +0.000 A 
ATOM      7  C   UNL     1       9.424  11.034  20.449  0.00  0.00    +0.000 A 
ATOM      8  C   UNL     1       9.851  12.366  20.477  0.00  0.00    +0.000 A 
ATOM      9  C   UNL     1      10.225  13.026  19.296  0.00  0.00    +0.000 A 
ATOM     10  C   UNL     1      10.178  12.317  18.081  0.00  0.00    +0.000 A 
ATOM     11  C   UNL     1       9.763  10.983  18.055  0.00  0.00    +0.000 A 
BRANCH   9  12
ATOM     12  N   UNL     1      10.639  14.393  19.323  0.00  0.00    +0.000 N 
ATOM     13  O   UNL     1      10.083  15.209  18.650  0.00  0.00    +0.000 OA
ATOM     14  O   UNL     1      11.658  14.768  20.068  0.00  0.00    +0.000 OA
ENDBRANCH   9  12
ENDBRANCH   4   6
ENDBRANCH   1   3
BRANCH   1  15
ATOM     15  C   UNL     1       7.376   6.332  16.843  0.00  0.00    +0.000 C 
BRANCH  15  16
ATOM     16  N   UNL     1       5.957   6.590  16.463  0.00  0.00    +0.000 NA
ATOM     17  C   UNL     1       5.310   5.483  15.722  0.00  0.00    +0.000 C 
ATOM     18  C   UNL     1       5.170   4.233  16.604  0.00  0.00    +0.000 C 
ATOM     19  N   UNL     1       4.389   4.588  17.782  0.00  0.00    +0.000 N 
ATOM     20  C   UNL     1       3.237   3.822  18.155  0.00  0.00    +0.000 A 
ATOM     21  C   UNL     1       3.165   2.444  17.847  0.00  0.00    +0.000 A 
ATOM     22  C   UNL     1       2.050   1.703  18.223  0.00  0.00    +0.000 A 
ATOM     23  C   UNL     1       1.000   2.325  18.889  0.00  0.00    +0.000 A 
ATOM     24  C   UNL     1       1.093   3.687  19.188  0.00  0.00    +0.000 A 
ATOM     25  N   UNL     1       2.202   4.396  18.835  0.00  0.00    +0.000 NA
ATOM     26  C   UNL     1       4.839   5.741  18.555  0.00  0.00    +0.000 C 
ATOM     27  C   UNL     1       5.107   6.950  17.628  0.00  0.00    +0.000 C 
ENDBRANCH  15  16
ENDBRANCH   1  15
TORSDOF 5
ENDMDL
MODEL 7
REMARK VINA RESULT:      -7.5      3.179     10.812
REMARK  Name = 
REMARK  5 active torsions:
REMARK  status: ('A' for Active; 'I' for Inactive)
REMARK    1  A    between atoms: C_2  and  C_3
REMARK    2  A    between atoms: C_3  and  C_4
REMARK    3  A    between atoms: C_4  and  N_5
REMARK    4  A    between atoms: N_17  and  C_18
REMARK    5  A    between atoms: C_21  and  N_22
REMARK                            x       y       z     vdW  Elec       q    Type
REMARK                         _______ _______ _______ _____ _____    ______ ____
ROOT
ATOM      1  C   UNL     1       8.551   9.037  17.590  0.00  0.00    +0.000 C 
ENDROOT
BRANCH   1   3
ATOM      2  O   UNL     1       8.099   6.978  18.667  0.00  0.00    +0.000 OA
ATOM      3  C   UNL     1       7.739   7.783  17.823  0.00  0.00    +0.000 C 
ATOM      4  N   UNL     1       6.633   7.557  17.048  0.00  0.00    +0.000 N 
ATOM      5  H   UNL     1       6.447   8.240  16.296  0.00  0.00    +0.000 HD
BRANCH   4   6
ATOM      6  C   UNL     1       5.749   6.427  17.122  0.00  0.00    +0.000 A 
ATOM      7  C   UNL     1       6.117   5.121  16.726  0.00  0.00    +0.000 A 
ATOM      8  C   UNL     1       5.203   4.065  16.812  0.00  0.00    +0.000 A 
ATOM      9  C   UNL     1       3.900   4.280  17.289  0.00  0.00    +0.000 A 
ATOM     10  C   UNL     1       3.534   5.576  17.697  0.00  0.00    +0.000 A 
ATOM     11  C   UNL     1       4.451   6.627  17.623  0.00  0.00    +0.000 A 
BRANCH   9  12
ATOM     12  N   UNL     1       2.960   3.205  17.355  0.00  0.00    +0.000 N 
ATOM     13  O   UNL     1       1.802   3.398  17.136  0.00  0.00    +0.000 OA
ATOM     14  O   UNL     1       3.353   1.993  17.685  0.00  0.00    +0.000 OA
ENDBRANCH   9  12
ENDBRANCH   4   6
ENDBRANCH   1   3
BRANCH   1  15
ATOM     15  C   UNL     1       8.631   9.990  18.810  0.00  0.00    +0.000 C 
BRANCH  15  16
ATOM     16  N   UNL     1       9.958  10.649  18.972  0.00  0.00    +0.000 NA
ATOM     17  C   UNL     1      10.359  11.507  17.832  0.00  0.00    +0.000 C 
ATOM     18  C   UNL     1       9.427  12.720  17.697  0.00  0.00    +0.000 C 
ATOM     19  N   UNL     1       9.470  13.472  18.946  0.00  0.00    +0.000 N 
ATOM     20  C   UNL     1       9.748  14.878  18.945  0.00  0.00    +0.000 A 
ATOM     21  C   UNL     1       9.383  15.677  17.838  0.00  0.00    +0.000 A 
ATOM     22  C   UNL     1       9.644  17.044  17.849  0.00  0.00    +0.000 A 
ATOM     23  C   UNL     1      10.278  17.617  18.946  0.00  0.00    +0.000 A 
ATOM     24  C   UNL     1      10.627  16.808  20.031  0.00  0.00    +0.000 A 
ATOM     25  N   UNL     1      10.344  15.475  20.017  0.00  0.00    +0.000 NA
ATOM     26  C   UNL     1       9.210  12.731  20.176  0.00  0.00    +0.000 C 
ATOM     27  C   UNL     1      10.059  11.439  20.227  0.00  0.00    +0.000 C 
ENDBRANCH  15  16
ENDBRANCH   1  15
TORSDOF 5
ENDMDL
MODEL 8
REMARK VINA RESULT:      -7.4      1.407      1.708
REMARK  Name = 
REMARK  5 active torsions:
REMARK  status: ('A' for Active; 'I' for Inactive)
REMARK    1  A    between atoms: C_2  and  C_3
REMARK    2  A    between atoms: C_3  and  C_4
REMARK    3  A    between atoms: C_4  and  N_5
REMARK    4  A    between atoms: N_17  and  C_18
REMARK    5  A    between atoms: C_21  and  N_22
REMARK                            x       y       z     vdW  Elec       q    Type
REMARK                         _______ _______ _______ _____ _____    ______ ____
ROOT
ATOM      1  C   UNL     1       7.946   8.751  17.598  0.00  0.00    +0.000 C 
ENDROOT
BRANCH   1   3
ATOM      2  O   UNL     1       9.163   9.520  19.477  0.00  0.00    +0.000 OA
ATOM      3  C   UNL     1       8.719   9.794  18.373  0.00  0.00    +0.000 C 
ATOM      4  N   UNL     1       8.868  11.044  17.834  0.00  0.00    +0.000 N 
ATOM      5  H   UNL     1       8.386  11.222  16.939  0.00  0.00    +0.000 HD
BRANCH   4   6
ATOM      6  C   UNL     1       9.561  12.156  18.424  0.00  0.00    +0.000 A 
ATOM      7  C   UNL     1      10.931  12.128  18.770  0.00  0.00    +0.000 A 
ATOM      8  C   UNL     1      11.542  13.242  19.354  0.00  0.00    +0.000 A 
ATOM      9  C   UNL     1      10.809  14.412  19.612  0.00  0.00    +0.000 A 
ATOM     10  C   UNL     1       9.448  14.449  19.256  0.00  0.00    +0.000 A 
ATOM     11  C   UNL     1       8.841  13.340  18.662  0.00  0.00    +0.000 A 
BRANCH   9  12
ATOM     12  N   UNL     1      11.429  15.541  20.230  0.00  0.00    +0.000 N 
ATOM     13  O   UNL     1      12.224  16.200  19.630  0.00  0.00    +0.000 OA
ATOM     14  O   UNL     1      11.152  15.855  21.478  0.00  0.00    +0.000 OA
ENDBRANCH   9  12
ENDBRANCH   4   6
ENDBRANCH   1   3
BRANCH   1  15
ATOM     15  C   UNL     1       7.941   7.341  18.242  0.00  0.00    +0.000 C 
BRANCH  15  16
ATOM     16  N   UNL     1       7.402   6.275  17.350  0.00  0.00    +0.000 NA
ATOM     17  C   UNL     1       7.201   4.966  18.013  0.00  0.00    +0.000 C 
ATOM     18  C   UNL     1       6.106   5.051  19.088  0.00  0.00    +0.000 C 
ATOM     19  N   UNL     1       4.874   5.499  18.452  0.00  0.00    +0.000 N 
ATOM     20  C   UNL     1       3.655   4.764  18.617  0.00  0.00    +0.000 A 
ATOM     21  C   UNL     1       3.423   4.022  19.797  0.00  0.00    +0.000 A 
ATOM     22  C   UNL     1       2.232   3.320  19.957  0.00  0.00    +0.000 A 
ATOM     23  C   UNL     1       1.279   3.339  18.944  0.00  0.00    +0.000 A 
ATOM     24  C   UNL     1       1.527   4.082  17.787  0.00  0.00    +0.000 A 
ATOM     25  N   UNL     1       2.688   4.784  17.654  0.00  0.00    +0.000 NA
ATOM     26  C   UNL     1       4.942   6.723  17.659  0.00  0.00    +0.000 C 
ATOM     27  C   UNL     1       6.137   6.673  16.678  0.00  0.00    +0.000 C 
ENDBRANCH  15  16
ENDBRANCH   1  15
TORSDOF 5
ENDMDL
MODEL 9
REMARK VINA RESULT:      -7.3      6.111      9.223
REMARK  Name = 
REMARK  5 active torsions:
REMARK  status: ('A' for Active; 'I' for Inactive)
REMARK    1  A    between atoms: C_2  and  C_3
REMARK    2  A    between atoms: C_3  and  C_4
REMARK    3  A    between atoms: C_4  and  N_5
REMARK    4  A    between atoms: N_17  and  C_18
REMARK    5  A    between atoms: C_21  and  N_22
REMARK                            x       y       z     vdW  Elec       q    Type
REMARK                         _______ _______ _______ _____ _____    ______ ____
ROOT
ATOM      1  C   UNL     1       1.868   6.124  20.659  0.00  0.00    +0.000 C 
ENDROOT
BRANCH   1   3
ATOM      2  O   UNL     1       2.118   6.694  18.376  0.00  0.00    +0.000 OA
ATOM      3  C   UNL     1       2.600   6.115  19.337  0.00  0.00    +0.000 C 
ATOM      4  N   UNL     1       3.774   5.418  19.235  0.00  0.00    +0.000 N 
ATOM      5  H   UNL     1       4.067   4.881  20.066  0.00  0.00    +0.000 HD
BRANCH   4   6
ATOM      6  C   UNL     1       4.599   5.293  18.066  0.00  0.00    +0.000 A 
ATOM      7  C   UNL     1       5.707   6.129  17.798  0.00  0.00    +0.000 A 
ATOM      8  C   UNL     1       6.462   5.963  16.632  0.00  0.00    +0.000 A 
ATOM      9  C   UNL     1       6.136   4.963  15.702  0.00  0.00    +0.000 A 
ATOM     10  C   UNL     1       5.043   4.119  15.971  0.00  0.00    +0.000 A 
ATOM     11  C   UNL     1       4.296   4.278  17.141  0.00  0.00    +0.000 A 
BRANCH   9  12
ATOM     12  N   UNL     1       6.894   4.808  14.500  0.00  0.00    +0.000 N 
ATOM     13  O   UNL     1       7.846   5.499  14.290  0.00  0.00    +0.000 OA
ATOM     14  O   UNL     1       6.538   3.921  13.595  0.00  0.00    +0.000 OA
ENDBRANCH   9  12
ENDBRANCH   4   6
ENDBRANCH   1   3
BRANCH   1  15
ATOM     15  C   UNL     1       0.880   7.305  20.841  0.00  0.00    +0.000 C 
BRANCH  15  16
ATOM     16  N   UNL     1       1.547   8.628  21.004  0.00  0.00    +0.000 NA
ATOM     17  C   UNL     1       1.081   9.670  20.060  0.00  0.00    +0.000 C 
ATOM     18  C   UNL     1      -0.390  10.033  20.318  0.00  0.00    +0.000 C 
ATOM     19  N   UNL     1      -0.513  10.495  21.695  0.00  0.00    +0.000 N 
ATOM     20  C   UNL     1      -1.135  11.751  21.993  0.00  0.00    +0.000 A 
ATOM     21  C   UNL     1      -2.149  12.262  21.151  0.00  0.00    +0.000 A 
ATOM     22  C   UNL     1      -2.758  13.477  21.453  0.00  0.00    +0.000 A 
ATOM     23  C   UNL     1      -2.355  14.191  22.576  0.00  0.00    +0.000 A 
ATOM     24  C   UNL     1      -1.353  13.665  23.396  0.00  0.00    +0.000 A 
ATOM     25  N   UNL     1      -0.782  12.464  23.102  0.00  0.00    +0.000 NA
ATOM     26  C   UNL     1       0.014   9.622  22.739  0.00  0.00    +0.000 C 
ATOM     27  C   UNL     1       1.447   9.156  22.390  0.00  0.00    +0.000 C 
ENDBRANCH  15  16
ENDBRANCH   1  15
TORSDOF 5
ENDMDL
