MODEL 1
REMARK VINA RESULT:      -6.6      0.000      0.000
REMARK  Name = 
REMARK  16 active torsions:
REMARK  status: ('A' for Active; 'I' for Inactive)
REMARK    1  A    between atoms: C_1  and  C_2
REMARK    2  A    between atoms: C_2  and  C_3
REMARK    3  A    between atoms: C_3  and  C_4
REMARK    4  A    between atoms: C_4  and  C_5
REMARK    5  A    between atoms: C_5  and  C_6
REMARK    6  A    between atoms: C_6  and  C_7
REMARK    7  A    between atoms: C_7  and  C_8
REMARK    8  A    between atoms: C_8  and  C_9
REMARK    9  A    between atoms: C_9  and  C_10
REMARK   10  A    between atoms: C_10  and  C_11
REMARK   11  A    between atoms: N_15  and  C_16
REMARK   12  A    between atoms: C_16  and  O_17
REMARK   13  A    between atoms: O_17  and  C_18
REMARK   14  A    between atoms: C_18  and  C_19
REMARK   15  A    between atoms: C_19  and  O_20
REMARK   16  A    between atoms: C_21  and  O_22
REMARK                            x       y       z     vdW  Elec       q    Type
REMARK                         _______ _______ _______ _____ _____    ______ ____
ROOT
ATOM      1  C   UNL     1       3.819   3.632  17.714  0.00  0.00    +0.000 A 
ATOM      2  C   UNL     1       3.991   4.712  16.927  0.00  0.00    +0.000 A 
ATOM      3  C   UNL     1       5.173   5.325  17.417  0.00  0.00    +0.000 A 
ATOM      4  C   UNL     1       5.907   6.399  17.107  0.00  0.00    +0.000 A 
ATOM      5  N   UNL     1       7.073   6.704  17.812  0.00  0.00    +0.000 N 
ATOM      6  C   UNL     1       7.376   5.836  18.872  0.00  0.00    +0.000 A 
ATOM      7  N   UNL     1       6.719   4.778  19.245  0.00  0.00    +0.000 NA
ATOM      8  C   UNL     1       5.603   4.471  18.528  0.00  0.00    +0.000 A 
ATOM      9  N   UNL     1       4.789   3.451  18.703  0.00  0.00    +0.000 NA
ENDROOT
BRANCH   6  10
ATOM     10  O   UNL     1       8.468   6.129  19.598  0.00  0.00    +0.000 OA
ATOM     11  H   UNL     1       9.211   5.557  19.358  0.00  0.00    +0.000 HD
ENDBRANCH   6  10
BRANCH   1  12
ATOM     12  C   UNL     1       2.692   2.652  17.594  0.00  0.00    +0.000 C 
BRANCH  12  13
ATOM     13  C   UNL     1       1.340   3.342  17.767  0.00  0.00    +0.000 C 
BRANCH  13  14
ATOM     14  C   UNL     1       0.578   2.774  18.962  0.00  0.00    +0.000 C 
BRANCH  14  15
ATOM     15  C   UNL     1       1.546   2.345  20.060  0.00  0.00    +0.000 C 
BRANCH  15  16
ATOM     16  C   UNL     1       1.425   3.248  21.285  0.00  0.00    +0.000 C 
BRANCH  16  17
ATOM     17  C   UNL     1       2.407   4.413  21.194  0.00  0.00    +0.000 C 
BRANCH  17  18
ATOM     18  C   UNL     1       1.719   5.663  20.655  0.00  0.00    +0.000 C 
BRANCH  18  19
ATOM     19  C   UNL     1       2.642   6.420  19.703  0.00  0.00    +0.000 C 
BRANCH  19  21
ATOM     20  C   UNL     1       2.636   8.244  17.980  0.00  0.00    +0.000 C 
ATOM     21  C   UNL     1       2.020   7.746  19.276  0.00  0.00    +0.000 C 
ENDBRANCH  19  21
ENDBRANCH  18  19
ENDBRANCH  17  18
ENDBRANCH  16  17
ENDBRANCH  15  16
ENDBRANCH  14  15
ENDBRANCH  13  14
ENDBRANCH  12  13
ENDBRANCH   1  12
BRANCH   5  22
ATOM     22  C   UNL     1       7.816   7.899  17.428  0.00  0.00    +0.000 C 
BRANCH  22  23
ATOM     23  O   UNL     1       8.289   8.626  18.560  0.00  0.00    +0.000 OA
BRANCH  23  24
ATOM     24  C   UNL     1       8.716   9.949  18.188  0.00  0.00    +0.000 C 
BRANCH  24  25
ATOM     25  C   UNL     1       9.577  10.515  19.310  0.00  0.00    +0.000 C 
BRANCH  25  26
ATOM     26  O   UNL     1      10.607  11.338  18.776  0.00  0.00    +0.000 OA
ATOM     27  H   UNL     1      10.328  12.266  18.880  0.00  0.00    +0.000 HD
ENDBRANCH  25  26
ENDBRANCH  24  25
ENDBRANCH  23  24
ENDBRANCH  22  23
ENDBRANCH   5  22
TORSDOF 15
ENDMDL
MODEL 2
REMARK VINA RESULT:      -5.9      4.818      7.397
REMARK  Name = 
REMARK  16 active torsions:
REMARK  status: ('A' for Active; 'I' for Inactive)
REMARK    1  A    between atoms: C_1  and  C_2
REMARK    2  A    between atoms: C_2  and  C_3
REMARK    3  A    between atoms: C_3  and  C_4
REMARK    4  A    between atoms: C_4  and  C_5
REMARK    5  A    between atoms: C_5  and  C_6
REMARK    6  A    between atoms: C_6  and  C_7
REMARK    7  A    between atoms: C_7  and  C_8
REMARK    8  A    between atoms: C_8  and  C_9
REMARK    9  A    between atoms: C_9  and  C_10
REMARK   10  A    between atoms: C_10  and  C_11
REMARK   11  A    between atoms: N_15  and  C_16
REMARK   12  A    between atoms: C_16  and  O_17
REMARK   13  A    between atoms: O_17  and  C_18
REMARK   14  A    between atoms: C_18  and  C_19
REMARK   15  A    between atoms: C_19  and  O_20
REMARK   16  A    between atoms: C_21  and  O_22
REMARK                            x       y       z     vdW  Elec       q    Type
REMARK                         _______ _______ _______ _____ _____    ______ ____
ROOT
ATOM      1  C   UNL     1       3.855   5.605  17.626  0.00  0.00    +0.000 A 
ATOM      2  C   UNL     1       3.581   6.813  17.099  0.00  0.00    +0.000 A 
ATOM      3  C   UNL     1       2.815   7.472  18.096  0.00  0.00    +0.000 A 
ATOM      4  C   UNL     1       2.235   8.669  18.239  0.00  0.00    +0.000 A 
ATOM      5  N   UNL     1       1.554   9.004  19.411  0.00  0.00    +0.000 N 
ATOM      6  C   UNL     1       1.495   7.991  20.381  0.00  0.00    +0.000 A 
ATOM      7  N   UNL     1       2.022   6.804  20.322  0.00  0.00    +0.000 NA
ATOM      8  C   UNL     1       2.713   6.501  19.189  0.00  0.00    +0.000 A 
ATOM      9  N   UNL     1       3.342   5.380  18.906  0.00  0.00    +0.000 NA
ENDROOT
BRANCH   6  10
ATOM     10  O   UNL     1       0.807   8.269  21.500  0.00  0.00    +0.000 OA
ATOM     11  H   UNL     1       0.499   7.458  21.932  0.00  0.00    +0.000 HD
ENDBRANCH   6  10
BRANCH   1  12
ATOM     12  C   UNL     1       4.647   4.530  16.946  0.00  0.00    +0.000 C 
BRANCH  12  13
ATOM     13  C   UNL     1       6.136   4.659  17.263  0.00  0.00    +0.000 C 
BRANCH  13  14
ATOM     14  C   UNL     1       6.973   4.688  15.987  0.00  0.00    +0.000 C 
BRANCH  14  15
ATOM     15  C   UNL     1       6.363   3.778  14.925  0.00  0.00    +0.000 C 
BRANCH  15  16
ATOM     16  C   UNL     1       6.232   4.503  13.588  0.00  0.00    +0.000 C 
BRANCH  16  17
ATOM     17  C   UNL     1       6.583   3.568  12.433  0.00  0.00    +0.000 C 
BRANCH  17  18
ATOM     18  C   UNL     1       5.365   2.760  11.998  0.00  0.00    +0.000 C 
BRANCH  18  19
ATOM     19  C   UNL     1       4.219   3.683  11.595  0.00  0.00    +0.000 C 
BRANCH  19  21
ATOM     20  C   UNL     1       2.937   4.171   9.493  0.00  0.00    +0.000 C 
ATOM     21  C   UNL     1       3.412   3.087  10.446  0.00  0.00    +0.000 C 
ENDBRANCH  19  21
ENDBRANCH  18  19
ENDBRANCH  17  18
ENDBRANCH  16  17
ENDBRANCH  15  16
ENDBRANCH  14  15
ENDBRANCH  13  14
ENDBRANCH  12  13
ENDBRANCH   1  12
BRANCH   5  22
ATOM     22  C   UNL     1       0.934  10.322  19.491  0.00  0.00    +0.000 C 
BRANCH  22  23
ATOM     23  O   UNL     1       0.962  10.850  20.816  0.00  0.00    +0.000 OA
BRANCH  23  24
ATOM     24  C   UNL     1      -0.146  11.739  21.046  0.00  0.00    +0.000 C 
BRANCH  24  25
ATOM     25  C   UNL     1      -0.588  11.599  22.497  0.00  0.00    +0.000 C 
BRANCH  25  26
ATOM     26  O   UNL     1       0.046  10.478  23.100  0.00  0.00    +0.000 OA
ATOM     27  H   UNL     1       0.455   9.951  22.390  0.00  0.00    +0.000 HD
ENDBRANCH  25  26
ENDBRANCH  24  25
ENDBRANCH  23  24
ENDBRANCH  22  23
ENDBRANCH   5  22
TORSDOF 15
ENDMDL
MODEL 3
REMARK VINA RESULT:      -5.9      4.373      6.327
REMARK  Name = 
REMARK  16 active torsions:
REMARK  status: ('A' for Active; 'I' for Inactive)
REMARK    1  A    between atoms: C_1  and  C_2
REMARK    2  A    between atoms: C_2  and  C_3
REMARK    3  A    between atoms: C_3  and  C_4
REMARK    4  A    between atoms: C_4  and  C_5
REMARK    5  A    between atoms: C_5  and  C_6
REMARK    6  A    between atoms: C_6  and  C_7
REMARK    7  A    between atoms: C_7  and  C_8
REMARK    8  A    between atoms: C_8  and  C_9
REMARK    9  A    between atoms: C_9  and  C_10
REMARK   10  A    between atoms: C_10  and  C_11
REMARK   11  A    between atoms: N_15  and  C_16
REMARK   12  A    between atoms: C_16  and  O_17
REMARK   13  A    between atoms: O_17  and  C_18
REMARK   14  A    between atoms: C_18  and  C_19
REMARK   15  A    between atoms: C_19  and  O_20
REMARK   16  A    between atoms: C_21  and  O_22
REMARK                            x       y       z     vdW  Elec       q    Type
REMARK                         _______ _______ _______ _____ _____    ______ ____
ROOT
ATOM      1  C   UNL     1       4.664   5.223  17.061  0.00  0.00    +0.000 A 
ATOM      2  C   UNL     1       4.314   4.348  16.100  0.00  0.00    +0.000 A 
ATOM      3  C   UNL     1       5.345   4.451  15.131  0.00  0.00    +0.000 A 
ATOM      4  C   UNL     1       5.632   3.878  13.956  0.00  0.00    +0.000 A 
ATOM      5  N   UNL     1       6.792   4.214  13.255  0.00  0.00    +0.000 N 
ATOM      6  C   UNL     1       7.587   5.205  13.850  0.00  0.00    +0.000 A 
ATOM      7  N   UNL     1       7.381   5.816  14.979  0.00  0.00    +0.000 NA
ATOM      8  C   UNL     1       6.265   5.456  15.671  0.00  0.00    +0.000 A 
ATOM      9  N   UNL     1       5.856   5.917  16.834  0.00  0.00    +0.000 NA
ENDROOT
BRANCH   6  10
ATOM     10  O   UNL     1       8.686   5.581  13.176  0.00  0.00    +0.000 OA
ATOM     11  H   UNL     1       8.917   6.501  13.370  0.00  0.00    +0.000 HD
ENDBRANCH   6  10
BRANCH   1  12
ATOM     12  C   UNL     1       3.883   5.484  18.312  0.00  0.00    +0.000 C 
BRANCH  12  13
ATOM     13  C   UNL     1       4.531   4.808  19.519  0.00  0.00    +0.000 C 
BRANCH  13  14
ATOM     14  C   UNL     1       5.115   3.448  19.145  0.00  0.00    +0.000 C 
BRANCH  14  15
ATOM     15  C   UNL     1       4.204   2.323  19.629  0.00  0.00    +0.000 C 
BRANCH  15  16
ATOM     16  C   UNL     1       3.721   1.466  18.463  0.00  0.00    +0.000 C 
BRANCH  16  17
ATOM     17  C   UNL     1       2.434   2.035  17.873  0.00  0.00    +0.000 C 
BRANCH  17  18
ATOM     18  C   UNL     1       1.386   2.254  18.960  0.00  0.00    +0.000 C 
BRANCH  18  19
ATOM     19  C   UNL     1       1.069   3.738  19.114  0.00  0.00    +0.000 C 
BRANCH  19  21
ATOM     20  C   UNL     1       1.693   3.234  21.491  0.00  0.00    +0.000 C 
ATOM     21  C   UNL     1       0.844   4.102  20.578  0.00  0.00    +0.000 C 
ENDBRANCH  19  21
ENDBRANCH  18  19
ENDBRANCH  17  18
ENDBRANCH  16  17
ENDBRANCH  15  16
ENDBRANCH  14  15
ENDBRANCH  13  14
ENDBRANCH  12  13
ENDBRANCH   1  12
BRANCH   5  22
ATOM     22  C   UNL     1       7.033   3.559  11.973  0.00  0.00    +0.000 C 
BRANCH  22  23
ATOM     23  O   UNL     1       6.118   2.491  11.735  0.00  0.00    +0.000 OA
BRANCH  23  24
ATOM     24  C   UNL     1       6.759   1.402  11.045  0.00  0.00    +0.000 C 
BRANCH  24  25
ATOM     25  C   UNL     1       5.824   0.199  11.063  0.00  0.00    +0.000 C 
BRANCH  25  26
ATOM     26  O   UNL     1       6.484  -0.931  11.619  0.00  0.00    +0.000 OA
ATOM     27  H   UNL     1       7.426  -0.874  11.374  0.00  0.00    +0.000 HD
ENDBRANCH  25  26
ENDBRANCH  24  25
ENDBRANCH  23  24
ENDBRANCH  22  23
ENDBRANCH   5  22
TORSDOF 15
ENDMDL
MODEL 4
REMARK VINA RESULT:      -5.9      4.344      6.354
REMARK  Name = 
REMARK  16 active torsions:
REMARK  status: ('A' for Active; 'I' for Inactive)
REMARK    1  A    between atoms: C_1  and  C_2
REMARK    2  A    between atoms: C_2  and  C_3
REMARK    3  A    between atoms: C_3  and  C_4
REMARK    4  A    between atoms: C_4  and  C_5
REMARK    5  A    between atoms: C_5  and  C_6
REMARK    6  A    between atoms: C_6  and  C_7
REMARK    7  A    between atoms: C_7  and  C_8
REMARK    8  A    between atoms: C_8  and  C_9
REMARK    9  A    between atoms: C_9  and  C_10
REMARK   10  A    between atoms: C_10  and  C_11
REMARK   11  A    between atoms: N_15  and  C_16
REMARK   12  A    between atoms: C_16  and  O_17
REMARK   13  A    between atoms: O_17  and  C_18
REMARK   14  A    between atoms: C_18  and  C_19
REMARK   15  A    between atoms: C_19  and  O_20
REMARK   16  A    between atoms: C_21  and  O_22
REMARK                            x       y       z     vdW  Elec       q    Type
REMARK                         _______ _______ _______ _____ _____    ______ ____
ROOT
ATOM      1  C   UNL     1       6.046   4.858  17.864  0.00  0.00    +0.000 A 
ATOM      2  C   UNL     1       5.361   3.978  17.108  0.00  0.00    +0.000 A 
ATOM      3  C   UNL     1       5.896   4.138  15.804  0.00  0.00    +0.000 A 
ATOM      4  C   UNL     1       5.692   3.591  14.600  0.00  0.00    +0.000 A 
ATOM      5  N   UNL     1       6.445   3.986  13.492  0.00  0.00    +0.000 N 
ATOM      6  C   UNL     1       7.378   5.006  13.734  0.00  0.00    +0.000 A 
ATOM      7  N   UNL     1       7.635   5.595  14.865  0.00  0.00    +0.000 NA
ATOM      8  C   UNL     1       6.919   5.177  15.945  0.00  0.00    +0.000 A 
ATOM      9  N   UNL     1       7.010   5.607  17.186  0.00  0.00    +0.000 NA
ENDROOT
BRANCH   6  10
ATOM     10  O   UNL     1       8.086   5.438  12.678  0.00  0.00    +0.000 OA
ATOM     11  H   UNL     1       9.026   5.228  12.777  0.00  0.00    +0.000 HD
ENDBRANCH   6  10
BRANCH   1  12
ATOM     12  C   UNL     1       5.842   5.070  19.333  0.00  0.00    +0.000 C 
BRANCH  12  13
ATOM     13  C   UNL     1       4.519   5.784  19.609  0.00  0.00    +0.000 C 
BRANCH  13  14
ATOM     14  C   UNL     1       3.833   6.200  18.310  0.00  0.00    +0.000 C 
BRANCH  14  15
ATOM     15  C   UNL     1       2.340   5.887  18.369  0.00  0.00    +0.000 C 
BRANCH  15  16
ATOM     16  C   UNL     1       1.918   5.484  19.779  0.00  0.00    +0.000 C 
BRANCH  16  17
ATOM     17  C   UNL     1       1.189   4.144  19.760  0.00  0.00    +0.000 C 
BRANCH  17  18
ATOM     18  C   UNL     1       1.533   3.355  18.501  0.00  0.00    +0.000 C 
BRANCH  18  19
ATOM     19  C   UNL     1       1.734   1.878  18.826  0.00  0.00    +0.000 C 
BRANCH  19  21
ATOM     20  C   UNL     1       4.050   2.022  19.782  0.00  0.00    +0.000 C 
ATOM     21  C   UNL     1       3.195   1.473  18.653  0.00  0.00    +0.000 C 
ENDBRANCH  19  21
ENDBRANCH  18  19
ENDBRANCH  17  18
ENDBRANCH  16  17
ENDBRANCH  15  16
ENDBRANCH  14  15
ENDBRANCH  13  14
ENDBRANCH  12  13
ENDBRANCH   1  12
BRANCH   5  22
ATOM     22  C   UNL     1       6.159   3.356  12.207  0.00  0.00    +0.000 C 
BRANCH  22  23
ATOM     23  O   UNL     1       7.347   3.076  11.469  0.00  0.00    +0.000 OA
BRANCH  23  24
ATOM     24  C   UNL     1       7.386   1.700  11.050  0.00  0.00    +0.000 C 
BRANCH  24  25
ATOM     25  C   UNL     1       5.993   1.104  11.209  0.00  0.00    +0.000 C 
BRANCH  25  26
ATOM     26  O   UNL     1       6.070  -0.314  11.294  0.00  0.00    +0.000 OA
ATOM     27  H   UNL     1       7.003  -0.568  11.172  0.00  0.00    +0.000 HD
ENDBRANCH  25  26
ENDBRANCH  24  25
ENDBRANCH  23  24
ENDBRANCH  22  23
ENDBRANCH   5  22
TORSDOF 15
ENDMDL
MODEL 5
REMARK VINA RESULT:      -5.8      1.213      1.527
REMARK  Name = 
REMARK  16 active torsions:
REMARK  status: ('A' for Active; 'I' for Inactive)
REMARK    1  A    between atoms: C_1  and  C_2
REMARK    2  A    between atoms: C_2  and  C_3
REMARK    3  A    between atoms: C_3  and  C_4
REMARK    4  A    between atoms: C_4  and  C_5
REMARK    5  A    between atoms: C_5  and  C_6
REMARK    6  A    between atoms: C_6  and  C_7
REMARK    7  A    between atoms: C_7  and  C_8
REMARK    8  A    between atoms: C_8  and  C_9
REMARK    9  A    between atoms: C_9  and  C_10
REMARK   10  A    between atoms: C_10  and  C_11
REMARK   11  A    between atoms: N_15  and  C_16
REMARK   12  A    between atoms: C_16  and  O_17
REMARK   13  A    between atoms: O_17  and  C_18
REMARK   14  A    between atoms: C_18  and  C_19
REMARK   15  A    between atoms: C_19  and  O_20
REMARK   16  A    between atoms: C_21  and  O_22
REMARK                            x       y       z     vdW  Elec       q    Type
REMARK                         _______ _______ _______ _____ _____    ______ ____
ROOT
ATOM      1  C   UNL     1       3.591   3.950  17.662  0.00  0.00    +0.000 A 
ATOM      2  C   UNL     1       3.935   4.960  16.842  0.00  0.00    +0.000 A 
ATOM      3  C   UNL     1       5.146   5.463  17.385  0.00  0.00    +0.000 A 
ATOM      4  C   UNL     1       6.017   6.431  17.078  0.00  0.00    +0.000 A 
ATOM      5  N   UNL     1       7.163   6.641  17.848  0.00  0.00    +0.000 N 
ATOM      6  C   UNL     1       7.297   5.800  18.964  0.00  0.00    +0.000 A 
ATOM      7  N   UNL     1       6.500   4.843  19.337  0.00  0.00    +0.000 NA
ATOM      8  C   UNL     1       5.405   4.626  18.559  0.00  0.00    +0.000 A 
ATOM      9  N   UNL     1       4.470   3.713  18.723  0.00  0.00    +0.000 NA
ENDROOT
BRANCH   6  10
ATOM     10  O   UNL     1       8.367   6.008  19.749  0.00  0.00    +0.000 OA
ATOM     11  H   UNL     1       8.214   6.744  20.360  0.00  0.00    +0.000 HD
ENDBRANCH   6  10
BRANCH   1  12
ATOM     12  C   UNL     1       2.370   3.096  17.509  0.00  0.00    +0.000 C 
BRANCH  12  13
ATOM     13  C   UNL     1       2.139   2.236  18.751  0.00  0.00    +0.000 C 
BRANCH  13  14
ATOM     14  C   UNL     1       1.073   2.847  19.657  0.00  0.00    +0.000 C 
BRANCH  14  15
ATOM     15  C   UNL     1       1.604   3.003  21.079  0.00  0.00    +0.000 C 
BRANCH  15  16
ATOM     16  C   UNL     1       2.130   4.415  21.319  0.00  0.00    +0.000 C 
BRANCH  16  17
ATOM     17  C   UNL     1       1.540   5.389  20.302  0.00  0.00    +0.000 C 
BRANCH  17  18
ATOM     18  C   UNL     1       2.012   6.813  20.576  0.00  0.00    +0.000 C 
BRANCH  18  19
ATOM     19  C   UNL     1       0.829   7.719  20.909  0.00  0.00    +0.000 C 
BRANCH  19  21
ATOM     20  C   UNL     1       0.420   9.286  22.826  0.00  0.00    +0.000 C 
ATOM     21  C   UNL     1       1.293   8.987  21.619  0.00  0.00    +0.000 C 
ENDBRANCH  19  21
ENDBRANCH  18  19
ENDBRANCH  17  18
ENDBRANCH  16  17
ENDBRANCH  15  16
ENDBRANCH  14  15
ENDBRANCH  13  14
ENDBRANCH  12  13
ENDBRANCH   1  12
BRANCH   5  22
ATOM     22  C   UNL     1       8.061   7.724  17.462  0.00  0.00    +0.000 C 
BRANCH  22  23
ATOM     23  O   UNL     1       7.694   8.966  18.062  0.00  0.00    +0.000 OA
BRANCH  23  24
ATOM     24  C   UNL     1       8.798   9.542  18.782  0.00  0.00    +0.000 C 
BRANCH  24  25
ATOM     25  C   UNL     1       9.149  10.880  18.144  0.00  0.00    +0.000 C 
BRANCH  25  26
ATOM     26  O   UNL     1      10.346  11.399  18.711  0.00  0.00    +0.000 OA
ATOM     27  H   UNL     1      10.895  10.643  18.986  0.00  0.00    +0.000 HD
ENDBRANCH  25  26
ENDBRANCH  24  25
ENDBRANCH  23  24
ENDBRANCH  22  23
ENDBRANCH   5  22
TORSDOF 15
ENDMDL
MODEL 6
REMARK VINA RESULT:      -5.8      4.400      6.644
REMARK  Name = 
REMARK  16 active torsions:
REMARK  status: ('A' for Active; 'I' for Inactive)
REMARK    1  A    between atoms: C_1  and  C_2
REMARK    2  A    between atoms: C_2  and  C_3
REMARK    3  A    between atoms: C_3  and  C_4
REMARK    4  A    between atoms: C_4  and  C_5
REMARK    5  A    between atoms: C_5  and  C_6
REMARK    6  A    between atoms: C_6  and  C_7
REMARK    7  A    between atoms: C_7  and  C_8
REMARK    8  A    between atoms: C_8  and  C_9
REMARK    9  A    between atoms: C_9  and  C_10
REMARK   10  A    between atoms: C_10  and  C_11
REMARK   11  A    between atoms: N_15  and  C_16
REMARK   12  A    between atoms: C_16  and  O_17
REMARK   13  A    between atoms: O_17  and  C_18
REMARK   14  A    between atoms: C_18  and  C_19
REMARK   15  A    between atoms: C_19  and  O_20
REMARK   16  A    between atoms: C_21  and  O_22
REMARK                            x       y       z     vdW  Elec       q    Type
REMARK                         _______ _______ _______ _____ _____    ______ ____
ROOT
ATOM      1  C   UNL     1       3.733   6.558  18.343  0.00  0.00    +0.000 A 
ATOM      2  C   UNL     1       3.231   7.610  17.669  0.00  0.00    +0.000 A 
ATOM      3  C   UNL     1       2.265   8.167  18.548  0.00  0.00    +0.000 A 
ATOM      4  C   UNL     1       1.420   9.204  18.526  0.00  0.00    +0.000 A 
ATOM      5  N   UNL     1       0.597   9.486  19.619  0.00  0.00    +0.000 N 
ATOM      6  C   UNL     1       0.701   8.590  20.694  0.00  0.00    +0.000 A 
ATOM      7  N   UNL     1       1.486   7.559  20.796  0.00  0.00    +0.000 NA
ATOM      8  C   UNL     1       2.308   7.314  19.738  0.00  0.00    +0.000 A 
ATOM      9  N   UNL     1       3.194   6.348  19.615  0.00  0.00    +0.000 NA
ENDROOT
BRANCH   6  10
ATOM     10  O   UNL     1      -0.111   8.810  21.741  0.00  0.00    +0.000 OA
ATOM     11  H   UNL     1      -0.973   9.144  21.452  0.00  0.00    +0.000 HD
ENDBRANCH   6  10
BRANCH   1  12
ATOM     12  C   UNL     1       4.795   5.636  17.828  0.00  0.00    +0.000 C 
BRANCH  12  13
ATOM     13  C   UNL     1       4.217   4.626  16.838  0.00  0.00    +0.000 C 
BRANCH  13  14
ATOM     14  C   UNL     1       4.065   3.248  17.477  0.00  0.00    +0.000 C 
BRANCH  14  15
ATOM     15  C   UNL     1       2.660   2.701  17.243  0.00  0.00    +0.000 C 
BRANCH  15  16
ATOM     16  C   UNL     1       1.604   3.619  17.852  0.00  0.00    +0.000 C 
BRANCH  16  17
ATOM     17  C   UNL     1       0.734   2.855  18.846  0.00  0.00    +0.000 C 
BRANCH  17  18
ATOM     18  C   UNL     1       0.635   3.604  20.171  0.00  0.00    +0.000 C 
BRANCH  18  19
ATOM     19  C   UNL     1       1.303   2.812  21.291  0.00  0.00    +0.000 C 
BRANCH  19  21
ATOM     20  C   UNL     1       3.716   2.270  20.868  0.00  0.00    +0.000 C 
ATOM     21  C   UNL     1       2.748   3.259  21.493  0.00  0.00    +0.000 C 
ENDBRANCH  19  21
ENDBRANCH  18  19
ENDBRANCH  17  18
ENDBRANCH  16  17
ENDBRANCH  15  16
ENDBRANCH  14  15
ENDBRANCH  13  14
ENDBRANCH  12  13
ENDBRANCH   1  12
BRANCH   5  22
ATOM     22  C   UNL     1      -0.310  10.624  19.519  0.00  0.00    +0.000 C 
BRANCH  22  23
ATOM     23  O   UNL     1      -0.829  10.784  18.200  0.00  0.00    +0.000 OA
BRANCH  23  24
ATOM     24  C   UNL     1      -2.104  10.132  18.061  0.00  0.00    +0.000 C 
BRANCH  24  25
ATOM     25  C   UNL     1      -2.606  10.346  16.638  0.00  0.00    +0.000 C 
BRANCH  25  26
ATOM     26  O   UNL     1      -2.194  11.619  16.156  0.00  0.00    +0.000 OA
ATOM     27  H   UNL     1      -2.980  12.194  16.128  0.00  0.00    +0.000 HD
ENDBRANCH  25  26
ENDBRANCH  24  25
ENDBRANCH  23  24
ENDBRANCH  22  23
ENDBRANCH   5  22
TORSDOF 15
ENDMDL
MODEL 7
REMARK VINA RESULT:      -5.7      4.947      7.249
REMARK  Name = 
REMARK  16 active torsions:
REMARK  status: ('A' for Active; 'I' for Inactive)
REMARK    1  A    between atoms: C_1  and  C_2
REMARK    2  A    between atoms: C_2  and  C_3
REMARK    3  A    between atoms: C_3  and  C_4
REMARK    4  A    between atoms: C_4  and  C_5
REMARK    5  A    between atoms: C_5  and  C_6
REMARK    6  A    between atoms: C_6  and  C_7
REMARK    7  A    between atoms: C_7  and  C_8
REMARK    8  A    between atoms: C_8  and  C_9
REMARK    9  A    between atoms: C_9  and  C_10
REMARK   10  A    between atoms: C_10  and  C_11
REMARK   11  A    between atoms: N_15  and  C_16
REMARK   12  A    between atoms: C_16  and  O_17
REMARK   13  A    between atoms: O_17  and  C_18
REMARK   14  A    between atoms: C_18  and  C_19
REMARK   15  A    between atoms: C_19  and  O_20
REMARK   16  A    between atoms: C_21  and  O_22
REMARK                            x       y       z     vdW  Elec       q    Type
REMARK                         _______ _______ _______ _____ _____    ______ ____
ROOT
ATOM      1  C   UNL     1       2.857   7.588  18.267  0.00  0.00    +0.000 A 
ATOM      2  C   UNL     1       2.546   7.219  19.523  0.00  0.00    +0.000 A 
ATOM      3  C   UNL     1       1.635   8.210  19.971  0.00  0.00    +0.000 A 
ATOM      4  C   UNL     1       0.940   8.454  21.088  0.00  0.00    +0.000 A 
ATOM      5  N   UNL     1       0.084   9.553  21.179  0.00  0.00    +0.000 N 
ATOM      6  C   UNL     1       0.049  10.381  20.047  0.00  0.00    +0.000 A 
ATOM      7  N   UNL     1       0.693  10.224  18.928  0.00  0.00    +0.000 NA
ATOM      8  C   UNL     1       1.498   9.129  18.838  0.00  0.00    +0.000 A 
ATOM      9  N   UNL     1       2.231   8.752  17.812  0.00  0.00    +0.000 NA
ENDROOT
BRANCH   6  10
ATOM     10  O   UNL     1      -0.731  11.472  20.122  0.00  0.00    +0.000 OA
ATOM     11  H   UNL     1      -0.213  12.281  20.000  0.00  0.00    +0.000 HD
ENDBRANCH   6  10
BRANCH   1  12
ATOM     12  C   UNL     1       3.798   6.853  17.362  0.00  0.00    +0.000 C 
BRANCH  12  13
ATOM     13  C   UNL     1       4.235   5.526  17.981  0.00  0.00    +0.000 C 
BRANCH  13  14
ATOM     14  C   UNL     1       4.842   4.599  16.932  0.00  0.00    +0.000 C 
BRANCH  14  15
ATOM     15  C   UNL     1       4.000   3.334  16.783  0.00  0.00    +0.000 C 
BRANCH  15  16
ATOM     16  C   UNL     1       2.622   3.513  17.414  0.00  0.00    +0.000 C 
BRANCH  16  17
ATOM     17  C   UNL     1       2.243   2.286  18.238  0.00  0.00    +0.000 C 
BRANCH  17  18
ATOM     18  C   UNL     1       0.976   2.543  19.047  0.00  0.00    +0.000 C 
BRANCH  18  19
ATOM     19  C   UNL     1       1.036   3.908  19.726  0.00  0.00    +0.000 C 
BRANCH  19  21
ATOM     20  C   UNL     1       1.515   2.583  21.802  0.00  0.00    +0.000 C 
ATOM     21  C   UNL     1       1.842   3.843  21.019  0.00  0.00    +0.000 C 
ENDBRANCH  19  21
ENDBRANCH  18  19
ENDBRANCH  17  18
ENDBRANCH  16  17
ENDBRANCH  15  16
ENDBRANCH  14  15
ENDBRANCH  13  14
ENDBRANCH  12  13
ENDBRANCH   1  12
BRANCH   5  22
ATOM     22  C   UNL     1      -0.632   9.764  22.433  0.00  0.00    +0.000 C 
BRANCH  22  23
ATOM     23  O   UNL     1      -0.369  11.050  22.992  0.00  0.00    +0.000 OA
BRANCH  23  24
ATOM     24  C   UNL     1      -1.592  11.758  23.266  0.00  0.00    +0.000 C 
BRANCH  24  25
ATOM     25  C   UNL     1      -1.302  13.253  23.246  0.00  0.00    +0.000 C 
BRANCH  25  26
ATOM     26  O   UNL     1      -0.606  13.605  22.057  0.00  0.00    +0.000 OA
ATOM     27  H   UNL     1       0.349  13.522  22.237  0.00  0.00    +0.000 HD
ENDBRANCH  25  26
ENDBRANCH  24  25
ENDBRANCH  23  24
ENDBRANCH  22  23
ENDBRANCH   5  22
TORSDOF 15
ENDMDL
MODEL 8
REMARK VINA RESULT:      -5.7      1.423      1.875
REMARK  Name = 
REMARK  16 active torsions:
REMARK  status: ('A' for Active; 'I' for Inactive)
REMARK    1  A    between atoms: C_1  and  C_2
REMARK    2  A    between atoms: C_2  and  C_3
REMARK    3  A    between atoms: C_3  and  C_4
REMARK    4  A    between atoms: C_4  and  C_5
REMARK    5  A    between atoms: C_5  and  C_6
REMARK    6  A    between atoms: C_6  and  C_7
REMARK    7  A    between atoms: C_7  and  C_8
REMARK    8  A    between atoms: C_8  and  C_9
REMARK    9  A    between atoms: C_9  and  C_10
REMARK   10  A    between atoms: C_10  and  C_11
REMARK   11  A    between atoms: N_15  and  C_16
REMARK   12  A    between atoms: C_16  and  O_17
REMARK   13  A    between atoms: O_17  and  C_18
REMARK   14  A    between atoms: C_18  and  C_19
REMARK   15  A    between atoms: C_19  and  O_20
REMARK   16  A    between atoms: C_21  and  O_22
REMARK                            x       y       z     vdW  Elec       q    Type
REMARK                         _______ _______ _______ _____ _____    ______ ____
ROOT
ATOM      1  C   UNL     1       3.688   2.968  17.873  0.00  0.00    +0.000 A 
ATOM      2  C   UNL     1       4.260   3.618  18.903  0.00  0.00    +0.000 A 
ATOM      3  C   UNL     1       5.256   4.431  18.303  0.00  0.00    +0.000 A 
ATOM      4  C   UNL     1       6.167   5.316  18.723  0.00  0.00    +0.000 A 
ATOM      5  N   UNL     1       7.003   5.975  17.819  0.00  0.00    +0.000 N 
ATOM      6  C   UNL     1       6.839   5.608  16.474  0.00  0.00    +0.000 A 
ATOM      7  N   UNL     1       5.987   4.758  15.981  0.00  0.00    +0.000 NA
ATOM      8  C   UNL     1       5.154   4.147  16.869  0.00  0.00    +0.000 A 
ATOM      9  N   UNL     1       4.208   3.269  16.611  0.00  0.00    +0.000 NA
ENDROOT
BRANCH   6  10
ATOM     10  O   UNL     1       7.659   6.192  15.586  0.00  0.00    +0.000 OA
ATOM     11  H   UNL     1       7.349   7.079  15.354  0.00  0.00    +0.000 HD
ENDBRANCH   6  10
BRANCH   1  12
ATOM     12  C   UNL     1       2.569   1.979  17.994  0.00  0.00    +0.000 C 
BRANCH  12  13
ATOM     13  C   UNL     1       2.154   1.793  19.453  0.00  0.00    +0.000 C 
BRANCH  13  14
ATOM     14  C   UNL     1       1.100   2.818  19.863  0.00  0.00    +0.000 C 
BRANCH  14  15
ATOM     15  C   UNL     1       1.369   3.326  21.277  0.00  0.00    +0.000 C 
BRANCH  15  16
ATOM     16  C   UNL     1       2.123   4.653  21.251  0.00  0.00    +0.000 C 
BRANCH  16  17
ATOM     17  C   UNL     1       1.458   5.631  20.287  0.00  0.00    +0.000 C 
BRANCH  17  18
ATOM     18  C   UNL     1       2.462   6.660  19.777  0.00  0.00    +0.000 C 
BRANCH  18  19
ATOM     19  C   UNL     1       2.426   6.741  18.253  0.00  0.00    +0.000 C 
BRANCH  19  21
ATOM     20  C   UNL     1       1.584   9.088  17.970  0.00  0.00    +0.000 C 
ATOM     21  C   UNL     1       2.762   8.149  17.771  0.00  0.00    +0.000 C 
ENDBRANCH  19  21
ENDBRANCH  18  19
ENDBRANCH  17  18
ENDBRANCH  16  17
ENDBRANCH  15  16
ENDBRANCH  14  15
ENDBRANCH  13  14
ENDBRANCH  12  13
ENDBRANCH   1  12
BRANCH   5  22
ATOM     22  C   UNL     1       7.983   6.916  18.350  0.00  0.00    +0.000 C 
BRANCH  22  23
ATOM     23  O   UNL     1       7.539   8.268  18.249  0.00  0.00    +0.000 OA
BRANCH  23  24
ATOM     24  C   UNL     1       8.546   9.103  17.648  0.00  0.00    +0.000 C 
BRANCH  24  25
ATOM     25  C   UNL     1       8.810  10.285  18.571  0.00  0.00    +0.000 C 
BRANCH  25  26
ATOM     26  O   UNL     1       9.481   9.853  19.748  0.00  0.00    +0.000 OA
ATOM     27  H   UNL     1      10.338  10.315  19.787  0.00  0.00    +0.000 HD
ENDBRANCH  25  26
ENDBRANCH  24  25
ENDBRANCH  23  24
ENDBRANCH  22  23
ENDBRANCH   5  22
TORSDOF 15
ENDMDL
MODEL 9
REMARK VINA RESULT:      -5.7      3.430      8.752
REMARK  Name = 
REMARK  16 active torsions:
REMARK  status: ('A' for Active; 'I' for Inactive)
REMARK    1  A    between atoms: C_1  and  C_2
REMARK    2  A    between atoms: C_2  and  C_3
REMARK    3  A    between atoms: C_3  and  C_4
REMARK    4  A    between atoms: C_4  and  C_5
REMARK    5  A    between atoms: C_5  and  C_6
REMARK    6  A    between atoms: C_6  and  C_7
REMARK    7  A    between atoms: C_7  and  C_8
REMARK    8  A    between atoms: C_8  and  C_9
REMARK    9  A    between atoms: C_9  and  C_10
REMARK   10  A    between atoms: C_10  and  C_11
REMARK   11  A    between atoms: N_15  and  C_16
REMARK   12  A    between atoms: C_16  and  O_17
REMARK   13  A    between atoms: O_17  and  C_18
REMARK   14  A    between atoms: C_18  and  C_19
REMARK   15  A    between atoms: C_19  and  O_20
REMARK   16  A    between atoms: C_21  and  O_22
REMARK                            x       y       z     vdW  Elec       q    Type
REMARK                         _______ _______ _______ _____ _____    ______ ____
ROOT
ATOM      1  C   UNL     1       6.966   6.799  17.684  0.00  0.00    +0.000 A 
ATOM      2  C   UNL     1       7.112   5.688  18.431  0.00  0.00    +0.000 A 
ATOM      3  C   UNL     1       5.816   5.110  18.468  0.00  0.00    +0.000 A 
ATOM      4  C   UNL     1       5.256   4.023  19.009  0.00  0.00    +0.000 A 
ATOM      5  N   UNL     1       3.903   3.737  18.816  0.00  0.00    +0.000 N 
ATOM      6  C   UNL     1       3.192   4.684  18.062  0.00  0.00    +0.000 A 
ATOM      7  N   UNL     1       3.653   5.766  17.508  0.00  0.00    +0.000 NA
ATOM      8  C   UNL     1       4.981   6.016  17.674  0.00  0.00    +0.000 A 
ATOM      9  N   UNL     1       5.675   7.029  17.200  0.00  0.00    +0.000 NA
ENDROOT
BRANCH   6  10
ATOM     10  O   UNL     1       1.878   4.460  17.898  0.00  0.00    +0.000 OA
ATOM     11  H   UNL     1       1.588   4.716  17.010  0.00  0.00    +0.000 HD
ENDBRANCH   6  10
BRANCH   1  12
ATOM     12  C   UNL     1       8.063   7.763  17.352  0.00  0.00    +0.000 C 
BRANCH  12  13
ATOM     13  C   UNL     1       7.812   9.126  17.993  0.00  0.00    +0.000 C 
BRANCH  13  14
ATOM     14  C   UNL     1       8.933   9.497  18.962  0.00  0.00    +0.000 C 
BRANCH  14  15
ATOM     15  C   UNL     1       9.535  10.850  18.592  0.00  0.00    +0.000 C 
BRANCH  15  16
ATOM     16  C   UNL     1      10.139  11.537  19.813  0.00  0.00    +0.000 C 
BRANCH  16  17
ATOM     17  C   UNL     1      11.644  11.717  19.640  0.00  0.00    +0.000 C 
BRANCH  17  18
ATOM     18  C   UNL     1      11.951  12.620  18.450  0.00  0.00    +0.000 C 
BRANCH  18  19
ATOM     19  C   UNL     1      12.282  14.035  18.916  0.00  0.00    +0.000 C 
BRANCH  19  21
ATOM     20  C   UNL     1      11.186  15.264  17.023  0.00  0.00    +0.000 C 
ATOM     21  C   UNL     1      11.181  15.015  18.521  0.00  0.00    +0.000 C 
ENDBRANCH  19  21
ENDBRANCH  18  19
ENDBRANCH  17  18
ENDBRANCH  16  17
ENDBRANCH  15  16
ENDBRANCH  14  15
ENDBRANCH  13  14
ENDBRANCH  12  13
ENDBRANCH   1  12
BRANCH   5  22
ATOM     22  C   UNL     1       3.356   2.541  19.447  0.00  0.00    +0.000 C 
BRANCH  22  23
ATOM     23  O   UNL     1       3.493   2.572  20.867  0.00  0.00    +0.000 OA
BRANCH  23  24
ATOM     24  C   UNL     1       2.436   3.338  21.474  0.00  0.00    +0.000 C 
BRANCH  24  25
ATOM     25  C   UNL     1       1.101   2.823  20.951  0.00  0.00    +0.000 C 
BRANCH  25  26
ATOM     26  O   UNL     1       0.386   3.871  20.309  0.00  0.00    +0.000 OA
ATOM     27  H   UNL     1       0.036   3.521  19.470  0.00  0.00    +0.000 HD
ENDBRANCH  25  26
ENDBRANCH  24  25
ENDBRANCH  23  24
ENDBRANCH  22  23
ENDBRANCH   5  22
TORSDOF 15
ENDMDL
