MODEL 1
REMARK VINA RESULT:      -8.4      0.000      0.000
REMARK  Name = 
REMARK  9 active torsions:
REMARK  status: ('A' for Active; 'I' for Inactive)
REMARK    1  A    between atoms: C_1  and  N_2
REMARK    2  A    between atoms: C_5  and  C_6
REMARK    3  A    between atoms: C_9  and  C_10
REMARK    4  A    between atoms: N_15  and  C_16
REMARK    5  A    between atoms: C_20  and  N_21
REMARK    6  A    between atoms: N_21  and  C_22
REMARK    7  A    between atoms: C_22  and  C_23
REMARK    8  A    between atoms: C_23  and  C_24
REMARK    9  A    between atoms: C_24  and  O_25
REMARK                            x       y       z     vdW  Elec       q    Type
REMARK                         _______ _______ _______ _____ _____    ______ ____
ROOT
ATOM      1  C   UNL     1       2.552   7.404  18.733  0.00  0.00    +0.000 A 
ATOM      2  C   UNL     1       3.378   7.651  17.645  0.00  0.00    +0.000 A 
ATOM      3  C   UNL     1       4.065   6.598  17.071  0.00  0.00    +0.000 A 
ATOM      4  N   UNL     1       4.902   6.874  15.976  0.00  0.00    +0.000 NA
ATOM      5  C   UNL     1       5.529   5.886  15.444  0.00  0.00    +0.000 A 
ATOM      6  N   UNL     1       5.439   4.585  15.864  0.00  0.00    +0.000 N 
ATOM      7  C   UNL     1       6.192   3.537  15.210  0.00  0.00    +0.000 C 
ATOM      8  C   UNL     1       4.655   4.219  16.956  0.00  0.00    +0.000 A 
ATOM      9  O   UNL     1       4.621   3.080  17.384  0.00  0.00    +0.000 OA
ATOM     10  C   UNL     1       3.899   5.320  17.595  0.00  0.00    +0.000 A 
ATOM     11  C   UNL     1       3.016   5.112  18.660  0.00  0.00    +0.000 A 
ATOM     12  N   UNL     1       2.380   6.156  19.238  0.00  0.00    +0.000 NA
ENDROOT
BRANCH   1  16
ATOM     13  C   UNL     1       0.319  10.553  20.650  0.00  0.00    +0.000 A 
ATOM     14  C   UNL     1       0.745   9.437  21.378  0.00  0.00    +0.000 A 
ATOM     15  C   UNL     1       1.483   8.426  20.761  0.00  0.00    +0.000 A 
ATOM     16  C   UNL     1       1.821   8.493  19.398  0.00  0.00    +0.000 A 
ATOM     17  C   UNL     1       1.408   9.621  18.677  0.00  0.00    +0.000 A 
ATOM     18  C   UNL     1       0.664  10.623  19.295  0.00  0.00    +0.000 A 
ATOM     19  F   UNL     1       0.272  11.666  18.549  0.00  0.00    +0.000 F 
BRANCH  13  24
ATOM     20  C   UNL     1      -1.698  14.591  24.200  0.00  0.00    +0.000 C 
ATOM     21  N   UNL     1      -0.964  13.534  23.502  0.00  0.00    +0.000 NA
ATOM     22  C   UNL     1      -1.809  12.341  23.356  0.00  0.00    +0.000 C 
ATOM     23  C   UNL     1      -1.047  11.206  22.673  0.00  0.00    +0.000 C 
ATOM     24  C   UNL     1      -0.488  11.651  21.313  0.00  0.00    +0.000 C 
ATOM     25  C   UNL     1       0.323  12.946  21.471  0.00  0.00    +0.000 C 
ATOM     26  C   UNL     1      -0.487  14.019  22.199  0.00  0.00    +0.000 C 
ENDBRANCH  13  24
ENDBRANCH   1  16
BRANCH  11  27
ATOM     27  N   UNL     1       2.730   3.828  19.103  0.00  0.00    +0.000 N 
ATOM     28  H   UNL     1       3.219   3.593  19.968  0.00  0.00    +0.000 HD
BRANCH  27  29
ATOM     29  C   UNL     1       1.403   3.275  18.941  0.00  0.00    +0.000 C 
BRANCH  29  30
ATOM     30  C   UNL     1       0.676   3.272  20.278  0.00  0.00    +0.000 C 
BRANCH  30  31
ATOM     31  C   UNL     1       1.500   2.570  21.346  0.00  0.00    +0.000 C 
BRANCH  31  32
ATOM     32  O   UNL     1       2.265   3.524  22.073  0.00  0.00    +0.000 OA
ATOM     33  H   UNL     1       2.123   3.349  23.017  0.00  0.00    +0.000 HD
ENDBRANCH  31  32
ENDBRANCH  30  31
ENDBRANCH  29  30
ENDBRANCH  27  29
ENDBRANCH  11  27
TORSDOF 7
ENDMDL
MODEL 2
REMARK VINA RESULT:      -8.4      1.016      1.142
REMARK  Name = 
REMARK  9 active torsions:
REMARK  status: ('A' for Active; 'I' for Inactive)
REMARK    1  A    between atoms: C_1  and  N_2
REMARK    2  A    between atoms: C_5  and  C_6
REMARK    3  A    between atoms: C_9  and  C_10
REMARK    4  A    between atoms: N_15  and  C_16
REMARK    5  A    between atoms: C_20  and  N_21
REMARK    6  A    between atoms: N_21  and  C_22
REMARK    7  A    between atoms: C_22  and  C_23
REMARK    8  A    between atoms: C_23  and  C_24
REMARK    9  A    between atoms: C_24  and  O_25
REMARK                            x       y       z     vdW  Elec       q    Type
REMARK                         _______ _______ _______ _____ _____    ______ ____
ROOT
ATOM      1  C   UNL     1       2.300   7.655  19.218  0.00  0.00    +0.000 A 
ATOM      2  C   UNL     1       3.022   7.849  18.048  0.00  0.00    +0.000 A 
ATOM      3  C   UNL     1       3.763   6.801  17.535  0.00  0.00    +0.000 A 
ATOM      4  N   UNL     1       4.492   7.024  16.355  0.00  0.00    +0.000 NA
ATOM      5  C   UNL     1       5.171   6.040  15.881  0.00  0.00    +0.000 A 
ATOM      6  N   UNL     1       5.232   4.790  16.440  0.00  0.00    +0.000 N 
ATOM      7  C   UNL     1       6.032   3.745  15.842  0.00  0.00    +0.000 C 
ATOM      8  C   UNL     1       4.562   4.483  17.623  0.00  0.00    +0.000 A 
ATOM      9  O   UNL     1       4.665   3.400  18.169  0.00  0.00    +0.000 OA
ATOM     10  C   UNL     1       3.753   5.580  18.201  0.00  0.00    +0.000 A 
ATOM     11  C   UNL     1       2.970   5.417  19.348  0.00  0.00    +0.000 A 
ATOM     12  N   UNL     1       2.281   6.461  19.863  0.00  0.00    +0.000 NA
ENDROOT
BRANCH   1  16
ATOM     13  C   UNL     1      -0.079  10.803  20.952  0.00  0.00    +0.000 A 
ATOM     14  C   UNL     1       0.344   9.719  21.729  0.00  0.00    +0.000 A 
ATOM     15  C   UNL     1       1.128   8.708  21.172  0.00  0.00    +0.000 A 
ATOM     16  C   UNL     1       1.518   8.745  19.821  0.00  0.00    +0.000 A 
ATOM     17  C   UNL     1       1.109   9.841  19.052  0.00  0.00    +0.000 A 
ATOM     18  C   UNL     1       0.318  10.843  19.610  0.00  0.00    +0.000 A 
ATOM     19  F   UNL     1      -0.067  11.854  18.819  0.00  0.00    +0.000 F 
BRANCH  13  24
ATOM     20  C   UNL     1      -2.385  14.822  24.344  0.00  0.00    +0.000 C 
ATOM     21  N   UNL     1      -1.597  13.767  23.705  0.00  0.00    +0.000 NA
ATOM     22  C   UNL     1      -2.431  12.580  23.474  0.00  0.00    +0.000 C 
ATOM     23  C   UNL     1      -1.617  11.446  22.851  0.00  0.00    +0.000 C 
ATOM     24  C   UNL     1      -0.937  11.900  21.550  0.00  0.00    +0.000 C 
ATOM     25  C   UNL     1      -0.136  13.189  21.792  0.00  0.00    +0.000 C 
ATOM     26  C   UNL     1      -1.003  14.261  22.455  0.00  0.00    +0.000 C 
ENDBRANCH  13  24
ENDBRANCH   1  16
BRANCH  11  27
ATOM     27  N   UNL     1       2.836   4.171  19.944  0.00  0.00    +0.000 N 
ATOM     28  H   UNL     1       3.725   3.802  20.288  0.00  0.00    +0.000 HD
BRANCH  27  29
ATOM     29  C   UNL     1       1.660   3.853  20.726  0.00  0.00    +0.000 C 
BRANCH  29  30
ATOM     30  C   UNL     1       1.063   2.536  20.252  0.00  0.00    +0.000 C 
BRANCH  30  31
ATOM     31  C   UNL     1       1.034   2.464  18.733  0.00  0.00    +0.000 C 
BRANCH  31  32
ATOM     32  O   UNL     1       2.160   1.736  18.261  0.00  0.00    +0.000 OA
ATOM     33  H   UNL     1       2.067   1.650  17.298  0.00  0.00    +0.000 HD
ENDBRANCH  31  32
ENDBRANCH  30  31
ENDBRANCH  29  30
ENDBRANCH  27  29
ENDBRANCH  11  27
TORSDOF 7
ENDMDL
MODEL 3
REMARK VINA RESULT:      -8.3      1.360      1.693
REMARK  Name = 
REMARK  9 active torsions:
REMARK  status: ('A' for Active; 'I' for Inactive)
REMARK    1  A    between atoms: C_1  and  N_2
REMARK    2  A    between atoms: C_5  and  C_6
REMARK    3  A    between atoms: C_9  and  C_10
REMARK    4  A    between atoms: N_15  and  C_16
REMARK    5  A    between atoms: C_20  and  N_21
REMARK    6  A    between atoms: N_21  and  C_22
REMARK    7  A    between atoms: C_22  and  C_23
REMARK    8  A    between atoms: C_23  and  C_24
REMARK    9  A    between atoms: C_24  and  O_25
REMARK                            x       y       z     vdW  Elec       q    Type
REMARK                         _______ _______ _______ _____ _____    ______ ____
ROOT
ATOM      1  C   UNL     1       2.215   7.788  19.140  0.00  0.00    +0.000 A 
ATOM      2  C   UNL     1       2.959   7.960  17.980  0.00  0.00    +0.000 A 
ATOM      3  C   UNL     1       3.730   6.911  17.515  0.00  0.00    +0.000 A 
ATOM      4  N   UNL     1       4.480   7.112  16.344  0.00  0.00    +0.000 NA
ATOM      5  C   UNL     1       5.187   6.127  15.916  0.00  0.00    +0.000 A 
ATOM      6  N   UNL     1       5.260   4.897  16.515  0.00  0.00    +0.000 N 
ATOM      7  C   UNL     1       6.093   3.850  15.967  0.00  0.00    +0.000 C 
ATOM      8  C   UNL     1       4.572   4.614  17.693  0.00  0.00    +0.000 A 
ATOM      9  O   UNL     1       4.683   3.550  18.275  0.00  0.00    +0.000 OA
ATOM     10  C   UNL     1       3.730   5.712  18.219  0.00  0.00    +0.000 A 
ATOM     11  C   UNL     1       2.925   5.569  19.355  0.00  0.00    +0.000 A 
ATOM     12  N   UNL     1       2.205   6.615  19.822  0.00  0.00    +0.000 NA
ENDROOT
BRANCH   1  16
ATOM     13  C   UNL     1      -0.256  10.954  20.704  0.00  0.00    +0.000 A 
ATOM     14  C   UNL     1      -0.056   9.778  21.436  0.00  0.00    +0.000 A 
ATOM     15  C   UNL     1       0.757   8.761  20.937  0.00  0.00    +0.000 A 
ATOM     16  C   UNL     1       1.400   8.881  19.692  0.00  0.00    +0.000 A 
ATOM     17  C   UNL     1       1.213  10.067  18.971  0.00  0.00    +0.000 A 
ATOM     18  C   UNL     1       0.391  11.076  19.469  0.00  0.00    +0.000 A 
ATOM     19  F   UNL     1       0.226  12.177  18.723  0.00  0.00    +0.000 F 
BRANCH  13  24
ATOM     20  C   UNL     1      -4.581  14.032  22.896  0.00  0.00    +0.000 C 
ATOM     21  N   UNL     1      -3.668  13.014  22.373  0.00  0.00    +0.000 NA
ATOM     22  C   UNL     1      -3.328  13.307  20.974  0.00  0.00    +0.000 C 
ATOM     23  C   UNL     1      -2.414  12.230  20.391  0.00  0.00    +0.000 C 
ATOM     24  C   UNL     1      -1.145  12.059  21.238  0.00  0.00    +0.000 C 
ATOM     25  C   UNL     1      -1.517  11.836  22.712  0.00  0.00    +0.000 C 
ATOM     26  C   UNL     1      -2.465  12.927  23.213  0.00  0.00    +0.000 C 
ENDBRANCH  13  24
ENDBRANCH   1  16
BRANCH  11  27
ATOM     27  N   UNL     1       2.803   4.340  19.986  0.00  0.00    +0.000 N 
ATOM     28  H   UNL     1       3.674   4.034  20.423  0.00  0.00    +0.000 HD
BRANCH  27  29
ATOM     29  C   UNL     1       1.578   3.986  20.673  0.00  0.00    +0.000 C 
BRANCH  29  30
ATOM     30  C   UNL     1       1.152   2.579  20.279  0.00  0.00    +0.000 C 
BRANCH  30  31
ATOM     31  C   UNL     1       1.058   2.439  18.767  0.00  0.00    +0.000 C 
BRANCH  31  32
ATOM     32  O   UNL     1       2.220   1.788  18.269  0.00  0.00    +0.000 OA
ATOM     33  H   UNL     1       1.955   0.897  17.990  0.00  0.00    +0.000 HD
ENDBRANCH  31  32
ENDBRANCH  30  31
ENDBRANCH  29  30
ENDBRANCH  27  29
ENDBRANCH  11  27
TORSDOF 7
ENDMDL
MODEL 4
REMARK VINA RESULT:      -8.3      0.898      1.144
REMARK  Name = 
REMARK  9 active torsions:
REMARK  status: ('A' for Active; 'I' for Inactive)
REMARK    1  A    between atoms: C_1  and  N_2
REMARK    2  A    between atoms: C_5  and  C_6
REMARK    3  A    between atoms: C_9  and  C_10
REMARK    4  A    between atoms: N_15  and  C_16
REMARK    5  A    between atoms: C_20  and  N_21
REMARK    6  A    between atoms: N_21  and  C_22
REMARK    7  A    between atoms: C_22  and  C_23
REMARK    8  A    between atoms: C_23  and  C_24
REMARK    9  A    between atoms: C_24  and  O_25
REMARK                            x       y       z     vdW  Elec       q    Type
REMARK                         _______ _______ _______ _____ _____    ______ ____
ROOT
ATOM      1  C   UNL     1       2.470   7.497  18.703  0.00  0.00    +0.000 A 
ATOM      2  C   UNL     1       3.317   7.749  17.631  0.00  0.00    +0.000 A 
ATOM      3  C   UNL     1       4.036   6.703  17.083  0.00  0.00    +0.000 A 
ATOM      4  N   UNL     1       4.892   6.984  16.005  0.00  0.00    +0.000 NA
ATOM      5  C   UNL     1       5.549   6.002  15.498  0.00  0.00    +0.000 A 
ATOM      6  N   UNL     1       5.474   4.704  15.928  0.00  0.00    +0.000 N 
ATOM      7  C   UNL     1       6.261   3.664  15.303  0.00  0.00    +0.000 C 
ATOM      8  C   UNL     1       4.672   4.335  17.007  0.00  0.00    +0.000 A 
ATOM      9  O   UNL     1       4.649   3.199  17.446  0.00  0.00    +0.000 OA
ATOM     10  C   UNL     1       3.881   5.428  17.617  0.00  0.00    +0.000 A 
ATOM     11  C   UNL     1       2.979   5.214  18.664  0.00  0.00    +0.000 A 
ATOM     12  N   UNL     1       2.311   6.252  19.217  0.00  0.00    +0.000 NA
ENDROOT
BRANCH   1  16
ATOM     13  C   UNL     1       0.138  10.630  20.525  0.00  0.00    +0.000 A 
ATOM     14  C   UNL     1       0.441   9.463  21.235  0.00  0.00    +0.000 A 
ATOM     15  C   UNL     1       1.211   8.456  20.650  0.00  0.00    +0.000 A 
ATOM     16  C   UNL     1       1.704   8.579  19.339  0.00  0.00    +0.000 A 
ATOM     17  C   UNL     1       1.414   9.757  18.639  0.00  0.00    +0.000 A 
ATOM     18  C   UNL     1       0.638  10.755  19.224  0.00  0.00    +0.000 A 
ATOM     19  F   UNL     1       0.368  11.848  18.496  0.00  0.00    +0.000 F 
BRANCH  13  24
ATOM     20  C   UNL     1      -4.046  13.689  22.998  0.00  0.00    +0.000 C 
ATOM     21  N   UNL     1      -3.177  12.681  22.388  0.00  0.00    +0.000 NA
ATOM     22  C   UNL     1      -2.841  13.067  21.011  0.00  0.00    +0.000 C 
ATOM     23  C   UNL     1      -1.974  12.004  20.336  0.00  0.00    +0.000 C 
ATOM     24  C   UNL     1      -0.703  11.723  21.152  0.00  0.00    +0.000 C 
ATOM     25  C   UNL     1      -1.069  11.403  22.610  0.00  0.00    +0.000 C 
ATOM     26  C   UNL     1      -1.971  12.486  23.204  0.00  0.00    +0.000 C 
ENDBRANCH  13  24
ENDBRANCH   1  16
BRANCH  11  27
ATOM     27  N   UNL     1       2.707   3.930  19.114  0.00  0.00    +0.000 N 
ATOM     28  H   UNL     1       3.196   3.705  19.982  0.00  0.00    +0.000 HD
BRANCH  27  29
ATOM     29  C   UNL     1       1.386   3.360  18.952  0.00  0.00    +0.000 C 
BRANCH  29  30
ATOM     30  C   UNL     1       0.696   3.260  20.305  0.00  0.00    +0.000 C 
BRANCH  30  31
ATOM     31  C   UNL     1       1.576   2.540  21.316  0.00  0.00    +0.000 C 
BRANCH  31  32
ATOM     32  O   UNL     1       2.259   3.488  22.125  0.00  0.00    +0.000 OA
ATOM     33  H   UNL     1       1.891   4.363  21.918  0.00  0.00    +0.000 HD
ENDBRANCH  31  32
ENDBRANCH  30  31
ENDBRANCH  29  30
ENDBRANCH  27  29
ENDBRANCH  11  27
TORSDOF 7
ENDMDL
MODEL 5
REMARK VINA RESULT:      -8.3      1.626      2.058
REMARK  Name = 
REMARK  9 active torsions:
REMARK  status: ('A' for Active; 'I' for Inactive)
REMARK    1  A    between atoms: C_1  and  N_2
REMARK    2  A    between atoms: C_5  and  C_6
REMARK    3  A    between atoms: C_9  and  C_10
REMARK    4  A    between atoms: N_15  and  C_16
REMARK    5  A    between atoms: C_20  and  N_21
REMARK    6  A    between atoms: N_21  and  C_22
REMARK    7  A    between atoms: C_22  and  C_23
REMARK    8  A    between atoms: C_23  and  C_24
REMARK    9  A    between atoms: C_24  and  O_25
REMARK                            x       y       z     vdW  Elec       q    Type
REMARK                         _______ _______ _______ _____ _____    ______ ____
ROOT
ATOM      1  C   UNL     1       2.043   7.688  19.419  0.00  0.00    +0.000 A 
ATOM      2  C   UNL     1       2.764   7.934  18.257  0.00  0.00    +0.000 A 
ATOM      3  C   UNL     1       3.618   6.958  17.778  0.00  0.00    +0.000 A 
ATOM      4  N   UNL     1       4.343   7.233  16.606  0.00  0.00    +0.000 NA
ATOM      5  C   UNL     1       5.127   6.316  16.164  0.00  0.00    +0.000 A 
ATOM      6  N   UNL     1       5.305   5.090  16.749  0.00  0.00    +0.000 N 
ATOM      7  C   UNL     1       6.220   4.121  16.186  0.00  0.00    +0.000 C 
ATOM      8  C   UNL     1       4.649   4.737  17.926  0.00  0.00    +0.000 A 
ATOM      9  O   UNL     1       4.851   3.680  18.496  0.00  0.00    +0.000 OA
ATOM     10  C   UNL     1       3.721   5.755  18.468  0.00  0.00    +0.000 A 
ATOM     11  C   UNL     1       2.936   5.534  19.605  0.00  0.00    +0.000 A 
ATOM     12  N   UNL     1       2.135   6.511  20.087  0.00  0.00    +0.000 NA
ENDROOT
BRANCH   1  16
ATOM     13  C   UNL     1      -0.514  10.710  21.124  0.00  0.00    +0.000 A 
ATOM     14  C   UNL     1      -0.048  10.829  19.810  0.00  0.00    +0.000 A 
ATOM     15  C   UNL     1       0.766   9.843  19.253  0.00  0.00    +0.000 A 
ATOM     16  C   UNL     1       1.143   8.703  19.986  0.00  0.00    +0.000 A 
ATOM     17  C   UNL     1       0.659   8.578  21.294  0.00  0.00    +0.000 A 
ATOM     18  C   UNL     1      -0.145   9.571  21.849  0.00  0.00    +0.000 A 
ATOM     19  F   UNL     1      -0.556   9.411  23.115  0.00  0.00    +0.000 F 
BRANCH  13  24
ATOM     20  C   UNL     1      -3.056  15.655  22.561  0.00  0.00    +0.000 C 
ATOM     21  N   UNL     1      -2.246  14.568  22.008  0.00  0.00    +0.000 NA
ATOM     22  C   UNL     1      -1.459  13.929  23.071  0.00  0.00    +0.000 C 
ATOM     23  C   UNL     1      -0.567  12.823  22.509  0.00  0.00    +0.000 C 
ATOM     24  C   UNL     1      -1.392  11.782  21.737  0.00  0.00    +0.000 C 
ATOM     25  C   UNL     1      -2.271  12.476  20.685  0.00  0.00    +0.000 C 
ATOM     26  C   UNL     1      -3.101  13.597  21.312  0.00  0.00    +0.000 C 
ENDBRANCH  13  24
ENDBRANCH   1  16
BRANCH  11  27
ATOM     27  N   UNL     1       2.920   4.292  20.224  0.00  0.00    +0.000 N 
ATOM     28  H   UNL     1       3.799   4.077  20.699  0.00  0.00    +0.000 HD
BRANCH  27  29
ATOM     29  C   UNL     1       1.711   3.800  20.850  0.00  0.00    +0.000 C 
BRANCH  29  30
ATOM     30  C   UNL     1       0.834   3.112  19.814  0.00  0.00    +0.000 C 
BRANCH  30  31
ATOM     31  C   UNL     1       1.635   2.107  19.000  0.00  0.00    +0.000 C 
BRANCH  31  32
ATOM     32  O   UNL     1       1.939   2.651  17.722  0.00  0.00    +0.000 OA
ATOM     33  H   UNL     1       2.897   2.566  17.592  0.00  0.00    +0.000 HD
ENDBRANCH  31  32
ENDBRANCH  30  31
ENDBRANCH  29  30
ENDBRANCH  27  29
ENDBRANCH  11  27
TORSDOF 7
ENDMDL
MODEL 6
REMARK VINA RESULT:      -8.2      1.611      3.442
REMARK  Name = 
REMARK  9 active torsions:
REMARK  status: ('A' for Active; 'I' for Inactive)
REMARK    1  A    between atoms: C_1  and  N_2
REMARK    2  A    between atoms: C_5  and  C_6
REMARK    3  A    between atoms: C_9  and  C_10
REMARK    4  A    between atoms: N_15  and  C_16
REMARK    5  A    between atoms: C_20  and  N_21
REMARK    6  A    between atoms: N_21  and  C_22
REMARK    7  A    between atoms: C_22  and  C_23
REMARK    8  A    between atoms: C_23  and  C_24
REMARK    9  A    between atoms: C_24  and  O_25
REMARK                            x       y       z     vdW  Elec       q    Type
REMARK                         _______ _______ _______ _____ _____    ______ ____
ROOT
ATOM      1  C   UNL     1       2.110   7.135  19.684  0.00  0.00    +0.000 A 
ATOM      2  C   UNL     1       1.841   5.942  20.343  0.00  0.00    +0.000 A 
ATOM      3  C   UNL     1       2.395   4.770  19.862  0.00  0.00    +0.000 A 
ATOM      4  N   UNL     1       2.102   3.575  20.539  0.00  0.00    +0.000 NA
ATOM      5  C   UNL     1       2.629   2.492  20.089  0.00  0.00    +0.000 A 
ATOM      6  N   UNL     1       3.457   2.419  19.000  0.00  0.00    +0.000 N 
ATOM      7  C   UNL     1       3.997   1.153  18.557  0.00  0.00    +0.000 C 
ATOM      8  C   UNL     1       3.784   3.548  18.251  0.00  0.00    +0.000 A 
ATOM      9  O   UNL     1       4.460   3.488  17.240  0.00  0.00    +0.000 OA
ATOM     10  C   UNL     1       3.213   4.824  18.738  0.00  0.00    +0.000 A 
ATOM     11  C   UNL     1       3.496   6.056  18.139  0.00  0.00    +0.000 A 
ATOM     12  N   UNL     1       2.917   7.190  18.595  0.00  0.00    +0.000 NA
ENDROOT
BRANCH   1  16
ATOM     13  C   UNL     1       0.297  10.819  20.996  0.00  0.00    +0.000 A 
ATOM     14  C   UNL     1       0.629   9.820  21.918  0.00  0.00    +0.000 A 
ATOM     15  C   UNL     1       1.231   8.635  21.495  0.00  0.00    +0.000 A 
ATOM     16  C   UNL     1       1.524   8.405  20.139  0.00  0.00    +0.000 A 
ATOM     17  C   UNL     1       1.207   9.414  19.221  0.00  0.00    +0.000 A 
ATOM     18  C   UNL     1       0.597  10.592  19.647  0.00  0.00    +0.000 A 
ATOM     19  F   UNL     1       0.291  11.512  18.721  0.00  0.00    +0.000 F 
BRANCH  13  24
ATOM     20  C   UNL     1      -1.267  15.557  23.838  0.00  0.00    +0.000 C 
ATOM     21  N   UNL     1      -0.669  14.317  23.340  0.00  0.00    +0.000 NA
ATOM     22  C   UNL     1      -1.683  13.256  23.273  0.00  0.00    +0.000 C 
ATOM     23  C   UNL     1      -1.072  11.937  22.801  0.00  0.00    +0.000 C 
ATOM     24  C   UNL     1      -0.364  12.105  21.448  0.00  0.00    +0.000 C 
ATOM     25  C   UNL     1       0.632  13.272  21.512  0.00  0.00    +0.000 C 
ATOM     26  C   UNL     1      -0.039  14.544  22.032  0.00  0.00    +0.000 C 
ENDBRANCH  13  24
ENDBRANCH   1  16
BRANCH  11  27
ATOM     27  N   UNL     1       4.420   6.147  17.108  0.00  0.00    +0.000 N 
ATOM     28  H   UNL     1       3.979   6.175  16.187  0.00  0.00    +0.000 HD
BRANCH  27  29
ATOM     29  C   UNL     1       5.626   6.930  17.270  0.00  0.00    +0.000 C 
BRANCH  29  30
ATOM     30  C   UNL     1       6.840   6.099  16.877  0.00  0.00    +0.000 C 
BRANCH  30  31
ATOM     31  C   UNL     1       7.396   5.344  18.074  0.00  0.00    +0.000 C 
BRANCH  31  32
ATOM     32  O   UNL     1       7.524   3.963  17.759  0.00  0.00    +0.000 OA
ATOM     33  H   UNL     1       8.121   3.571  18.416  0.00  0.00    +0.000 HD
ENDBRANCH  31  32
ENDBRANCH  30  31
ENDBRANCH  29  30
ENDBRANCH  27  29
ENDBRANCH  11  27
TORSDOF 7
ENDMDL
MODEL 7
REMARK VINA RESULT:      -8.2      1.652      2.157
REMARK  Name = 
REMARK  9 active torsions:
REMARK  status: ('A' for Active; 'I' for Inactive)
REMARK    1  A    between atoms: C_1  and  N_2
REMARK    2  A    between atoms: C_5  and  C_6
REMARK    3  A    between atoms: C_9  and  C_10
REMARK    4  A    between atoms: N_15  and  C_16
REMARK    5  A    between atoms: C_20  and  N_21
REMARK    6  A    between atoms: N_21  and  C_22
REMARK    7  A    between atoms: C_22  and  C_23
REMARK    8  A    between atoms: C_23  and  C_24
REMARK    9  A    between atoms: C_24  and  O_25
REMARK                            x       y       z     vdW  Elec       q    Type
REMARK                         _______ _______ _______ _____ _____    ______ ____
ROOT
ATOM      1  C   UNL     1       2.140   7.505  19.716  0.00  0.00    +0.000 A 
ATOM      2  C   UNL     1       2.808   7.716  18.516  0.00  0.00    +0.000 A 
ATOM      3  C   UNL     1       3.554   6.687  17.973  0.00  0.00    +0.000 A 
ATOM      4  N   UNL     1       4.227   6.927  16.764  0.00  0.00    +0.000 NA
ATOM      5  C   UNL     1       4.910   5.960  16.262  0.00  0.00    +0.000 A 
ATOM      6  N   UNL     1       5.028   4.714  16.819  0.00  0.00    +0.000 N 
ATOM      7  C   UNL     1       5.829   3.688  16.189  0.00  0.00    +0.000 C 
ATOM      8  C   UNL     1       4.417   4.391  18.029  0.00  0.00    +0.000 A 
ATOM      9  O   UNL     1       4.570   3.312  18.571  0.00  0.00    +0.000 OA
ATOM     10  C   UNL     1       3.604   5.467  18.640  0.00  0.00    +0.000 A 
ATOM     11  C   UNL     1       2.874   5.286  19.819  0.00  0.00    +0.000 A 
ATOM     12  N   UNL     1       2.180   6.312  20.362  0.00  0.00    +0.000 NA
ENDROOT
BRANCH   1  16
ATOM     13  C   UNL     1      -0.070  10.691  21.599  0.00  0.00    +0.000 A 
ATOM     14  C   UNL     1       0.157  10.700  20.218  0.00  0.00    +0.000 A 
ATOM     15  C   UNL     1       0.858   9.660  19.606  0.00  0.00    +0.000 A 
ATOM     16  C   UNL     1       1.356   8.575  20.350  0.00  0.00    +0.000 A 
ATOM     17  C   UNL     1       1.111   8.561  21.729  0.00  0.00    +0.000 A 
ATOM     18  C   UNL     1       0.419   9.606  22.336  0.00  0.00    +0.000 A 
ATOM     19  F   UNL     1       0.238   9.553  23.663  0.00  0.00    +0.000 F 
BRANCH  13  24
ATOM     20  C   UNL     1      -4.019  14.516  23.258  0.00  0.00    +0.000 C 
ATOM     21  N   UNL     1      -3.232  13.438  22.655  0.00  0.00    +0.000 NA
ATOM     22  C   UNL     1      -2.076  13.993  21.939  0.00  0.00    +0.000 C 
ATOM     23  C   UNL     1      -1.267  12.890  21.258  0.00  0.00    +0.000 C 
ATOM     24  C   UNL     1      -0.824  11.821  22.269  0.00  0.00    +0.000 C 
ATOM     25  C   UNL     1      -2.034  11.312  23.066  0.00  0.00    +0.000 C 
ATOM     26  C   UNL     1      -2.818  12.472  23.681  0.00  0.00    +0.000 C 
ENDBRANCH  13  24
ENDBRANCH   1  16
BRANCH  11  27
ATOM     27  N   UNL     1       2.798   4.038  20.421  0.00  0.00    +0.000 N 
ATOM     28  H   UNL     1       3.561   3.871  21.079  0.00  0.00    +0.000 HD
BRANCH  27  29
ATOM     29  C   UNL     1       1.514   3.466  20.765  0.00  0.00    +0.000 C 
BRANCH  29  30
ATOM     30  C   UNL     1       0.619   3.424  19.535  0.00  0.00    +0.000 C 
BRANCH  30  31
ATOM     31  C   UNL     1       0.901   2.187  18.696  0.00  0.00    +0.000 C 
BRANCH  31  32
ATOM     32  O   UNL     1       2.179   1.660  19.025  0.00  0.00    +0.000 OA
ATOM     33  H   UNL     1       2.762   1.821  18.266  0.00  0.00    +0.000 HD
ENDBRANCH  31  32
ENDBRANCH  30  31
ENDBRANCH  29  30
ENDBRANCH  27  29
ENDBRANCH  11  27
TORSDOF 7
ENDMDL
MODEL 8
REMARK VINA RESULT:      -8.2      4.023      9.775
REMARK  Name = 
REMARK  9 active torsions:
REMARK  status: ('A' for Active; 'I' for Inactive)
REMARK    1  A    between atoms: C_1  and  N_2
REMARK    2  A    between atoms: C_5  and  C_6
REMARK    3  A    between atoms: C_9  and  C_10
REMARK    4  A    between atoms: N_15  and  C_16
REMARK    5  A    between atoms: C_20  and  N_21
REMARK    6  A    between atoms: N_21  and  C_22
REMARK    7  A    between atoms: C_22  and  C_23
REMARK    8  A    between atoms: C_23  and  C_24
REMARK    9  A    between atoms: C_24  and  O_25
REMARK                            x       y       z     vdW  Elec       q    Type
REMARK                         _______ _______ _______ _____ _____    ______ ____
ROOT
ATOM      1  C   UNL     1       0.143   9.999  19.863  0.00  0.00    +0.000 A 
ATOM      2  C   UNL     1      -0.118  10.148  21.219  0.00  0.00    +0.000 A 
ATOM      3  C   UNL     1      -1.072  11.063  21.624  0.00  0.00    +0.000 A 
ATOM      4  N   UNL     1      -1.311  11.201  23.001  0.00  0.00    +0.000 NA
ATOM      5  C   UNL     1      -2.207  12.048  23.366  0.00  0.00    +0.000 A 
ATOM      6  N   UNL     1      -2.946  12.823  22.511  0.00  0.00    +0.000 N 
ATOM      7  C   UNL     1      -3.927  13.760  23.013  0.00  0.00    +0.000 C 
ATOM      8  C   UNL     1      -2.761  12.772  21.131  0.00  0.00    +0.000 A 
ATOM      9  O   UNL     1      -3.359  13.505  20.364  0.00  0.00    +0.000 OA
ATOM     10  C   UNL     1      -1.750  11.800  20.658  0.00  0.00    +0.000 A 
ATOM     11  C   UNL     1      -1.490  11.579  19.302  0.00  0.00    +0.000 A 
ATOM     12  N   UNL     1      -0.526  10.710  18.920  0.00  0.00    +0.000 NA
ENDROOT
BRANCH   1  16
ATOM     13  C   UNL     1       3.069   7.186  18.415  0.00  0.00    +0.000 A 
ATOM     14  C   UNL     1       2.710   8.299  17.648  0.00  0.00    +0.000 A 
ATOM     15  C   UNL     1       1.775   9.219  18.124  0.00  0.00    +0.000 A 
ATOM     16  C   UNL     1       1.167   9.060  19.382  0.00  0.00    +0.000 A 
ATOM     17  C   UNL     1       1.542   7.955  20.155  0.00  0.00    +0.000 A 
ATOM     18  C   UNL     1       2.469   7.034  19.671  0.00  0.00    +0.000 A 
ATOM     19  F   UNL     1       2.770   5.980  20.443  0.00  0.00    +0.000 F 
BRANCH  13  24
ATOM     20  C   UNL     1       6.144   3.552  15.203  0.00  0.00    +0.000 C 
ATOM     21  N   UNL     1       5.204   4.523  15.766  0.00  0.00    +0.000 NA
ATOM     22  C   UNL     1       4.424   3.907  16.847  0.00  0.00    +0.000 C 
ATOM     23  C   UNL     1       3.401   4.888  17.419  0.00  0.00    +0.000 C 
ATOM     24  C   UNL     1       4.078   6.180  17.900  0.00  0.00    +0.000 C 
ATOM     25  C   UNL     1       4.955   6.766  16.783  0.00  0.00    +0.000 C 
ATOM     26  C   UNL     1       5.923   5.717  16.232  0.00  0.00    +0.000 C 
ENDBRANCH  13  24
ENDBRANCH   1  16
BRANCH  11  27
ATOM     27  N   UNL     1      -2.253  12.200  18.324  0.00  0.00    +0.000 N 
ATOM     28  H   UNL     1      -1.893  13.121  18.070  0.00  0.00    +0.000 HD
BRANCH  27  29
ATOM     29  C   UNL     1      -2.852  11.425  17.258  0.00  0.00    +0.000 C 
BRANCH  29  30
ATOM     30  C   UNL     1      -3.897  10.478  17.830  0.00  0.00    +0.000 C 
BRANCH  30  31
ATOM     31  C   UNL     1      -5.235  11.180  18.001  0.00  0.00    +0.000 C 
BRANCH  31  32
ATOM     32  O   UNL     1      -5.035  12.583  18.114  0.00  0.00    +0.000 OA
ATOM     33  H   UNL     1      -5.905  13.006  18.031  0.00  0.00    +0.000 HD
ENDBRANCH  31  32
ENDBRANCH  30  31
ENDBRANCH  29  30
ENDBRANCH  27  29
ENDBRANCH  11  27
TORSDOF 7
ENDMDL
MODEL 9
REMARK VINA RESULT:      -8.2      1.126      1.662
REMARK  Name = 
REMARK  9 active torsions:
REMARK  status: ('A' for Active; 'I' for Inactive)
REMARK    1  A    between atoms: C_1  and  N_2
REMARK    2  A    between atoms: C_5  and  C_6
REMARK    3  A    between atoms: C_9  and  C_10
REMARK    4  A    between atoms: N_15  and  C_16
REMARK    5  A    between atoms: C_20  and  N_21
REMARK    6  A    between atoms: N_21  and  C_22
REMARK    7  A    between atoms: C_22  and  C_23
REMARK    8  A    between atoms: C_23  and  C_24
REMARK    9  A    between atoms: C_24  and  O_25
REMARK                            x       y       z     vdW  Elec       q    Type
REMARK                         _______ _______ _______ _____ _____    ______ ____
ROOT
ATOM      1  C   UNL     1       2.469   7.345  18.946  0.00  0.00    +0.000 A 
ATOM      2  C   UNL     1       3.294   7.655  17.873  0.00  0.00    +0.000 A 
ATOM      3  C   UNL     1       3.977   6.636  17.235  0.00  0.00    +0.000 A 
ATOM      4  N   UNL     1       4.812   6.975  16.158  0.00  0.00    +0.000 NA
ATOM      5  C   UNL     1       5.436   6.019  15.566  0.00  0.00    +0.000 A 
ATOM      6  N   UNL     1       5.344   4.695  15.907  0.00  0.00    +0.000 N 
ATOM      7  C   UNL     1       6.092   3.687  15.190  0.00  0.00    +0.000 C 
ATOM      8  C   UNL     1       4.560   4.267  16.977  0.00  0.00    +0.000 A 
ATOM      9  O   UNL     1       4.525   3.105  17.336  0.00  0.00    +0.000 OA
ATOM     10  C   UNL     1       3.809   5.330  17.682  0.00  0.00    +0.000 A 
ATOM     11  C   UNL     1       2.928   5.060  18.735  0.00  0.00    +0.000 A 
ATOM     12  N   UNL     1       2.295   6.069  19.376  0.00  0.00    +0.000 NA
ENDROOT
BRANCH   1  16
ATOM     13  C   UNL     1       0.428  10.467  21.106  0.00  0.00    +0.000 A 
ATOM     14  C   UNL     1       0.566  10.536  19.715  0.00  0.00    +0.000 A 
ATOM     15  C   UNL     1       1.212   9.516  19.015  0.00  0.00    +0.000 A 
ATOM     16  C   UNL     1       1.742   8.394  19.676  0.00  0.00    +0.000 A 
ATOM     17  C   UNL     1       1.585   8.320  21.066  0.00  0.00    +0.000 A 
ATOM     18  C   UNL     1       0.948   9.345  21.762  0.00  0.00    +0.000 A 
ATOM     19  F   UNL     1       0.852   9.234  23.095  0.00  0.00    +0.000 F 
BRANCH  13  24
ATOM     20  C   UNL     1      -3.317  14.335  23.105  0.00  0.00    +0.000 C 
ATOM     21  N   UNL     1      -2.588  13.273  22.409  0.00  0.00    +0.000 NA
ATOM     22  C   UNL     1      -1.408  13.826  21.733  0.00  0.00    +0.000 C 
ATOM     23  C   UNL     1      -0.657  12.744  20.957  0.00  0.00    +0.000 C 
ATOM     24  C   UNL     1      -0.265  11.574  21.873  0.00  0.00    +0.000 C 
ATOM     25  C   UNL     1      -1.497  11.062  22.635  0.00  0.00    +0.000 C 
ATOM     26  C   UNL     1      -2.220  12.205  23.349  0.00  0.00    +0.000 C 
ENDBRANCH  13  24
ENDBRANCH   1  16
BRANCH  11  27
ATOM     27  N   UNL     1       2.639   3.753  19.101  0.00  0.00    +0.000 N 
ATOM     28  H   UNL     1       3.190   3.439  19.901  0.00  0.00    +0.000 HD
BRANCH  27  29
ATOM     29  C   UNL     1       1.286   3.247  19.010  0.00  0.00    +0.000 C 
BRANCH  29  30
ATOM     30  C   UNL     1       0.641   3.242  20.388  0.00  0.00    +0.000 C 
BRANCH  30  31
ATOM     31  C   UNL     1       1.537   2.558  21.409  0.00  0.00    +0.000 C 
BRANCH  31  32
ATOM     32  O   UNL     1       2.282   3.533  22.129  0.00  0.00    +0.000 OA
ATOM     33  H   UNL     1       2.053   4.401  21.760  0.00  0.00    +0.000 HD
ENDBRANCH  31  32
ENDBRANCH  30  31
ENDBRANCH  29  30
ENDBRANCH  27  29
ENDBRANCH  11  27
TORSDOF 7
ENDMDL
