MODEL 1
REMARK VINA RESULT:      -7.9      0.000      0.000
REMARK  Name = 
REMARK  2 active torsions:
REMARK  status: ('A' for Active; 'I' for Inactive)
REMARK    1  A    between atoms: C_6  and  N_7
REMARK    2  A    between atoms: N_7  and  C_8
REMARK                            x       y       z     vdW  Elec       q    Type
REMARK                         _______ _______ _______ _____ _____    ______ ____
ROOT
ATOM      1  C   UNL     1       2.408   5.173  19.715  0.00  0.00    +0.000 A 
ATOM      2  N   UNL     1       1.294   4.446  19.923  0.00  0.00    +0.000 NA
ATOM      3  C   UNL     1       1.167   3.327  19.209  0.00  0.00    +0.000 A 
ATOM      4  N   UNL     1       2.033   2.874  18.296  0.00  0.00    +0.000 NA
ATOM      5  C   UNL     1       3.121   3.616  18.073  0.00  0.00    +0.000 A 
ATOM      6  C   UNL     1       4.000   3.220  17.073  0.00  0.00    +0.000 A 
ATOM      7  C   UNL     1       5.124   3.997  16.728  0.00  0.00    +0.000 A 
ATOM      8  N   UNL     1       6.011   3.742  15.696  0.00  0.00    +0.000 NA
ATOM      9  C   UNL     1       6.906   4.702  15.639  0.00  0.00    +0.000 A 
ATOM     10  S   UNL     1       6.794   5.918  16.838  0.00  0.00    +0.000 S 
ATOM     11  C   UNL     1       5.384   5.152  17.461  0.00  0.00    +0.000 A 
ATOM     12  C   UNL     1       4.550   5.557  18.509  0.00  0.00    +0.000 A 
ATOM     13  C   UNL     1       3.389   4.793  18.784  0.00  0.00    +0.000 A 
ENDROOT
BRANCH   1  14
ATOM     14  N   UNL     1       2.580   6.378  20.442  0.00  0.00    +0.000 N 
ATOM     15  H   UNL     1       2.734   6.186  21.423  0.00  0.00    +0.000 HD
BRANCH  14  21
ATOM     16 BR   UNL     1      -0.406  10.373  22.231  0.00  0.00    +0.000 Br
ATOM     17  C   UNL     1       0.580   9.487  20.881  0.00  0.00    +0.000 A 
ATOM     18  C   UNL     1       0.622  10.020  19.596  0.00  0.00    +0.000 A 
ATOM     19  C   UNL     1       1.333   9.351  18.600  0.00  0.00    +0.000 A 
ATOM     20  C   UNL     1       1.988   8.154  18.891  0.00  0.00    +0.000 A 
ATOM     21  C   UNL     1       1.964   7.617  20.186  0.00  0.00    +0.000 A 
ATOM     22  C   UNL     1       1.243   8.299  21.178  0.00  0.00    +0.000 A 
ENDBRANCH  14  21
ENDBRANCH   1  14
TORSDOF 2
ENDMDL
MODEL 2
REMARK VINA RESULT:      -7.5      4.020      7.297
REMARK  Name = 
REMARK  2 active torsions:
REMARK  status: ('A' for Active; 'I' for Inactive)
REMARK    1  A    between atoms: C_6  and  N_7
REMARK    2  A    between atoms: N_7  and  C_8
REMARK                            x       y       z     vdW  Elec       q    Type
REMARK                         _______ _______ _______ _____ _____    ______ ____
ROOT
ATOM      1  C   UNL     1       2.400   7.375  19.454  0.00  0.00    +0.000 A 
ATOM      2  N   UNL     1       2.742   7.362  18.152  0.00  0.00    +0.000 NA
ATOM      3  C   UNL     1       2.348   8.405  17.420  0.00  0.00    +0.000 A 
ATOM      4  N   UNL     1       1.632   9.447  17.856  0.00  0.00    +0.000 NA
ATOM      5  C   UNL     1       1.271   9.438  19.142  0.00  0.00    +0.000 A 
ATOM      6  C   UNL     1       0.456  10.461  19.609  0.00  0.00    +0.000 A 
ATOM      7  C   UNL     1      -0.031  10.472  20.931  0.00  0.00    +0.000 A 
ATOM      8  N   UNL     1      -0.914  11.391  21.471  0.00  0.00    +0.000 NA
ATOM      9  C   UNL     1      -1.184  11.062  22.714  0.00  0.00    +0.000 A 
ATOM     10  S   UNL     1      -0.362   9.696  23.335  0.00  0.00    +0.000 S 
ATOM     11  C   UNL     1       0.377   9.461  21.798  0.00  0.00    +0.000 A 
ATOM     12  C   UNL     1       1.237   8.441  21.378  0.00  0.00    +0.000 A 
ATOM     13  C   UNL     1       1.652   8.418  20.024  0.00  0.00    +0.000 A 
ENDROOT
BRANCH   1  14
ATOM     14  N   UNL     1       2.784   6.280  20.269  0.00  0.00    +0.000 N 
ATOM     15  H   UNL     1       3.723   6.410  20.624  0.00  0.00    +0.000 HD
BRANCH  14  21
ATOM     16 BR   UNL     1       3.805   1.543  18.126  0.00  0.00    +0.000 Br
ATOM     17  C   UNL     1       2.752   2.727  19.161  0.00  0.00    +0.000 A 
ATOM     18  C   UNL     1       1.546   2.286  19.698  0.00  0.00    +0.000 A 
ATOM     19  C   UNL     1       0.764   3.169  20.442  0.00  0.00    +0.000 A 
ATOM     20  C   UNL     1       1.187   4.484  20.637  0.00  0.00    +0.000 A 
ATOM     21  C   UNL     1       2.407   4.933  20.112  0.00  0.00    +0.000 A 
ATOM     22  C   UNL     1       3.183   4.035  19.363  0.00  0.00    +0.000 A 
ENDBRANCH  14  21
ENDBRANCH   1  14
TORSDOF 2
ENDMDL
MODEL 3
REMARK VINA RESULT:      -7.4      4.069      5.215
REMARK  Name = 
REMARK  2 active torsions:
REMARK  status: ('A' for Active; 'I' for Inactive)
REMARK    1  A    between atoms: C_6  and  N_7
REMARK    2  A    between atoms: N_7  and  C_8
REMARK                            x       y       z     vdW  Elec       q    Type
REMARK                         _______ _______ _______ _____ _____    ______ ____
ROOT
ATOM      1  C   UNL     1       5.760   4.110  17.796  0.00  0.00    +0.000 A 
ATOM      2  N   UNL     1       6.260   4.729  18.881  0.00  0.00    +0.000 NA
ATOM      3  C   UNL     1       7.160   5.689  18.661  0.00  0.00    +0.000 A 
ATOM      4  N   UNL     1       7.621   6.076  17.467  0.00  0.00    +0.000 NA
ATOM      5  C   UNL     1       7.143   5.436  16.397  0.00  0.00    +0.000 A 
ATOM      6  C   UNL     1       7.662   5.753  15.148  0.00  0.00    +0.000 A 
ATOM      7  C   UNL     1       7.264   5.062  13.986  0.00  0.00    +0.000 A 
ATOM      8  N   UNL     1       7.778   5.237  12.713  0.00  0.00    +0.000 NA
ATOM      9  C   UNL     1       7.206   4.389  11.888  0.00  0.00    +0.000 A 
ATOM     10  S   UNL     1       5.985   3.390  12.552  0.00  0.00    +0.000 S 
ATOM     11  C   UNL     1       6.278   4.085  14.099  0.00  0.00    +0.000 A 
ATOM     12  C   UNL     1       5.696   3.772  15.332  0.00  0.00    +0.000 A 
ATOM     13  C   UNL     1       6.168   4.434  16.492  0.00  0.00    +0.000 A 
ENDROOT
BRANCH   1  14
ATOM     14  N   UNL     1       4.811   3.072  17.981  0.00  0.00    +0.000 N 
ATOM     15  H   UNL     1       4.930   2.350  17.282  0.00  0.00    +0.000 HD
BRANCH  14  21
ATOM     16 BR   UNL     1       1.405   2.538  22.004  0.00  0.00    +0.000 Br
ATOM     17  C   UNL     1       1.834   2.973  20.213  0.00  0.00    +0.000 A 
ATOM     18  C   UNL     1       0.822   3.341  19.332  0.00  0.00    +0.000 A 
ATOM     19  C   UNL     1       1.142   3.639  18.008  0.00  0.00    +0.000 A 
ATOM     20  C   UNL     1       2.465   3.561  17.572  0.00  0.00    +0.000 A 
ATOM     21  C   UNL     1       3.494   3.205  18.456  0.00  0.00    +0.000 A 
ATOM     22  C   UNL     1       3.157   2.904  19.785  0.00  0.00    +0.000 A 
ENDBRANCH  14  21
ENDBRANCH   1  14
TORSDOF 2
ENDMDL
MODEL 4
REMARK VINA RESULT:      -7.3      1.210      1.584
REMARK  Name = 
REMARK  2 active torsions:
REMARK  status: ('A' for Active; 'I' for Inactive)
REMARK    1  A    between atoms: C_6  and  N_7
REMARK    2  A    between atoms: N_7  and  C_8
REMARK                            x       y       z     vdW  Elec       q    Type
REMARK                         _______ _______ _______ _____ _____    ______ ____
ROOT
ATOM      1  C   UNL     1       2.037   5.050  20.171  0.00  0.00    +0.000 A 
ATOM      2  N   UNL     1       0.960   4.273  20.391  0.00  0.00    +0.000 NA
ATOM      3  C   UNL     1       0.870   3.156  19.668  0.00  0.00    +0.000 A 
ATOM      4  N   UNL     1       1.739   2.749  18.737  0.00  0.00    +0.000 NA
ATOM      5  C   UNL     1       2.789   3.540  18.502  0.00  0.00    +0.000 A 
ATOM      6  C   UNL     1       3.666   3.192  17.483  0.00  0.00    +0.000 A 
ATOM      7  C   UNL     1       4.749   4.021  17.127  0.00  0.00    +0.000 A 
ATOM      8  N   UNL     1       5.627   3.814  16.077  0.00  0.00    +0.000 NA
ATOM      9  C   UNL     1       6.479   4.813  16.013  0.00  0.00    +0.000 A 
ATOM     10  S   UNL     1       6.334   6.013  17.225  0.00  0.00    +0.000 S 
ATOM     11  C   UNL     1       4.971   5.180  17.866  0.00  0.00    +0.000 A 
ATOM     12  C   UNL     1       4.138   5.538  18.931  0.00  0.00    +0.000 A 
ATOM     13  C   UNL     1       3.017   4.722  19.219  0.00  0.00    +0.000 A 
ENDROOT
BRANCH   1  14
ATOM     14  N   UNL     1       2.168   6.256  20.905  0.00  0.00    +0.000 N 
ATOM     15  H   UNL     1       2.362   6.062  21.879  0.00  0.00    +0.000 HD
BRANCH  14  21
ATOM     16 BR   UNL     1       1.685  10.699  18.061  0.00  0.00    +0.000 Br
ATOM     17  C   UNL     1       1.181   9.546  19.473  0.00  0.00    +0.000 A 
ATOM     18  C   UNL     1       0.178   9.936  20.357  0.00  0.00    +0.000 A 
ATOM     19  C   UNL     1      -0.174   9.092  21.409  0.00  0.00    +0.000 A 
ATOM     20  C   UNL     1       0.480   7.871  21.576  0.00  0.00    +0.000 A 
ATOM     21  C   UNL     1       1.481   7.462  20.682  0.00  0.00    +0.000 A 
ATOM     22  C   UNL     1       1.828   8.323  19.630  0.00  0.00    +0.000 A 
ENDBRANCH  14  21
ENDBRANCH   1  14
TORSDOF 2
ENDMDL
MODEL 5
REMARK VINA RESULT:      -7.3      3.079      4.733
REMARK  Name = 
REMARK  2 active torsions:
REMARK  status: ('A' for Active; 'I' for Inactive)
REMARK    1  A    between atoms: C_6  and  N_7
REMARK    2  A    between atoms: N_7  and  C_8
REMARK                            x       y       z     vdW  Elec       q    Type
REMARK                         _______ _______ _______ _____ _____    ______ ____
ROOT
ATOM      1  C   UNL     1       5.553   4.139  17.950  0.00  0.00    +0.000 A 
ATOM      2  N   UNL     1       6.181   4.675  19.013  0.00  0.00    +0.000 NA
ATOM      3  C   UNL     1       7.223   5.467  18.757  0.00  0.00    +0.000 A 
ATOM      4  N   UNL     1       7.709   5.761  17.547  0.00  0.00    +0.000 NA
ATOM      5  C   UNL     1       7.099   5.202  16.498  0.00  0.00    +0.000 A 
ATOM      6  C   UNL     1       7.628   5.418  15.232  0.00  0.00    +0.000 A 
ATOM      7  C   UNL     1       7.087   4.795  14.090  0.00  0.00    +0.000 A 
ATOM      8  N   UNL     1       7.587   4.870  12.801  0.00  0.00    +0.000 NA
ATOM      9  C   UNL     1       6.857   4.125  12.002  0.00  0.00    +0.000 A 
ATOM     10  S   UNL     1       5.505   3.351  12.711  0.00  0.00    +0.000 S 
ATOM     11  C   UNL     1       5.954   3.999  14.241  0.00  0.00    +0.000 A 
ATOM     12  C   UNL     1       5.363   3.798  15.493  0.00  0.00    +0.000 A 
ATOM     13  C   UNL     1       5.973   4.380  16.631  0.00  0.00    +0.000 A 
ENDROOT
BRANCH   1  14
ATOM     14  N   UNL     1       4.449   3.278  18.173  0.00  0.00    +0.000 N 
ATOM     15  H   UNL     1       4.309   2.664  17.381  0.00  0.00    +0.000 HD
BRANCH  14  21
ATOM     16 BR   UNL     1       1.512   6.893  20.699  0.00  0.00    +0.000 Br
ATOM     17  C   UNL     1       1.859   5.133  20.098  0.00  0.00    +0.000 A 
ATOM     18  C   UNL     1       0.988   4.103  20.443  0.00  0.00    +0.000 A 
ATOM     19  C   UNL     1       1.260   2.804  20.015  0.00  0.00    +0.000 A 
ATOM     20  C   UNL     1       2.400   2.542  19.254  0.00  0.00    +0.000 A 
ATOM     21  C   UNL     1       3.275   3.575  18.889  0.00  0.00    +0.000 A 
ATOM     22  C   UNL     1       2.990   4.877  19.329  0.00  0.00    +0.000 A 
ENDBRANCH  14  21
ENDBRANCH   1  14
TORSDOF 2
ENDMDL
MODEL 6
REMARK VINA RESULT:      -7.3      3.390      6.323
REMARK  Name = 
REMARK  2 active torsions:
REMARK  status: ('A' for Active; 'I' for Inactive)
REMARK    1  A    between atoms: C_6  and  N_7
REMARK    2  A    between atoms: N_7  and  C_8
REMARK                            x       y       z     vdW  Elec       q    Type
REMARK                         _______ _______ _______ _____ _____    ______ ____
ROOT
ATOM      1  C   UNL     1       3.133   3.753  18.842  0.00  0.00    +0.000 A 
ATOM      2  N   UNL     1       3.203   2.753  19.740  0.00  0.00    +0.000 NA
ATOM      3  C   UNL     1       2.706   3.001  20.952  0.00  0.00    +0.000 A 
ATOM      4  N   UNL     1       2.164   4.154  21.359  0.00  0.00    +0.000 NA
ATOM      5  C   UNL     1       2.125   5.151  20.472  0.00  0.00    +0.000 A 
ATOM      6  C   UNL     1       1.647   6.388  20.884  0.00  0.00    +0.000 A 
ATOM      7  C   UNL     1       1.653   7.506  20.027  0.00  0.00    +0.000 A 
ATOM      8  N   UNL     1       1.283   8.797  20.361  0.00  0.00    +0.000 NA
ATOM      9  C   UNL     1       1.463   9.588  19.327  0.00  0.00    +0.000 A 
ATOM     10  S   UNL     1       2.011   8.843  17.888  0.00  0.00    +0.000 S 
ATOM     11  C   UNL     1       2.091   7.336  18.715  0.00  0.00    +0.000 A 
ATOM     12  C   UNL     1       2.533   6.094  18.248  0.00  0.00    +0.000 A 
ATOM     13  C   UNL     1       2.582   5.006  19.155  0.00  0.00    +0.000 A 
ENDROOT
BRANCH   1  14
ATOM     14  N   UNL     1       3.662   3.540  17.543  0.00  0.00    +0.000 N 
ATOM     15  H   UNL     1       3.369   2.642  17.181  0.00  0.00    +0.000 HD
BRANCH  14  21
ATOM     16 BR   UNL     1       6.810   4.358  13.361  0.00  0.00    +0.000 Br
ATOM     17  C   UNL     1       6.446   4.375  15.217  0.00  0.00    +0.000 A 
ATOM     18  C   UNL     1       7.445   4.747  16.112  0.00  0.00    +0.000 A 
ATOM     19  C   UNL     1       7.177   4.736  17.481  0.00  0.00    +0.000 A 
ATOM     20  C   UNL     1       5.919   4.348  17.945  0.00  0.00    +0.000 A 
ATOM     21  C   UNL     1       4.902   3.986  17.050  0.00  0.00    +0.000 A 
ATOM     22  C   UNL     1       5.186   3.998  15.676  0.00  0.00    +0.000 A 
ENDBRANCH  14  21
ENDBRANCH   1  14
TORSDOF 2
ENDMDL
MODEL 7
REMARK VINA RESULT:      -7.2      2.929      6.093
REMARK  Name = 
REMARK  2 active torsions:
REMARK  status: ('A' for Active; 'I' for Inactive)
REMARK    1  A    between atoms: C_6  and  N_7
REMARK    2  A    between atoms: N_7  and  C_8
REMARK                            x       y       z     vdW  Elec       q    Type
REMARK                         _______ _______ _______ _____ _____    ______ ____
ROOT
ATOM      1  C   UNL     1       2.885   4.783  18.632  0.00  0.00    +0.000 A 
ATOM      2  N   UNL     1       2.983   3.716  19.447  0.00  0.00    +0.000 NA
ATOM      3  C   UNL     1       2.501   3.860  20.682  0.00  0.00    +0.000 A 
ATOM      4  N   UNL     1       1.948   4.968  21.187  0.00  0.00    +0.000 NA
ATOM      5  C   UNL     1       1.881   6.031  20.382  0.00  0.00    +0.000 A 
ATOM      6  C   UNL     1       1.391   7.224  20.898  0.00  0.00    +0.000 A 
ATOM      7  C   UNL     1       1.367   8.406  20.132  0.00  0.00    +0.000 A 
ATOM      8  N   UNL     1       0.983   9.661  20.573  0.00  0.00    +0.000 NA
ATOM      9  C   UNL     1       1.136  10.533  19.602  0.00  0.00    +0.000 A 
ATOM     10  S   UNL     1       1.673   9.913  18.101  0.00  0.00    +0.000 S 
ATOM     11  C   UNL     1       1.788   8.347  18.805  0.00  0.00    +0.000 A 
ATOM     12  C   UNL     1       2.241   7.153  18.235  0.00  0.00    +0.000 A 
ATOM     13  C   UNL     1       2.320   5.998  19.052  0.00  0.00    +0.000 A 
ENDROOT
BRANCH   1  14
ATOM     14  N   UNL     1       3.397   4.682  17.314  0.00  0.00    +0.000 N 
ATOM     15  H   UNL     1       2.916   3.957  16.797  0.00  0.00    +0.000 HD
BRANCH  14  21
ATOM     16 BR   UNL     1       7.778   7.644  17.636  0.00  0.00    +0.000 Br
ATOM     17  C   UNL     1       6.777   6.197  16.941  0.00  0.00    +0.000 A 
ATOM     18  C   UNL     1       7.326   5.393  15.947  0.00  0.00    +0.000 A 
ATOM     19  C   UNL     1       6.575   4.342  15.424  0.00  0.00    +0.000 A 
ATOM     20  C   UNL     1       5.282   4.105  15.890  0.00  0.00    +0.000 A 
ATOM     21  C   UNL     1       4.725   4.900  16.902  0.00  0.00    +0.000 A 
ATOM     22  C   UNL     1       5.491   5.957  17.418  0.00  0.00    +0.000 A 
ENDBRANCH  14  21
ENDBRANCH   1  14
TORSDOF 2
ENDMDL
MODEL 8
REMARK VINA RESULT:      -7.1      1.223      1.679
REMARK  Name = 
REMARK  2 active torsions:
REMARK  status: ('A' for Active; 'I' for Inactive)
REMARK    1  A    between atoms: C_6  and  N_7
REMARK    2  A    between atoms: N_7  and  C_8
REMARK                            x       y       z     vdW  Elec       q    Type
REMARK                         _______ _______ _______ _____ _____    ______ ____
ROOT
ATOM      1  C   UNL     1       2.268   5.954  20.020  0.00  0.00    +0.000 A 
ATOM      2  N   UNL     1       1.244   5.275  20.570  0.00  0.00    +0.000 NA
ATOM      3  C   UNL     1       1.095   4.006  20.191  0.00  0.00    +0.000 A 
ATOM      4  N   UNL     1       1.856   3.355  19.303  0.00  0.00    +0.000 NA
ATOM      5  C   UNL     1       2.851   4.045  18.739  0.00  0.00    +0.000 A 
ATOM      6  C   UNL     1       3.608   3.428  17.751  0.00  0.00    +0.000 A 
ATOM      7  C   UNL     1       4.619   4.120  17.056  0.00  0.00    +0.000 A 
ATOM      8  N   UNL     1       5.370   3.631  16.001  0.00  0.00    +0.000 NA
ATOM      9  C   UNL     1       6.182   4.568  15.568  0.00  0.00    +0.000 A 
ATOM     10  S   UNL     1       6.155   6.051  16.422  0.00  0.00    +0.000 S 
ATOM     11  C   UNL     1       4.899   5.434  17.424  0.00  0.00    +0.000 A 
ATOM     12  C   UNL     1       4.192   6.073  18.448  0.00  0.00    +0.000 A 
ATOM     13  C   UNL     1       3.134   5.374  19.079  0.00  0.00    +0.000 A 
ENDROOT
BRANCH   1  14
ATOM     14  N   UNL     1       2.457   7.312  20.383  0.00  0.00    +0.000 N 
ATOM     15  H   UNL     1       3.291   7.419  20.946  0.00  0.00    +0.000 HD
BRANCH  14  21
ATOM     16 BR   UNL     1      -0.790  11.056  18.511  0.00  0.00    +0.000 Br
ATOM     17  C   UNL     1      -0.052  10.021  19.911  0.00  0.00    +0.000 A 
ATOM     18  C   UNL     1      -0.436  10.267  21.226  0.00  0.00    +0.000 A 
ATOM     19  C   UNL     1       0.128   9.515  22.256  0.00  0.00    +0.000 A 
ATOM     20  C   UNL     1       1.074   8.531  21.968  0.00  0.00    +0.000 A 
ATOM     21  C   UNL     1       1.457   8.266  20.645  0.00  0.00    +0.000 A 
ATOM     22  C   UNL     1       0.883   9.032  19.618  0.00  0.00    +0.000 A 
ENDBRANCH  14  21
ENDBRANCH   1  14
TORSDOF 2
ENDMDL
MODEL 9
REMARK VINA RESULT:      -7.0      2.849      5.870
REMARK  Name = 
REMARK  2 active torsions:
REMARK  status: ('A' for Active; 'I' for Inactive)
REMARK    1  A    between atoms: C_6  and  N_7
REMARK    2  A    between atoms: N_7  and  C_8
REMARK                            x       y       z     vdW  Elec       q    Type
REMARK                         _______ _______ _______ _____ _____    ______ ____
ROOT
ATOM      1  C   UNL     1       3.207   3.637  18.839  0.00  0.00    +0.000 A 
ATOM      2  N   UNL     1       3.255   2.629  19.728  0.00  0.00    +0.000 NA
ATOM      3  C   UNL     1       2.714   2.860  20.925  0.00  0.00    +0.000 A 
ATOM      4  N   UNL     1       2.149   4.003  21.326  0.00  0.00    +0.000 NA
ATOM      5  C   UNL     1       2.133   5.010  20.448  0.00  0.00    +0.000 A 
ATOM      6  C   UNL     1       1.630   6.238  20.857  0.00  0.00    +0.000 A 
ATOM      7  C   UNL     1       1.656   7.366  20.012  0.00  0.00    +0.000 A 
ATOM      8  N   UNL     1       1.265   8.650  20.347  0.00  0.00    +0.000 NA
ATOM      9  C   UNL     1       1.473   9.453  19.329  0.00  0.00    +0.000 A 
ATOM     10  S   UNL     1       2.077   8.728  17.901  0.00  0.00    +0.000 S 
ATOM     11  C   UNL     1       2.140   7.213  18.715  0.00  0.00    +0.000 A 
ATOM     12  C   UNL     1       2.608   5.980  18.250  0.00  0.00    +0.000 A 
ATOM     13  C   UNL     1       2.635   4.883  19.146  0.00  0.00    +0.000 A 
ENDROOT
BRANCH   1  14
ATOM     14  N   UNL     1       3.782   3.443  17.557  0.00  0.00    +0.000 N 
ATOM     15  H   UNL     1       3.625   2.497  17.234  0.00  0.00    +0.000 HD
BRANCH  14  21
ATOM     16 BR   UNL     1       7.926   6.634  18.407  0.00  0.00    +0.000 Br
ATOM     17  C   UNL     1       6.874   5.502  17.315  0.00  0.00    +0.000 A 
ATOM     18  C   UNL     1       7.213   5.325  15.977  0.00  0.00    +0.000 A 
ATOM     19  C   UNL     1       6.422   4.506  15.172  0.00  0.00    +0.000 A 
ATOM     20  C   UNL     1       5.296   3.877  15.706  0.00  0.00    +0.000 A 
ATOM     21  C   UNL     1       4.955   4.037  17.056  0.00  0.00    +0.000 A 
ATOM     22  C   UNL     1       5.758   4.867  17.854  0.00  0.00    +0.000 A 
ENDBRANCH  14  21
ENDBRANCH   1  14
TORSDOF 2
ENDMDL
