MODEL 1
REMARK VINA RESULT:      -6.5      0.000      0.000
REMARK  Name = 
REMARK  7 active torsions:
REMARK  status: ('A' for Active; 'I' for Inactive)
REMARK    1  A    between atoms: C_1  and  C_2
REMARK    2  A    between atoms: C_3  and  C_4
REMARK    3  A    between atoms: C_4  and  C_5
REMARK    4  A    between atoms: C_4  and  C_6
REMARK    5  A    between atoms: C_4  and  O_7
REMARK    6  A    between atoms: N_10  and  C_11
REMARK    7  A    between atoms: C_14  and  C_15
REMARK                            x       y       z     vdW  Elec       q    Type
REMARK                         _______ _______ _______ _____ _____    ______ ____
ROOT
ATOM      1  C   UNL     1       4.395   3.969  18.950  0.00  0.00    +0.000 A 
ATOM      2  C   UNL     1       4.384   2.671  19.506  0.00  0.00    +0.000 A 
ATOM      3  C   UNL     1       3.448   2.268  20.462  0.00  0.00    +0.000 A 
ATOM      4  C   UNL     1       2.514   3.171  20.939  0.00  0.00    +0.000 A 
ATOM      5  C   UNL     1       2.482   4.504  20.464  0.00  0.00    +0.000 A 
ATOM      6  C   UNL     1       1.543   5.457  20.952  0.00  0.00    +0.000 A 
ATOM      7  C   UNL     1       1.506   6.772  20.495  0.00  0.00    +0.000 A 
ATOM      8  C   UNL     1       2.371   7.167  19.512  0.00  0.00    +0.000 A 
ATOM      9  C   UNL     1       3.262   6.236  18.989  0.00  0.00    +0.000 A 
ATOM     10  C   UNL     1       3.409   4.905  19.454  0.00  0.00    +0.000 A 
ENDROOT
BRANCH   1  16
ATOM     11  C   UNL     1       4.234   3.554  15.836  0.00  0.00    +0.000 C 
ATOM     12  C   UNL     1       5.493   3.516  16.707  0.00  0.00    +0.000 C 
ATOM     13  C   UNL     1       6.819   4.069  16.080  0.00  0.00    +0.000 C 
ATOM     14  C   UNL     1       7.596   4.552  17.305  0.00  0.00    +0.000 C 
ATOM     15  C   UNL     1       6.533   5.040  18.253  0.00  0.00    +0.000 C 
ATOM     16  N   UNL     1       5.314   4.291  17.951  0.00  0.00    +0.000 N 
BRANCH  13  17
ATOM     17  C   UNL     1       6.745   5.104  14.923  0.00  0.00    +0.000 C 
ATOM     18  C   UNL     1       6.666   4.527  13.504  0.00  0.00    +0.000 C 
ATOM     19  C   UNL     1       5.540   6.046  15.106  0.00  0.00    +0.000 C 
BRANCH  17  20
ATOM     20  O   UNL     1       7.885   5.966  15.041  0.00  0.00    +0.000 OA
ATOM     21  H   UNL     1       8.088   6.099  15.981  0.00  0.00    +0.000 HD
ENDBRANCH  17  20
ENDBRANCH  13  17
ENDBRANCH   1  16
BRANCH   4  22
ATOM     22  C   UNL     1       1.586   2.701  21.921  0.00  0.00    +0.000 C 
ATOM     23  N   UNL     1       0.844   2.296  22.726  0.00  0.00    +0.000 NA
ENDBRANCH   4  22
TORSDOF 4
ENDMDL
MODEL 2
REMARK VINA RESULT:      -6.4      2.880      6.663
REMARK  Name = 
REMARK  7 active torsions:
REMARK  status: ('A' for Active; 'I' for Inactive)
REMARK    1  A    between atoms: C_1  and  C_2
REMARK    2  A    between atoms: C_3  and  C_4
REMARK    3  A    between atoms: C_4  and  C_5
REMARK    4  A    between atoms: C_4  and  C_6
REMARK    5  A    between atoms: C_4  and  O_7
REMARK    6  A    between atoms: N_10  and  C_11
REMARK    7  A    between atoms: C_14  and  C_15
REMARK                            x       y       z     vdW  Elec       q    Type
REMARK                         _______ _______ _______ _____ _____    ______ ____
ROOT
ATOM      1  C   UNL     1       4.469   4.354  16.983  0.00  0.00    +0.000 A 
ATOM      2  C   UNL     1       4.390   3.978  15.623  0.00  0.00    +0.000 A 
ATOM      3  C   UNL     1       5.388   4.288  14.697  0.00  0.00    +0.000 A 
ATOM      4  C   UNL     1       6.484   5.038  15.084  0.00  0.00    +0.000 A 
ATOM      5  C   UNL     1       6.620   5.491  16.419  0.00  0.00    +0.000 A 
ATOM      6  C   UNL     1       7.730   6.279  16.839  0.00  0.00    +0.000 A 
ATOM      7  C   UNL     1       7.871   6.733  18.148  0.00  0.00    +0.000 A 
ATOM      8  C   UNL     1       6.939   6.383  19.086  0.00  0.00    +0.000 A 
ATOM      9  C   UNL     1       5.875   5.574  18.704  0.00  0.00    +0.000 A 
ATOM     10  C   UNL     1       5.624   5.135  17.379  0.00  0.00    +0.000 A 
ENDROOT
BRANCH   1  16
ATOM     11  C   UNL     1       4.670   2.670  19.632  0.00  0.00    +0.000 C 
ATOM     12  C   UNL     1       3.501   2.698  18.644  0.00  0.00    +0.000 C 
ATOM     13  C   UNL     1       2.056   2.559  19.236  0.00  0.00    +0.000 C 
ATOM     14  C   UNL     1       1.200   3.315  18.218  0.00  0.00    +0.000 C 
ATOM     15  C   UNL     1       2.093   4.423  17.729  0.00  0.00    +0.000 C 
ATOM     16  N   UNL     1       3.472   3.957  17.875  0.00  0.00    +0.000 N 
BRANCH  13  17
ATOM     17  C   UNL     1       1.792   2.961  20.714  0.00  0.00    +0.000 C 
ATOM     18  C   UNL     1       2.481   2.102  21.781  0.00  0.00    +0.000 C 
ATOM     19  C   UNL     1       2.202   4.425  20.966  0.00  0.00    +0.000 C 
BRANCH  17  20
ATOM     20  O   UNL     1       0.372   2.955  20.917  0.00  0.00    +0.000 OA
ATOM     21  H   UNL     1       0.179   2.636  21.812  0.00  0.00    +0.000 HD
ENDBRANCH  17  20
ENDBRANCH  13  17
ENDBRANCH   1  16
BRANCH   4  22
ATOM     22  C   UNL     1       7.469   5.329  14.089  0.00  0.00    +0.000 C 
ATOM     23  N   UNL     1       8.254   5.562  13.257  0.00  0.00    +0.000 NA
ENDBRANCH   4  22
TORSDOF 4
ENDMDL
MODEL 3
REMARK VINA RESULT:      -6.4      2.678      6.588
REMARK  Name = 
REMARK  7 active torsions:
REMARK  status: ('A' for Active; 'I' for Inactive)
REMARK    1  A    between atoms: C_1  and  C_2
REMARK    2  A    between atoms: C_3  and  C_4
REMARK    3  A    between atoms: C_4  and  C_5
REMARK    4  A    between atoms: C_4  and  C_6
REMARK    5  A    between atoms: C_4  and  O_7
REMARK    6  A    between atoms: N_10  and  C_11
REMARK    7  A    between atoms: C_14  and  C_15
REMARK                            x       y       z     vdW  Elec       q    Type
REMARK                         _______ _______ _______ _____ _____    ______ ____
ROOT
ATOM      1  C   UNL     1       4.892   4.140  17.332  0.00  0.00    +0.000 A 
ATOM      2  C   UNL     1       4.698   3.621  16.032  0.00  0.00    +0.000 A 
ATOM      3  C   UNL     1       5.510   3.973  14.952  0.00  0.00    +0.000 A 
ATOM      4  C   UNL     1       6.519   4.904  15.118  0.00  0.00    +0.000 A 
ATOM      5  C   UNL     1       6.755   5.504  16.379  0.00  0.00    +0.000 A 
ATOM      6  C   UNL     1       7.776   6.478  16.573  0.00  0.00    +0.000 A 
ATOM      7  C   UNL     1       8.013   7.077  17.808  0.00  0.00    +0.000 A 
ATOM      8  C   UNL     1       7.273   6.697  18.893  0.00  0.00    +0.000 A 
ATOM      9  C   UNL     1       6.304   5.712  18.733  0.00  0.00    +0.000 A 
ATOM     10  C   UNL     1       5.956   5.111  17.497  0.00  0.00    +0.000 A 
ENDROOT
BRANCH   1  16
ATOM     11  C   UNL     1       2.186   5.298  18.440  0.00  0.00    +0.000 C 
ATOM     12  C   UNL     1       3.283   4.591  19.241  0.00  0.00    +0.000 C 
ATOM     13  C   UNL     1       2.830   3.689  20.440  0.00  0.00    +0.000 C 
ATOM     14  C   UNL     1       3.947   2.648  20.521  0.00  0.00    +0.000 C 
ATOM     15  C   UNL     1       4.381   2.454  19.094  0.00  0.00    +0.000 C 
ATOM     16  N   UNL     1       4.089   3.699  18.385  0.00  0.00    +0.000 N 
BRANCH  13  17
ATOM     17  C   UNL     1       1.397   3.086  20.446  0.00  0.00    +0.000 C 
ATOM     18  C   UNL     1       1.049   2.159  19.275  0.00  0.00    +0.000 C 
ATOM     19  C   UNL     1       1.136   2.304  21.747  0.00  0.00    +0.000 C 
BRANCH  17  20
ATOM     20  O   UNL     1       0.469   4.179  20.502  0.00  0.00    +0.000 OA
ATOM     21  H   UNL     1       0.912   4.989  20.203  0.00  0.00    +0.000 HD
ENDBRANCH  17  20
ENDBRANCH  13  17
ENDBRANCH   1  16
BRANCH   4  22
ATOM     22  C   UNL     1       7.313   5.228  13.973  0.00  0.00    +0.000 C 
ATOM     23  N   UNL     1       7.938   5.498  13.024  0.00  0.00    +0.000 NA
ENDBRANCH   4  22
TORSDOF 4
ENDMDL
MODEL 4
REMARK VINA RESULT:      -6.4      3.232      5.787
REMARK  Name = 
REMARK  7 active torsions:
REMARK  status: ('A' for Active; 'I' for Inactive)
REMARK    1  A    between atoms: C_1  and  C_2
REMARK    2  A    between atoms: C_3  and  C_4
REMARK    3  A    between atoms: C_4  and  C_5
REMARK    4  A    between atoms: C_4  and  C_6
REMARK    5  A    between atoms: C_4  and  O_7
REMARK    6  A    between atoms: N_10  and  C_11
REMARK    7  A    between atoms: C_14  and  C_15
REMARK                            x       y       z     vdW  Elec       q    Type
REMARK                         _______ _______ _______ _____ _____    ______ ____
ROOT
ATOM      1  C   UNL     1       2.267   7.290  18.532  0.00  0.00    +0.000 A 
ATOM      2  C   UNL     1       2.632   8.144  17.467  0.00  0.00    +0.000 A 
ATOM      3  C   UNL     1       2.418   9.524  17.502  0.00  0.00    +0.000 A 
ATOM      4  C   UNL     1       1.777  10.099  18.585  0.00  0.00    +0.000 A 
ATOM      5  C   UNL     1       1.342   9.308  19.676  0.00  0.00    +0.000 A 
ATOM      6  C   UNL     1       0.665   9.872  20.795  0.00  0.00    +0.000 A 
ATOM      7  C   UNL     1       0.229   9.103  21.871  0.00  0.00    +0.000 A 
ATOM      8  C   UNL     1       0.489   7.761  21.887  0.00  0.00    +0.000 A 
ATOM      9  C   UNL     1       1.191   7.201  20.825  0.00  0.00    +0.000 A 
ATOM     10  C   UNL     1       1.601   7.903  19.664  0.00  0.00    +0.000 A 
ENDROOT
BRANCH   1  16
ATOM     11  C   UNL     1       4.854   5.739  19.425  0.00  0.00    +0.000 C 
ATOM     12  C   UNL     1       3.925   5.388  18.259  0.00  0.00    +0.000 C 
ATOM     13  C   UNL     1       3.705   3.868  17.946  0.00  0.00    +0.000 C 
ATOM     14  C   UNL     1       2.307   3.849  17.327  0.00  0.00    +0.000 C 
ATOM     15  C   UNL     1       1.568   4.950  18.040  0.00  0.00    +0.000 C 
ATOM     16  N   UNL     1       2.567   5.928  18.466  0.00  0.00    +0.000 N 
BRANCH  13  17
ATOM     17  C   UNL     1       3.918   2.817  19.071  0.00  0.00    +0.000 C 
ATOM     18  C   UNL     1       3.125   3.041  20.364  0.00  0.00    +0.000 C 
ATOM     19  C   UNL     1       3.587   1.400  18.567  0.00  0.00    +0.000 C 
BRANCH  17  20
ATOM     20  O   UNL     1       5.323   2.768  19.357  0.00  0.00    +0.000 OA
ATOM     21  H   UNL     1       5.580   1.849  19.536  0.00  0.00    +0.000 HD
ENDBRANCH  17  20
ENDBRANCH  13  17
ENDBRANCH   1  16
BRANCH   4  22
ATOM     22  C   UNL     1       1.581  11.515  18.559  0.00  0.00    +0.000 C 
ATOM     23  N   UNL     1       1.438  12.674  18.560  0.00  0.00    +0.000 NA
ENDBRANCH   4  22
TORSDOF 4
ENDMDL
MODEL 5
REMARK VINA RESULT:      -6.3      4.061      6.129
REMARK  Name = 
REMARK  7 active torsions:
REMARK  status: ('A' for Active; 'I' for Inactive)
REMARK    1  A    between atoms: C_1  and  C_2
REMARK    2  A    between atoms: C_3  and  C_4
REMARK    3  A    between atoms: C_4  and  C_5
REMARK    4  A    between atoms: C_4  and  C_6
REMARK    5  A    between atoms: C_4  and  O_7
REMARK    6  A    between atoms: N_10  and  C_11
REMARK    7  A    between atoms: C_14  and  C_15
REMARK                            x       y       z     vdW  Elec       q    Type
REMARK                         _______ _______ _______ _____ _____    ______ ____
ROOT
ATOM      1  C   UNL     1       1.349   8.418  20.179  0.00  0.00    +0.000 A 
ATOM      2  C   UNL     1       1.539   8.517  21.575  0.00  0.00    +0.000 A 
ATOM      3  C   UNL     1       0.828   9.420  22.369  0.00  0.00    +0.000 A 
ATOM      4  C   UNL     1      -0.065  10.301  21.786  0.00  0.00    +0.000 A 
ATOM      5  C   UNL     1      -0.284  10.296  20.387  0.00  0.00    +0.000 A 
ATOM      6  C   UNL     1      -1.184  11.204  19.760  0.00  0.00    +0.000 A 
ATOM      7  C   UNL     1      -1.404  11.210  18.385  0.00  0.00    +0.000 A 
ATOM      8  C   UNL     1      -0.768  10.290  17.599  0.00  0.00    +0.000 A 
ATOM      9  C   UNL     1       0.078   9.364  18.200  0.00  0.00    +0.000 A 
ATOM     10  C   UNL     1       0.407   9.342  19.579  0.00  0.00    +0.000 A 
ENDROOT
BRANCH   1  16
ATOM     11  C   UNL     1       1.677   5.333  20.701  0.00  0.00    +0.000 C 
ATOM     12  C   UNL     1       2.696   6.271  20.048  0.00  0.00    +0.000 C 
ATOM     13  C   UNL     1       3.583   5.681  18.899  0.00  0.00    +0.000 C 
ATOM     14  C   UNL     1       3.893   6.912  18.045  0.00  0.00    +0.000 C 
ATOM     15  C   UNL     1       2.661   7.767  18.163  0.00  0.00    +0.000 C 
ATOM     16  N   UNL     1       2.041   7.450  19.449  0.00  0.00    +0.000 N 
BRANCH  13  17
ATOM     17  C   UNL     1       3.072   4.457  18.089  0.00  0.00    +0.000 C 
ATOM     18  C   UNL     1       1.608   4.510  17.635  0.00  0.00    +0.000 C 
ATOM     19  C   UNL     1       3.936   4.229  16.834  0.00  0.00    +0.000 C 
BRANCH  17  20
ATOM     20  O   UNL     1       3.298   3.286  18.886  0.00  0.00    +0.000 OA
ATOM     21  H   UNL     1       3.329   3.539  19.823  0.00  0.00    +0.000 HD
ENDBRANCH  17  20
ENDBRANCH  13  17
ENDBRANCH   1  16
BRANCH   4  22
ATOM     22  C   UNL     1      -0.758  11.206  22.651  0.00  0.00    +0.000 C 
ATOM     23  N   UNL     1      -1.301  11.947  23.372  0.00  0.00    +0.000 NA
ENDBRANCH   4  22
TORSDOF 4
ENDMDL
MODEL 6
REMARK VINA RESULT:      -6.1      3.567      6.086
REMARK  Name = 
REMARK  7 active torsions:
REMARK  status: ('A' for Active; 'I' for Inactive)
REMARK    1  A    between atoms: C_1  and  C_2
REMARK    2  A    between atoms: C_3  and  C_4
REMARK    3  A    between atoms: C_4  and  C_5
REMARK    4  A    between atoms: C_4  and  C_6
REMARK    5  A    between atoms: C_4  and  O_7
REMARK    6  A    between atoms: N_10  and  C_11
REMARK    7  A    between atoms: C_14  and  C_15
REMARK                            x       y       z     vdW  Elec       q    Type
REMARK                         _______ _______ _______ _____ _____    ______ ____
ROOT
ATOM      1  C   UNL     1       2.009   8.148  19.047  0.00  0.00    +0.000 A 
ATOM      2  C   UNL     1       2.249   8.947  17.907  0.00  0.00    +0.000 A 
ATOM      3  C   UNL     1       1.861  10.286  17.830  0.00  0.00    +0.000 A 
ATOM      4  C   UNL     1       1.167  10.867  18.876  0.00  0.00    +0.000 A 
ATOM      5  C   UNL     1       0.850  10.125  20.040  0.00  0.00    +0.000 A 
ATOM      6  C   UNL     1       0.121  10.695  21.123  0.00  0.00    +0.000 A 
ATOM      7  C   UNL     1      -0.200   9.973  22.270  0.00  0.00    +0.000 A 
ATOM      8  C   UNL     1       0.228   8.679  22.392  0.00  0.00    +0.000 A 
ATOM      9  C   UNL     1       0.982   8.123  21.365  0.00  0.00    +0.000 A 
ATOM     10  C   UNL     1       1.285   8.768  20.140  0.00  0.00    +0.000 A 
ENDROOT
BRANCH   1  16
ATOM     11  C   UNL     1       4.197   6.720  17.296  0.00  0.00    +0.000 C 
ATOM     12  C   UNL     1       2.946   6.083  17.908  0.00  0.00    +0.000 C 
ATOM     13  C   UNL     1       3.061   4.600  18.399  0.00  0.00    +0.000 C 
ATOM     14  C   UNL     1       2.022   4.533  19.520  0.00  0.00    +0.000 C 
ATOM     15  C   UNL     1       2.048   5.907  20.135  0.00  0.00    +0.000 C 
ATOM     16  N   UNL     1       2.478   6.834  19.089  0.00  0.00    +0.000 N 
BRANCH  13  17
ATOM     17  C   UNL     1       4.453   4.027  18.787  0.00  0.00    +0.000 C 
ATOM     18  C   UNL     1       5.445   5.021  19.403  0.00  0.00    +0.000 C 
ATOM     19  C   UNL     1       4.309   2.851  19.770  0.00  0.00    +0.000 C 
BRANCH  17  20
ATOM     20  O   UNL     1       5.019   3.432  17.610  0.00  0.00    +0.000 OA
ATOM     21  H   UNL     1       4.555   2.602  17.418  0.00  0.00    +0.000 HD
ENDBRANCH  17  20
ENDBRANCH  13  17
ENDBRANCH   1  16
BRANCH   4  22
ATOM     22  C   UNL     1       0.792  12.240  18.736  0.00  0.00    +0.000 C 
ATOM     23  N   UNL     1       0.469  13.355  18.603  0.00  0.00    +0.000 NA
ENDBRANCH   4  22
TORSDOF 4
ENDMDL
MODEL 7
REMARK VINA RESULT:      -6.1      8.174     11.922
REMARK  Name = 
REMARK  7 active torsions:
REMARK  status: ('A' for Active; 'I' for Inactive)
REMARK    1  A    between atoms: C_1  and  C_2
REMARK    2  A    between atoms: C_3  and  C_4
REMARK    3  A    between atoms: C_4  and  C_5
REMARK    4  A    between atoms: C_4  and  C_6
REMARK    5  A    between atoms: C_4  and  O_7
REMARK    6  A    between atoms: N_10  and  C_11
REMARK    7  A    between atoms: C_14  and  C_15
REMARK                            x       y       z     vdW  Elec       q    Type
REMARK                         _______ _______ _______ _____ _____    ______ ____
ROOT
ATOM      1  C   UNL     1      -1.221  12.180  20.410  0.00  0.00    +0.000 A 
ATOM      2  C   UNL     1       0.134  11.934  20.724  0.00  0.00    +0.000 A 
ATOM      3  C   UNL     1       0.951  11.113  19.943  0.00  0.00    +0.000 A 
ATOM      4  C   UNL     1       0.427  10.460  18.842  0.00  0.00    +0.000 A 
ATOM      5  C   UNL     1      -0.933  10.620  18.481  0.00  0.00    +0.000 A 
ATOM      6  C   UNL     1      -1.502   9.945  17.363  0.00  0.00    +0.000 A 
ATOM      7  C   UNL     1      -2.839  10.091  17.003  0.00  0.00    +0.000 A 
ATOM      8  C   UNL     1      -3.639  10.942  17.715  0.00  0.00    +0.000 A 
ATOM      9  C   UNL     1      -3.088  11.646  18.780  0.00  0.00    +0.000 A 
ATOM     10  C   UNL     1      -1.760  11.495  19.252  0.00  0.00    +0.000 A 
ENDROOT
BRANCH   1  16
ATOM     11  C   UNL     1      -2.430  11.810  23.291  0.00  0.00    +0.000 C 
ATOM     12  C   UNL     1      -3.015  12.642  22.146  0.00  0.00    +0.000 C 
ATOM     13  C   UNL     1      -3.761  13.966  22.527  0.00  0.00    +0.000 C 
ATOM     14  C   UNL     1      -3.559  14.837  21.286  0.00  0.00    +0.000 C 
ATOM     15  C   UNL     1      -2.202  14.442  20.770  0.00  0.00    +0.000 C 
ATOM     16  N   UNL     1      -1.969  13.062  21.193  0.00  0.00    +0.000 N 
BRANCH  13  17
ATOM     17  C   UNL     1      -3.422  14.677  23.867  0.00  0.00    +0.000 C 
ATOM     18  C   UNL     1      -1.932  14.817  24.200  0.00  0.00    +0.000 C 
ATOM     19  C   UNL     1      -4.037  16.089  23.909  0.00  0.00    +0.000 C 
BRANCH  17  20
ATOM     20  O   UNL     1      -4.098  13.969  24.915  0.00  0.00    +0.000 OA
ATOM     21  H   UNL     1      -3.761  14.273  25.773  0.00  0.00    +0.000 HD
ENDBRANCH  17  20
ENDBRANCH  13  17
ENDBRANCH   1  16
BRANCH   4  22
ATOM     22  C   UNL     1       1.311   9.629  18.086  0.00  0.00    +0.000 C 
ATOM     23  N   UNL     1       2.013   8.946  17.450  0.00  0.00    +0.000 NA
ENDBRANCH   4  22
TORSDOF 4
ENDMDL
MODEL 8
REMARK VINA RESULT:      -6.0      2.720      6.655
REMARK  Name = 
REMARK  7 active torsions:
REMARK  status: ('A' for Active; 'I' for Inactive)
REMARK    1  A    between atoms: C_1  and  C_2
REMARK    2  A    between atoms: C_3  and  C_4
REMARK    3  A    between atoms: C_4  and  C_5
REMARK    4  A    between atoms: C_4  and  C_6
REMARK    5  A    between atoms: C_4  and  O_7
REMARK    6  A    between atoms: N_10  and  C_11
REMARK    7  A    between atoms: C_14  and  C_15
REMARK                            x       y       z     vdW  Elec       q    Type
REMARK                         _______ _______ _______ _____ _____    ______ ____
ROOT
ATOM      1  C   UNL     1       4.489   4.235  17.278  0.00  0.00    +0.000 A 
ATOM      2  C   UNL     1       4.306   3.805  15.945  0.00  0.00    +0.000 A 
ATOM      3  C   UNL     1       5.213   4.102  14.926  0.00  0.00    +0.000 A 
ATOM      4  C   UNL     1       6.319   4.890  15.192  0.00  0.00    +0.000 A 
ATOM      5  C   UNL     1       6.556   5.396  16.493  0.00  0.00    +0.000 A 
ATOM      6  C   UNL     1       7.676   6.225  16.789  0.00  0.00    +0.000 A 
ATOM      7  C   UNL     1       7.916   6.731  18.064  0.00  0.00    +0.000 A 
ATOM      8  C   UNL     1       7.075   6.397  19.089  0.00  0.00    +0.000 A 
ATOM      9  C   UNL     1       6.003   5.550  18.829  0.00  0.00    +0.000 A 
ATOM     10  C   UNL     1       5.653   5.056  17.547  0.00  0.00    +0.000 A 
ENDROOT
BRANCH   1  16
ATOM     11  C   UNL     1       4.915   2.479  19.853  0.00  0.00    +0.000 C 
ATOM     12  C   UNL     1       3.647   2.572  19.001  0.00  0.00    +0.000 C 
ATOM     13  C   UNL     1       2.271   2.468  19.744  0.00  0.00    +0.000 C 
ATOM     14  C   UNL     1       1.338   3.278  18.842  0.00  0.00    +0.000 C 
ATOM     15  C   UNL     1       2.213   4.367  18.282  0.00  0.00    +0.000 C 
ATOM     16  N   UNL     1       3.580   3.850  18.266  0.00  0.00    +0.000 N 
BRANCH  13  17
ATOM     17  C   UNL     1       2.184   2.842  21.250  0.00  0.00    +0.000 C 
ATOM     18  C   UNL     1       2.312   4.333  21.585  0.00  0.00    +0.000 C 
ATOM     19  C   UNL     1       0.863   2.343  21.864  0.00  0.00    +0.000 C 
BRANCH  17  20
ATOM     20  O   UNL     1       3.195   2.093  21.940  0.00  0.00    +0.000 OA
ATOM     21  H   UNL     1       2.797   1.293  22.317  0.00  0.00    +0.000 HD
ENDBRANCH  17  20
ENDBRANCH  13  17
ENDBRANCH   1  16
BRANCH   4  22
ATOM     22  C   UNL     1       7.209   5.165  14.107  0.00  0.00    +0.000 C 
ATOM     23  N   UNL     1       7.924   5.414  13.218  0.00  0.00    +0.000 NA
ENDBRANCH   4  22
TORSDOF 4
ENDMDL
MODEL 9
REMARK VINA RESULT:      -5.9      3.655      6.604
REMARK  Name = 
REMARK  7 active torsions:
REMARK  status: ('A' for Active; 'I' for Inactive)
REMARK    1  A    between atoms: C_1  and  C_2
REMARK    2  A    between atoms: C_3  and  C_4
REMARK    3  A    between atoms: C_4  and  C_5
REMARK    4  A    between atoms: C_4  and  C_6
REMARK    5  A    between atoms: C_4  and  O_7
REMARK    6  A    between atoms: N_10  and  C_11
REMARK    7  A    between atoms: C_14  and  C_15
REMARK                            x       y       z     vdW  Elec       q    Type
REMARK                         _______ _______ _______ _____ _____    ______ ____
ROOT
ATOM      1  C   UNL     1       2.359   6.995  19.338  0.00  0.00    +0.000 A 
ATOM      2  C   UNL     1       1.958   6.097  20.351  0.00  0.00    +0.000 A 
ATOM      3  C   UNL     1       2.552   4.845  20.526  0.00  0.00    +0.000 A 
ATOM      4  C   UNL     1       3.538   4.419  19.655  0.00  0.00    +0.000 A 
ATOM      5  C   UNL     1       3.971   5.242  18.587  0.00  0.00    +0.000 A 
ATOM      6  C   UNL     1       4.971   4.819  17.665  0.00  0.00    +0.000 A 
ATOM      7  C   UNL     1       5.400   5.619  16.609  0.00  0.00    +0.000 A 
ATOM      8  C   UNL     1       4.878   6.874  16.461  0.00  0.00    +0.000 A 
ATOM      9  C   UNL     1       3.935   7.321  17.379  0.00  0.00    +0.000 A 
ATOM     10  C   UNL     1       3.397   6.541  18.433  0.00  0.00    +0.000 A 
ENDROOT
BRANCH   1  16
ATOM     11  C   UNL     1       1.547   9.007  21.615  0.00  0.00    +0.000 C 
ATOM     12  C   UNL     1       0.850   8.813  20.267  0.00  0.00    +0.000 C 
ATOM     13  C   UNL     1       0.230  10.081  19.587  0.00  0.00    +0.000 C 
ATOM     14  C   UNL     1       0.299   9.736  18.099  0.00  0.00    +0.000 C 
ATOM     15  C   UNL     1       1.550   8.910  17.965  0.00  0.00    +0.000 C 
ATOM     16  N   UNL     1       1.772   8.259  19.255  0.00  0.00    +0.000 N 
BRANCH  13  17
ATOM     17  C   UNL     1       0.787  11.489  19.941  0.00  0.00    +0.000 C 
ATOM     18  C   UNL     1       1.916  12.013  19.046  0.00  0.00    +0.000 C 
ATOM     19  C   UNL     1      -0.337  12.542  19.930  0.00  0.00    +0.000 C 
BRANCH  17  20
ATOM     20  O   UNL     1       1.218  11.451  21.309  0.00  0.00    +0.000 OA
ATOM     21  H   UNL     1       0.660  12.045  21.836  0.00  0.00    +0.000 HD
ENDBRANCH  17  20
ENDBRANCH  13  17
ENDBRANCH   1  16
BRANCH   4  22
ATOM     22  C   UNL     1       4.104   3.125  19.882  0.00  0.00    +0.000 C 
ATOM     23  N   UNL     1       4.587   2.075  20.050  0.00  0.00    +0.000 NA
ENDBRANCH   4  22
TORSDOF 4
ENDMDL
