MODEL 1
REMARK VINA RESULT:      -8.3      0.000      0.000
REMARK  Name = 
REMARK  5 active torsions:
REMARK  status: ('A' for Active; 'I' for Inactive)
REMARK    1  A    between atoms: C_5  and  C_6
REMARK    2  A    between atoms: C_6  and  N_7
REMARK    3  A    between atoms: C_11  and  C_12
REMARK    4  A    between atoms: N_14  and  C_15
REMARK    5  A    between atoms: C_18  and  C_19
REMARK                            x       y       z     vdW  Elec       q    Type
REMARK                         _______ _______ _______ _____ _____    ______ ____
ROOT
ATOM      1  N   UNL     1       4.566   3.993  17.356  0.00  0.00    +0.000 NA
ATOM      2  C   UNL     1       4.975   4.147  15.951  0.00  0.00    +0.000 C 
ATOM      3  C   UNL     1       5.672   5.482  15.692  0.00  0.00    +0.000 C 
ATOM      4  C   UNL     1       4.787   6.661  16.081  0.00  0.00    +0.000 C 
ATOM      5  C   UNL     1       4.367   6.543  17.544  0.00  0.00    +0.000 C 
ATOM      6  C   UNL     1       3.764   5.145  17.819  0.00  0.00    +0.000 C 
ENDROOT
BRANCH   5   7
ATOM      7  C   UNL     1       3.316   7.587  17.932  0.00  0.00    +0.000 C 
ATOM      8  O   UNL     1       2.984   8.455  17.123  0.00  0.00    +0.000 OA
ATOM      9  N   UNL     1       2.798   7.472  19.214  0.00  0.00    +0.000 N 
ATOM     10  H   UNL     1       3.261   6.850  19.864  0.00  0.00    +0.000 HD
BRANCH   9  11
ATOM     11  C   UNL     1       1.787   8.310  19.748  0.00  0.00    +0.000 A 
ATOM     12  C   UNL     1       1.227   9.362  19.022  0.00  0.00    +0.000 A 
ATOM     13  C   UNL     1       0.285  10.218  19.597  0.00  0.00    +0.000 A 
ATOM     14  C   UNL     1      -0.135  10.040  20.917  0.00  0.00    +0.000 A 
ATOM     15  C   UNL     1       0.388   8.951  21.631  0.00  0.00    +0.000 A 
ATOM     16  C   UNL     1       1.332   8.082  21.048  0.00  0.00    +0.000 A 
BRANCH  14  17
ATOM     17  C   UNL     1      -1.070  10.991  21.510  0.00  0.00    +0.000 A 
ATOM     18  C   UNL     1      -1.804  12.056  21.016  0.00  0.00    +0.000 A 
ATOM     19  C   UNL     1      -2.511  12.610  22.109  0.00  0.00    +0.000 A 
ATOM     20  C   UNL     1      -2.173  11.851  23.202  0.00  0.00    +0.000 A 
ATOM     21  O   UNL     1      -1.303  10.869  22.851  0.00  0.00    +0.000 OA
ENDBRANCH  14  17
ENDBRANCH   9  11
ENDBRANCH   5   7
BRANCH   1  22
ATOM     22  C   UNL     1       3.751   2.763  17.535  0.00  0.00    +0.000 C 
BRANCH  22  27
ATOM     23  N   UNL     1       0.990   2.514  22.388  0.00  0.00    +0.000 N 
ATOM     24  C   UNL     1       1.671   2.570  21.190  0.00  0.00    +0.000 A 
ATOM     25  N   UNL     1       0.948   2.617  20.068  0.00  0.00    +0.000 NA
ATOM     26  C   UNL     1       1.639   2.688  18.912  0.00  0.00    +0.000 A 
ATOM     27  C   UNL     1       3.013   2.695  18.837  0.00  0.00    +0.000 A 
ATOM     28  C   UNL     1       3.651   2.595  20.055  0.00  0.00    +0.000 A 
ATOM     29  N   UNL     1       3.006   2.529  21.238  0.00  0.00    +0.000 NA
ATOM     30  H   UNL     1       0.074   2.116  22.236  0.00  0.00    +0.000 HD
ATOM     31  H   UNL     1       1.576   2.087  23.091  0.00  0.00    +0.000 HD
ENDBRANCH  22  27
ENDBRANCH   1  22
TORSDOF 5
ENDMDL
MODEL 2
REMARK VINA RESULT:      -8.3      2.070      4.523
REMARK  Name = 
REMARK  5 active torsions:
REMARK  status: ('A' for Active; 'I' for Inactive)
REMARK    1  A    between atoms: C_5  and  C_6
REMARK    2  A    between atoms: C_6  and  N_7
REMARK    3  A    between atoms: C_11  and  C_12
REMARK    4  A    between atoms: N_14  and  C_15
REMARK    5  A    between atoms: C_18  and  C_19
REMARK                            x       y       z     vdW  Elec       q    Type
REMARK                         _______ _______ _______ _____ _____    ______ ____
ROOT
ATOM      1  N   UNL     1       4.230   4.248  18.999  0.00  0.00    +0.000 NA
ATOM      2  C   UNL     1       3.876   3.414  20.158  0.00  0.00    +0.000 C 
ATOM      3  C   UNL     1       2.375   3.421  20.443  0.00  0.00    +0.000 C 
ATOM      4  C   UNL     1       1.854   4.835  20.675  0.00  0.00    +0.000 C 
ATOM      5  C   UNL     1       2.184   5.720  19.474  0.00  0.00    +0.000 C 
ATOM      6  C   UNL     1       3.688   5.617  19.128  0.00  0.00    +0.000 C 
ENDROOT
BRANCH   5   7
ATOM      7  C   UNL     1       1.867   7.195  19.737  0.00  0.00    +0.000 C 
ATOM      8  O   UNL     1       2.290   8.060  18.968  0.00  0.00    +0.000 OA
ATOM      9  N   UNL     1       1.100   7.454  20.863  0.00  0.00    +0.000 N 
ATOM     10  H   UNL     1       0.958   6.707  21.528  0.00  0.00    +0.000 HD
BRANCH   9  11
ATOM     11  C   UNL     1       0.662   8.745  21.255  0.00  0.00    +0.000 A 
ATOM     12  C   UNL     1       0.089   8.993  22.503  0.00  0.00    +0.000 A 
ATOM     13  C   UNL     1      -0.401  10.258  22.836  0.00  0.00    +0.000 A 
ATOM     14  C   UNL     1      -0.323  11.319  21.931  0.00  0.00    +0.000 A 
ATOM     15  C   UNL     1       0.300  11.084  20.696  0.00  0.00    +0.000 A 
ATOM     16  C   UNL     1       0.802   9.809  20.363  0.00  0.00    +0.000 A 
BRANCH  14  17
ATOM     17  C   UNL     1      -0.904  12.611  22.283  0.00  0.00    +0.000 A 
ATOM     18  C   UNL     1      -1.702  13.522  21.613  0.00  0.00    +0.000 A 
ATOM     19  C   UNL     1      -1.910  14.611  22.492  0.00  0.00    +0.000 A 
ATOM     20  C   UNL     1      -1.233  14.300  23.646  0.00  0.00    +0.000 A 
ATOM     21  O   UNL     1      -0.622  13.092  23.531  0.00  0.00    +0.000 OA
ENDBRANCH  14  17
ENDBRANCH   9  11
ENDBRANCH   5   7
BRANCH   1  22
ATOM     22  C   UNL     1       5.705   4.348  18.852  0.00  0.00    +0.000 C 
BRANCH  22  27
ATOM     23  N   UNL     1       7.447   5.190  13.609  0.00  0.00    +0.000 N 
ATOM     24  C   UNL     1       7.013   4.986  14.902  0.00  0.00    +0.000 A 
ATOM     25  N   UNL     1       6.131   4.005  15.111  0.00  0.00    +0.000 NA
ATOM     26  C   UNL     1       5.735   3.816  16.387  0.00  0.00    +0.000 A 
ATOM     27  C   UNL     1       6.172   4.577  17.447  0.00  0.00    +0.000 A 
ATOM     28  C   UNL     1       7.044   5.588  17.103  0.00  0.00    +0.000 A 
ATOM     29  N   UNL     1       7.475   5.813  15.845  0.00  0.00    +0.000 NA
ATOM     30  H   UNL     1       6.751   4.849  12.962  0.00  0.00    +0.000 HD
ATOM     31  H   UNL     1       7.757   6.145  13.503  0.00  0.00    +0.000 HD
ENDBRANCH  22  27
ENDBRANCH   1  22
TORSDOF 5
ENDMDL
MODEL 3
REMARK VINA RESULT:      -8.3      3.026      5.147
REMARK  Name = 
REMARK  5 active torsions:
REMARK  status: ('A' for Active; 'I' for Inactive)
REMARK    1  A    between atoms: C_5  and  C_6
REMARK    2  A    between atoms: C_6  and  N_7
REMARK    3  A    between atoms: C_11  and  C_12
REMARK    4  A    between atoms: N_14  and  C_15
REMARK    5  A    between atoms: C_18  and  C_19
REMARK                            x       y       z     vdW  Elec       q    Type
REMARK                         _______ _______ _______ _____ _____    ______ ____
ROOT
ATOM      1  N   UNL     1       4.021   4.468  18.948  0.00  0.00    +0.000 NA
ATOM      2  C   UNL     1       3.535   3.667  20.083  0.00  0.00    +0.000 C 
ATOM      3  C   UNL     1       2.025   3.794  20.280  0.00  0.00    +0.000 C 
ATOM      4  C   UNL     1       1.606   5.245  20.486  0.00  0.00    +0.000 C 
ATOM      5  C   UNL     1       2.075   6.098  19.309  0.00  0.00    +0.000 C 
ATOM      6  C   UNL     1       3.583   5.876  19.050  0.00  0.00    +0.000 C 
ENDROOT
BRANCH   5   7
ATOM      7  C   UNL     1       1.861   7.595  19.556  0.00  0.00    +0.000 C 
ATOM      8  O   UNL     1       1.943   8.046  20.700  0.00  0.00    +0.000 OA
ATOM      9  N   UNL     1       1.581   8.356  18.431  0.00  0.00    +0.000 N 
ATOM     10  H   UNL     1       1.353   7.875  17.572  0.00  0.00    +0.000 HD
BRANCH   9  11
ATOM     11  C   UNL     1       1.396   9.762  18.441  0.00  0.00    +0.000 A 
ATOM     12  C   UNL     1       2.409  10.652  18.081  0.00  0.00    +0.000 A 
ATOM     13  C   UNL     1       2.223  12.034  18.171  0.00  0.00    +0.000 A 
ATOM     14  C   UNL     1       1.012  12.569  18.614  0.00  0.00    +0.000 A 
ATOM     15  C   UNL     1      -0.024  11.676  18.926  0.00  0.00    +0.000 A 
ATOM     16  C   UNL     1       0.159  10.282  18.828  0.00  0.00    +0.000 A 
BRANCH  14  17
ATOM     17  C   UNL     1       0.873  14.014  18.760  0.00  0.00    +0.000 A 
ATOM     18  C   UNL     1      -0.206  14.866  18.927  0.00  0.00    +0.000 A 
ATOM     19  C   UNL     1       0.313  16.181  18.977  0.00  0.00    +0.000 A 
ATOM     20  C   UNL     1       1.674  16.056  18.844  0.00  0.00    +0.000 A 
ATOM     21  O   UNL     1       2.024  14.751  18.713  0.00  0.00    +0.000 OA
ENDBRANCH  14  17
ENDBRANCH   9  11
ENDBRANCH   5   7
BRANCH   1  22
ATOM     22  C   UNL     1       5.505   4.450  18.888  0.00  0.00    +0.000 C 
BRANCH  22  27
ATOM     23  N   UNL     1       7.619   5.338  13.791  0.00  0.00    +0.000 N 
ATOM     24  C   UNL     1       7.102   5.116  15.050  0.00  0.00    +0.000 A 
ATOM     25  N   UNL     1       7.519   5.909  16.040  0.00  0.00    +0.000 NA
ATOM     26  C   UNL     1       6.985   5.680  17.258  0.00  0.00    +0.000 A 
ATOM     27  C   UNL     1       6.071   4.685  17.521  0.00  0.00    +0.000 A 
ATOM     28  C   UNL     1       5.752   3.902  16.433  0.00  0.00    +0.000 A 
ATOM     29  N   UNL     1       6.252   4.094  15.195  0.00  0.00    +0.000 NA
ATOM     30  H   UNL     1       8.519   5.789  13.872  0.00  0.00    +0.000 HD
ATOM     31  H   UNL     1       7.568   4.487  13.249  0.00  0.00    +0.000 HD
ENDBRANCH  22  27
ENDBRANCH   1  22
TORSDOF 5
ENDMDL
MODEL 4
REMARK VINA RESULT:      -8.2      2.081      4.658
REMARK  Name = 
REMARK  5 active torsions:
REMARK  status: ('A' for Active; 'I' for Inactive)
REMARK    1  A    between atoms: C_5  and  C_6
REMARK    2  A    between atoms: C_6  and  N_7
REMARK    3  A    between atoms: C_11  and  C_12
REMARK    4  A    between atoms: N_14  and  C_15
REMARK    5  A    between atoms: C_18  and  C_19
REMARK                            x       y       z     vdW  Elec       q    Type
REMARK                         _______ _______ _______ _____ _____    ______ ____
ROOT
ATOM      1  N   UNL     1       4.312   4.600  18.676  0.00  0.00    +0.000 NA
ATOM      2  C   UNL     1       4.104   3.656  19.785  0.00  0.00    +0.000 C 
ATOM      3  C   UNL     1       2.634   3.546  20.187  0.00  0.00    +0.000 C 
ATOM      4  C   UNL     1       2.057   4.901  20.578  0.00  0.00    +0.000 C 
ATOM      5  C   UNL     1       2.234   5.898  19.434  0.00  0.00    +0.000 C 
ATOM      6  C   UNL     1       3.707   5.918  18.962  0.00  0.00    +0.000 C 
ENDROOT
BRANCH   5   7
ATOM      7  C   UNL     1       1.858   7.325  19.844  0.00  0.00    +0.000 C 
ATOM      8  O   UNL     1       2.352   8.285  19.250  0.00  0.00    +0.000 OA
ATOM      9  N   UNL     1       0.956   7.431  20.893  0.00  0.00    +0.000 N 
ATOM     10  H   UNL     1       0.751   6.602  21.434  0.00  0.00    +0.000 HD
BRANCH   9  11
ATOM     11  C   UNL     1       0.448   8.657  21.391  0.00  0.00    +0.000 A 
ATOM     12  C   UNL     1       0.118   8.838  22.735  0.00  0.00    +0.000 A 
ATOM     13  C   UNL     1      -0.450  10.032  23.187  0.00  0.00    +0.000 A 
ATOM     14  C   UNL     1      -0.695  11.088  22.307  0.00  0.00    +0.000 A 
ATOM     15  C   UNL     1      -0.315  10.926  20.966  0.00  0.00    +0.000 A 
ATOM     16  C   UNL     1       0.266   9.725  20.512  0.00  0.00    +0.000 A 
BRANCH  14  17
ATOM     17  C   UNL     1      -1.351  12.297  22.797  0.00  0.00    +0.000 A 
ATOM     18  C   UNL     1      -0.985  13.630  22.865  0.00  0.00    +0.000 A 
ATOM     19  C   UNL     1      -2.057  14.319  23.480  0.00  0.00    +0.000 A 
ATOM     20  C   UNL     1      -3.013  13.370  23.745  0.00  0.00    +0.000 A 
ATOM     21  O   UNL     1      -2.597  12.144  23.336  0.00  0.00    +0.000 OA
ENDBRANCH  14  17
ENDBRANCH   9  11
ENDBRANCH   5   7
BRANCH   1  22
ATOM     22  C   UNL     1       5.762   4.805  18.422  0.00  0.00    +0.000 C 
BRANCH  22  27
ATOM     23  N   UNL     1       7.196   4.745  13.021  0.00  0.00    +0.000 N 
ATOM     24  C   UNL     1       6.846   4.756  14.355  0.00  0.00    +0.000 A 
ATOM     25  N   UNL     1       7.528   5.567  15.167  0.00  0.00    +0.000 NA
ATOM     26  C   UNL     1       7.155   5.570  16.464  0.00  0.00    +0.000 A 
ATOM     27  C   UNL     1       6.145   4.786  16.974  0.00  0.00    +0.000 A 
ATOM     28  C   UNL     1       5.545   3.957  16.051  0.00  0.00    +0.000 A 
ATOM     29  N   UNL     1       5.877   3.922  14.744  0.00  0.00    +0.000 NA
ATOM     30  H   UNL     1       8.158   5.037  12.923  0.00  0.00    +0.000 HD
ATOM     31  H   UNL     1       6.930   3.863  12.609  0.00  0.00    +0.000 HD
ENDBRANCH  22  27
ENDBRANCH   1  22
TORSDOF 5
ENDMDL
MODEL 5
REMARK VINA RESULT:      -8.0      4.604      9.891
REMARK  Name = 
REMARK  5 active torsions:
REMARK  status: ('A' for Active; 'I' for Inactive)
REMARK    1  A    between atoms: C_5  and  C_6
REMARK    2  A    between atoms: C_6  and  N_7
REMARK    3  A    between atoms: C_11  and  C_12
REMARK    4  A    between atoms: N_14  and  C_15
REMARK    5  A    between atoms: C_18  and  C_19
REMARK                            x       y       z     vdW  Elec       q    Type
REMARK                         _______ _______ _______ _____ _____    ______ ____
ROOT
ATOM      1  N   UNL     1      -1.624  13.778  21.158  0.00  0.00    +0.000 NA
ATOM      2  C   UNL     1      -0.590  14.767  20.815  0.00  0.00    +0.000 C 
ATOM      3  C   UNL     1      -0.298  14.806  19.315  0.00  0.00    +0.000 C 
ATOM      4  C   UNL     1       0.132  13.440  18.792  0.00  0.00    +0.000 C 
ATOM      5  C   UNL     1      -0.935  12.395  19.111  0.00  0.00    +0.000 C 
ATOM      6  C   UNL     1      -1.301  12.442  20.613  0.00  0.00    +0.000 C 
ENDROOT
BRANCH   5   7
ATOM      7  C   UNL     1      -0.467  10.972  18.791  0.00  0.00    +0.000 C 
ATOM      8  O   UNL     1      -1.169  10.236  18.096  0.00  0.00    +0.000 OA
ATOM      9  N   UNL     1       0.758  10.607  19.330  0.00  0.00    +0.000 N 
ATOM     10  H   UNL     1       1.170  11.205  20.032  0.00  0.00    +0.000 HD
BRANCH   9  11
ATOM     11  C   UNL     1       1.386   9.354  19.115  0.00  0.00    +0.000 A 
ATOM     12  C   UNL     1       1.473   8.381  20.111  0.00  0.00    +0.000 A 
ATOM     13  C   UNL     1       2.161   7.184  19.897  0.00  0.00    +0.000 A 
ATOM     14  C   UNL     1       2.776   6.920  18.671  0.00  0.00    +0.000 A 
ATOM     15  C   UNL     1       2.645   7.875  17.652  0.00  0.00    +0.000 A 
ATOM     16  C   UNL     1       1.943   9.078  17.865  0.00  0.00    +0.000 A 
BRANCH  14  17
ATOM     17  C   UNL     1       3.544   5.690  18.500  0.00  0.00    +0.000 A 
ATOM     18  C   UNL     1       3.470   4.622  17.622  0.00  0.00    +0.000 A 
ATOM     19  C   UNL     1       4.491   3.715  17.991  0.00  0.00    +0.000 A 
ATOM     20  C   UNL     1       5.130   4.283  19.066  0.00  0.00    +0.000 A 
ATOM     21  O   UNL     1       4.567   5.477  19.382  0.00  0.00    +0.000 OA
ENDBRANCH  14  17
ENDBRANCH   9  11
ENDBRANCH   5   7
BRANCH   1  22
ATOM     22  C   UNL     1      -1.764  13.652  22.632  0.00  0.00    +0.000 C 
BRANCH  22  27
ATOM     23  N   UNL     1      -7.045  13.272  24.422  0.00  0.00    +0.000 N 
ATOM     24  C   UNL     1      -5.743  13.363  23.976  0.00  0.00    +0.000 A 
ATOM     25  N   UNL     1      -5.427  14.400  23.196  0.00  0.00    +0.000 NA
ATOM     26  C   UNL     1      -4.143  14.474  22.787  0.00  0.00    +0.000 A 
ATOM     27  C   UNL     1      -3.179  13.547  23.112  0.00  0.00    +0.000 A 
ATOM     28  C   UNL     1      -3.633  12.498  23.882  0.00  0.00    +0.000 A 
ATOM     29  N   UNL     1      -4.903  12.383  24.322  0.00  0.00    +0.000 NA
ATOM     30  H   UNL     1      -7.655  13.763  23.783  0.00  0.00    +0.000 HD
ATOM     31  H   UNL     1      -7.263  12.310  24.633  0.00  0.00    +0.000 HD
ENDBRANCH  22  27
ENDBRANCH   1  22
TORSDOF 5
ENDMDL
MODEL 6
REMARK VINA RESULT:      -8.0      5.294      7.007
REMARK  Name = 
REMARK  5 active torsions:
REMARK  status: ('A' for Active; 'I' for Inactive)
REMARK    1  A    between atoms: C_5  and  C_6
REMARK    2  A    between atoms: C_6  and  N_7
REMARK    3  A    between atoms: C_11  and  C_12
REMARK    4  A    between atoms: N_14  and  C_15
REMARK    5  A    between atoms: C_18  and  C_19
REMARK                            x       y       z     vdW  Elec       q    Type
REMARK                         _______ _______ _______ _____ _____    ______ ____
ROOT
ATOM      1  N   UNL     1       4.631   4.686  17.355  0.00  0.00    +0.000 NA
ATOM      2  C   UNL     1       4.839   4.676  15.899  0.00  0.00    +0.000 C 
ATOM      3  C   UNL     1       6.303   4.458  15.521  0.00  0.00    +0.000 C 
ATOM      4  C   UNL     1       7.206   5.518  16.141  0.00  0.00    +0.000 C 
ATOM      5  C   UNL     1       7.033   5.534  17.658  0.00  0.00    +0.000 C 
ATOM      6  C   UNL     1       5.534   5.644  18.026  0.00  0.00    +0.000 C 
ENDROOT
BRANCH   5   7
ATOM      7  C   UNL     1       7.760   6.713  18.312  0.00  0.00    +0.000 C 
ATOM      8  O   UNL     1       8.418   6.536  19.339  0.00  0.00    +0.000 OA
ATOM      9  N   UNL     1       7.617   7.937  17.675  0.00  0.00    +0.000 N 
ATOM     10  H   UNL     1       6.915   8.021  16.952  0.00  0.00    +0.000 HD
BRANCH   9  11
ATOM     11  C   UNL     1       8.245   9.137  18.094  0.00  0.00    +0.000 A 
ATOM     12  C   UNL     1       9.076   9.193  19.213  0.00  0.00    +0.000 A 
ATOM     13  C   UNL     1       9.623  10.403  19.648  0.00  0.00    +0.000 A 
ATOM     14  C   UNL     1       9.362  11.595  18.968  0.00  0.00    +0.000 A 
ATOM     15  C   UNL     1       8.569  11.530  17.813  0.00  0.00    +0.000 A 
ATOM     16  C   UNL     1       8.024  10.309  17.369  0.00  0.00    +0.000 A 
BRANCH  14  17
ATOM     17  C   UNL     1       9.894  12.852  19.486  0.00  0.00    +0.000 A 
ATOM     18  C   UNL     1      10.358  13.264  20.723  0.00  0.00    +0.000 A 
ATOM     19  C   UNL     1      10.714  14.627  20.595  0.00  0.00    +0.000 A 
ATOM     20  C   UNL     1      10.452  14.965  19.290  0.00  0.00    +0.000 A 
ATOM     21  O   UNL     1       9.957  13.899  18.610  0.00  0.00    +0.000 OA
ENDBRANCH  14  17
ENDBRANCH   9  11
ENDBRANCH   5   7
BRANCH   1  22
ATOM     22  C   UNL     1       3.233   5.062  17.686  0.00  0.00    +0.000 C 
BRANCH  22  27
ATOM     23  N   UNL     1       1.140   2.444  22.159  0.00  0.00    +0.000 N 
ATOM     24  C   UNL     1       1.651   3.093  21.054  0.00  0.00    +0.000 A 
ATOM     25  N   UNL     1       2.171   4.310  21.236  0.00  0.00    +0.000 NA
ATOM     26  C   UNL     1       2.678   4.915  20.142  0.00  0.00    +0.000 A 
ATOM     27  C   UNL     1       2.670   4.359  18.883  0.00  0.00    +0.000 A 
ATOM     28  C   UNL     1       2.067   3.122  18.810  0.00  0.00    +0.000 A 
ATOM     29  N   UNL     1       1.551   2.473  19.874  0.00  0.00    +0.000 NA
ATOM     30  H   UNL     1       0.867   3.126  22.853  0.00  0.00    +0.000 HD
ATOM     31  H   UNL     1       0.447   1.771  21.865  0.00  0.00    +0.000 HD
ENDBRANCH  22  27
ENDBRANCH   1  22
TORSDOF 5
ENDMDL
MODEL 7
REMARK VINA RESULT:      -8.0      5.415      7.118
REMARK  Name = 
REMARK  5 active torsions:
REMARK  status: ('A' for Active; 'I' for Inactive)
REMARK    1  A    between atoms: C_5  and  C_6
REMARK    2  A    between atoms: C_6  and  N_7
REMARK    3  A    between atoms: C_11  and  C_12
REMARK    4  A    between atoms: N_14  and  C_15
REMARK    5  A    between atoms: C_18  and  C_19
REMARK                            x       y       z     vdW  Elec       q    Type
REMARK                         _______ _______ _______ _____ _____    ______ ____
ROOT
ATOM      1  N   UNL     1       4.772   4.663  17.218  0.00  0.00    +0.000 NA
ATOM      2  C   UNL     1       4.963   4.710  15.759  0.00  0.00    +0.000 C 
ATOM      3  C   UNL     1       6.434   4.593  15.362  0.00  0.00    +0.000 C 
ATOM      4  C   UNL     1       7.278   5.687  16.005  0.00  0.00    +0.000 C 
ATOM      5  C   UNL     1       7.121   5.646  17.524  0.00  0.00    +0.000 C 
ATOM      6  C   UNL     1       5.623   5.654  17.910  0.00  0.00    +0.000 C 
ENDROOT
BRANCH   5   7
ATOM      7  C   UNL     1       7.783   6.846  18.208  0.00  0.00    +0.000 C 
ATOM      8  O   UNL     1       8.398   6.689  19.264  0.00  0.00    +0.000 OA
ATOM      9  N   UNL     1       7.634   8.065  17.562  0.00  0.00    +0.000 N 
ATOM     10  H   UNL     1       6.963   8.128  16.807  0.00  0.00    +0.000 HD
BRANCH   9  11
ATOM     11  C   UNL     1       8.207   9.283  18.006  0.00  0.00    +0.000 A 
ATOM     12  C   UNL     1       7.981  10.496  17.355  0.00  0.00    +0.000 A 
ATOM     13  C   UNL     1       8.616  11.669  17.770  0.00  0.00    +0.000 A 
ATOM     14  C   UNL     1       9.490  11.666  18.859  0.00  0.00    +0.000 A 
ATOM     15  C   UNL     1       9.677  10.457  19.546  0.00  0.00    +0.000 A 
ATOM     16  C   UNL     1       9.030   9.275  19.133  0.00  0.00    +0.000 A 
BRANCH  14  17
ATOM     17  C   UNL     1      10.190  12.893  19.225  0.00  0.00    +0.000 A 
ATOM     18  C   UNL     1       9.780  14.143  19.659  0.00  0.00    +0.000 A 
ATOM     19  C   UNL     1      10.947  14.925  19.822  0.00  0.00    +0.000 A 
ATOM     20  C   UNL     1      11.999  14.109  19.485  0.00  0.00    +0.000 A 
ATOM     21  O   UNL     1      11.553  12.878  19.124  0.00  0.00    +0.000 OA
ENDBRANCH  14  17
ENDBRANCH   9  11
ENDBRANCH   5   7
BRANCH   1  22
ATOM     22  C   UNL     1       3.357   4.943  17.573  0.00  0.00    +0.000 C 
BRANCH  22  27
ATOM     23  N   UNL     1       1.604   2.428  22.246  0.00  0.00    +0.000 N 
ATOM     24  C   UNL     1       2.033   3.045  21.090  0.00  0.00    +0.000 A 
ATOM     25  N   UNL     1       1.275   4.026  20.593  0.00  0.00    +0.000 NA
ATOM     26  C   UNL     1       1.727   4.623  19.471  0.00  0.00    +0.000 A 
ATOM     27  C   UNL     1       2.889   4.267  18.825  0.00  0.00    +0.000 A 
ATOM     28  C   UNL     1       3.562   3.213  19.404  0.00  0.00    +0.000 A 
ATOM     29  N   UNL     1       3.156   2.588  20.528  0.00  0.00    +0.000 NA
ATOM     30  H   UNL     1       0.601   2.523  22.326  0.00  0.00    +0.000 HD
ATOM     31  H   UNL     1       1.992   1.498  22.297  0.00  0.00    +0.000 HD
ENDBRANCH  22  27
ENDBRANCH   1  22
TORSDOF 5
ENDMDL
MODEL 8
REMARK VINA RESULT:      -7.9      2.241      4.625
REMARK  Name = 
REMARK  5 active torsions:
REMARK  status: ('A' for Active; 'I' for Inactive)
REMARK    1  A    between atoms: C_5  and  C_6
REMARK    2  A    between atoms: C_6  and  N_7
REMARK    3  A    between atoms: C_11  and  C_12
REMARK    4  A    between atoms: N_14  and  C_15
REMARK    5  A    between atoms: C_18  and  C_19
REMARK                            x       y       z     vdW  Elec       q    Type
REMARK                         _______ _______ _______ _____ _____    ______ ____
ROOT
ATOM      1  N   UNL     1       4.683   3.840  18.999  0.00  0.00    +0.000 NA
ATOM      2  C   UNL     1       4.778   2.844  20.078  0.00  0.00    +0.000 C 
ATOM      3  C   UNL     1       3.416   2.265  20.457  0.00  0.00    +0.000 C 
ATOM      4  C   UNL     1       2.440   3.357  20.879  0.00  0.00    +0.000 C 
ATOM      5  C   UNL     1       2.299   4.394  19.766  0.00  0.00    +0.000 C 
ATOM      6  C   UNL     1       3.693   4.891  19.316  0.00  0.00    +0.000 C 
ENDROOT
BRANCH   5   7
ATOM      7  C   UNL     1       1.492   5.617  20.212  0.00  0.00    +0.000 C 
ATOM      8  O   UNL     1       0.345   5.474  20.638  0.00  0.00    +0.000 OA
ATOM      9  N   UNL     1       2.138   6.839  20.097  0.00  0.00    +0.000 N 
ATOM     10  H   UNL     1       2.999   6.878  19.569  0.00  0.00    +0.000 HD
BRANCH   9  11
ATOM     11  C   UNL     1       1.581   8.081  20.496  0.00  0.00    +0.000 A 
ATOM     12  C   UNL     1       1.394   8.419  21.837  0.00  0.00    +0.000 A 
ATOM     13  C   UNL     1       0.776   9.618  22.201  0.00  0.00    +0.000 A 
ATOM     14  C   UNL     1       0.334  10.521  21.232  0.00  0.00    +0.000 A 
ATOM     15  C   UNL     1       0.568  10.206  19.885  0.00  0.00    +0.000 A 
ATOM     16  C   UNL     1       1.200   9.000  19.518  0.00  0.00    +0.000 A 
BRANCH  14  17
ATOM     17  C   UNL     1      -0.368  11.733  21.643  0.00  0.00    +0.000 A 
ATOM     18  C   UNL     1      -0.855  12.840  20.969  0.00  0.00    +0.000 A 
ATOM     19  C   UNL     1      -1.419  13.699  21.942  0.00  0.00    +0.000 A 
ATOM     20  C   UNL     1      -1.248  13.067  23.148  0.00  0.00    +0.000 A 
ATOM     21  O   UNL     1      -0.614  11.877  22.980  0.00  0.00    +0.000 OA
ENDBRANCH  14  17
ENDBRANCH   9  11
ENDBRANCH   5   7
BRANCH   1  22
ATOM     22  C   UNL     1       5.996   4.498  18.771  0.00  0.00    +0.000 C 
BRANCH  22  27
ATOM     23  N   UNL     1       7.349   5.127  13.386  0.00  0.00    +0.000 N 
ATOM     24  C   UNL     1       7.010   4.975  14.714  0.00  0.00    +0.000 A 
ATOM     25  N   UNL     1       6.172   3.985  15.030  0.00  0.00    +0.000 NA
ATOM     26  C   UNL     1       5.870   3.849  16.338  0.00  0.00    +0.000 A 
ATOM     27  C   UNL     1       6.359   4.669  17.328  0.00  0.00    +0.000 A 
ATOM     28  C   UNL     1       7.177   5.683  16.877  0.00  0.00    +0.000 A 
ATOM     29  N   UNL     1       7.514   5.857  15.583  0.00  0.00    +0.000 NA
ATOM     30  H   UNL     1       6.619   4.739  12.806  0.00  0.00    +0.000 HD
ATOM     31  H   UNL     1       7.626   6.083  13.214  0.00  0.00    +0.000 HD
ENDBRANCH  22  27
ENDBRANCH   1  22
TORSDOF 5
ENDMDL
MODEL 9
REMARK VINA RESULT:      -7.9      5.957      7.435
REMARK  Name = 
REMARK  5 active torsions:
REMARK  status: ('A' for Active; 'I' for Inactive)
REMARK    1  A    between atoms: C_5  and  C_6
REMARK    2  A    between atoms: C_6  and  N_7
REMARK    3  A    between atoms: C_11  and  C_12
REMARK    4  A    between atoms: N_14  and  C_15
REMARK    5  A    between atoms: C_18  and  C_19
REMARK                            x       y       z     vdW  Elec       q    Type
REMARK                         _______ _______ _______ _____ _____    ______ ____
ROOT
ATOM      1  N   UNL     1       5.215   5.140  17.970  0.00  0.00    +0.000 NA
ATOM      2  C   UNL     1       5.621   4.476  16.721  0.00  0.00    +0.000 C 
ATOM      3  C   UNL     1       7.136   4.484  16.525  0.00  0.00    +0.000 C 
ATOM      4  C   UNL     1       7.695   5.902  16.534  0.00  0.00    +0.000 C 
ATOM      5  C   UNL     1       7.312   6.609  17.833  0.00  0.00    +0.000 C 
ATOM      6  C   UNL     1       5.788   6.498  18.076  0.00  0.00    +0.000 C 
ENDROOT
BRANCH   5   7
ATOM      7  C   UNL     1       7.671   8.098  17.810  0.00  0.00    +0.000 C 
ATOM      8  O   UNL     1       7.111   8.854  17.015  0.00  0.00    +0.000 OA
ATOM      9  N   UNL     1       8.638   8.497  18.722  0.00  0.00    +0.000 N 
ATOM     10  H   UNL     1       9.169   7.783  19.200  0.00  0.00    +0.000 HD
BRANCH   9  11
ATOM     11  C   UNL     1       9.076   9.835  18.890  0.00  0.00    +0.000 A 
ATOM     12  C   UNL     1       9.301  10.689  17.809  0.00  0.00    +0.000 A 
ATOM     13  C   UNL     1       9.804  11.979  17.999  0.00  0.00    +0.000 A 
ATOM     14  C   UNL     1      10.088  12.458  19.279  0.00  0.00    +0.000 A 
ATOM     15  C   UNL     1       9.813  11.619  20.369  0.00  0.00    +0.000 A 
ATOM     16  C   UNL     1       9.298  10.321  20.180  0.00  0.00    +0.000 A 
BRANCH  14  17
ATOM     17  C   UNL     1      10.675  13.785  19.439  0.00  0.00    +0.000 A 
ATOM     18  C   UNL     1      11.906  14.247  19.871  0.00  0.00    +0.000 A 
ATOM     19  C   UNL     1      11.854  15.660  19.824  0.00  0.00    +0.000 A 
ATOM     20  C   UNL     1      10.600  15.977  19.363  0.00  0.00    +0.000 A 
ATOM     21  O   UNL     1       9.879  14.851  19.126  0.00  0.00    +0.000 OA
ENDBRANCH  14  17
ENDBRANCH   9  11
ENDBRANCH   5   7
BRANCH   1  22
ATOM     22  C   UNL     1       3.736   5.257  18.047  0.00  0.00    +0.000 C 
BRANCH  22  27
ATOM     23  N   UNL     1       1.416   2.444  22.283  0.00  0.00    +0.000 N 
ATOM     24  C   UNL     1       1.994   3.139  21.241  0.00  0.00    +0.000 A 
ATOM     25  N   UNL     1       2.670   2.437  20.328  0.00  0.00    +0.000 NA
ATOM     26  C   UNL     1       3.210   3.139  19.311  0.00  0.00    +0.000 A 
ATOM     27  C   UNL     1       3.114   4.506  19.184  0.00  0.00    +0.000 A 
ATOM     28  C   UNL     1       2.433   5.127  20.209  0.00  0.00    +0.000 A 
ATOM     29  N   UNL     1       1.869   4.470  21.244  0.00  0.00    +0.000 NA
ATOM     30  H   UNL     1       1.916   1.578  22.428  0.00  0.00    +0.000 HD
ATOM     31  H   UNL     1       1.302   3.058  23.077  0.00  0.00    +0.000 HD
ENDBRANCH  22  27
ENDBRANCH   1  22
TORSDOF 5
ENDMDL
