MODEL 1
REMARK VINA RESULT:      -7.1      0.000      0.000
REMARK  Name = 
REMARK  2 active torsions:
REMARK  status: ('A' for Active; 'I' for Inactive)
REMARK    1  A    between atoms: N_1  and  C_2
REMARK    2  A    between atoms: C_5  and  C_6
REMARK                            x       y       z     vdW  Elec       q    Type
REMARK                         _______ _______ _______ _____ _____    ______ ____
ROOT
ATOM      1  C   UNL     1       6.386   5.034  16.159  0.00  0.00    +0.000 A 
ATOM      2  C   UNL     1       5.266   4.276  15.828  0.00  0.00    +0.000 A 
ATOM      3  C   UNL     1       4.287   3.975  16.787  0.00  0.00    +0.000 A 
ATOM      4  C   UNL     1       4.424   4.362  18.132  0.00  0.00    +0.000 A 
ATOM      5  C   UNL     1       5.588   5.084  18.447  0.00  0.00    +0.000 A 
ATOM      6  F   UNL     1       5.831   5.472  19.710  0.00  0.00    +0.000 F 
ATOM      7  C   UNL     1       6.555   5.405  17.490  0.00  0.00    +0.000 A 
ENDROOT
BRANCH   4   8
ATOM      8  C   UNL     1       3.405   4.000  19.152  0.00  0.00    +0.000 A 
ATOM      9  C   UNL     1       2.177   4.686  19.243  0.00  0.00    +0.000 A 
ATOM     10  C   UNL     1       1.217   4.357  20.209  0.00  0.00    +0.000 A 
ATOM     11  C   UNL     1       1.449   3.320  21.105  0.00  0.00    +0.000 A 
ATOM     12  C   UNL     1       2.648   2.616  21.037  0.00  0.00    +0.000 A 
ATOM     13  C   UNL     1       3.606   2.962  20.082  0.00  0.00    +0.000 A 
ATOM     14  F   UNL     1       4.754   2.265  20.094  0.00  0.00    +0.000 F 
ENDBRANCH   4   8
BRANCH   1  15
ATOM     15  N   UNL     1       7.421   5.204  15.236  0.00  0.00    +0.000 N 
ATOM     16  H   UNL     1       7.111   5.415  14.293  0.00  0.00    +0.000 HD
ATOM     17  H   UNL     1       8.163   5.824  15.548  0.00  0.00    +0.000 HD
ENDBRANCH   1  15
TORSDOF 2
ENDMDL
MODEL 2
REMARK VINA RESULT:      -7.1      1.585      1.872
REMARK  Name = 
REMARK  2 active torsions:
REMARK  status: ('A' for Active; 'I' for Inactive)
REMARK    1  A    between atoms: N_1  and  C_2
REMARK    2  A    between atoms: C_5  and  C_6
REMARK                            x       y       z     vdW  Elec       q    Type
REMARK                         _______ _______ _______ _____ _____    ______ ____
ROOT
ATOM      1  C   UNL     1       6.253   5.217  15.373  0.00  0.00    +0.000 A 
ATOM      2  C   UNL     1       5.981   3.922  15.806  0.00  0.00    +0.000 A 
ATOM      3  C   UNL     1       4.935   3.664  16.705  0.00  0.00    +0.000 A 
ATOM      4  C   UNL     1       4.163   4.700  17.260  0.00  0.00    +0.000 A 
ATOM      5  C   UNL     1       4.492   6.001  16.843  0.00  0.00    +0.000 A 
ATOM      6  F   UNL     1       3.837   7.064  17.340  0.00  0.00    +0.000 F 
ATOM      7  C   UNL     1       5.520   6.261  15.931  0.00  0.00    +0.000 A 
ENDROOT
BRANCH   4   8
ATOM      8  C   UNL     1       3.086   4.423  18.246  0.00  0.00    +0.000 A 
ATOM      9  C   UNL     1       1.932   3.694  17.893  0.00  0.00    +0.000 A 
ATOM     10  C   UNL     1       0.909   3.438  18.815  0.00  0.00    +0.000 A 
ATOM     11  C   UNL     1       1.015   3.891  20.125  0.00  0.00    +0.000 A 
ATOM     12  C   UNL     1       2.145   4.606  20.510  0.00  0.00    +0.000 A 
ATOM     13  C   UNL     1       3.152   4.871  19.580  0.00  0.00    +0.000 A 
ATOM     14  F   UNL     1       4.199   5.595  20.008  0.00  0.00    +0.000 F 
ENDBRANCH   4   8
BRANCH   1  15
ATOM     15  N   UNL     1       7.383   5.480  14.596  0.00  0.00    +0.000 N 
ATOM     16  H   UNL     1       7.525   6.462  14.381  0.00  0.00    +0.000 HD
ATOM     17  H   UNL     1       8.232   5.028  14.923  0.00  0.00    +0.000 HD
ENDBRANCH   1  15
TORSDOF 2
ENDMDL
MODEL 3
REMARK VINA RESULT:      -7.1      1.173      1.771
REMARK  Name = 
REMARK  2 active torsions:
REMARK  status: ('A' for Active; 'I' for Inactive)
REMARK    1  A    between atoms: N_1  and  C_2
REMARK    2  A    between atoms: C_5  and  C_6
REMARK                            x       y       z     vdW  Elec       q    Type
REMARK                         _______ _______ _______ _____ _____    ______ ____
ROOT
ATOM      1  C   UNL     1       6.655   4.749  16.215  0.00  0.00    +0.000 A 
ATOM      2  C   UNL     1       6.975   5.050  17.537  0.00  0.00    +0.000 A 
ATOM      3  C   UNL     1       6.080   4.771  18.580  0.00  0.00    +0.000 A 
ATOM      4  C   UNL     1       4.799   4.243  18.336  0.00  0.00    +0.000 A 
ATOM      5  C   UNL     1       4.484   3.995  16.988  0.00  0.00    +0.000 A 
ATOM      6  F   UNL     1       3.275   3.522  16.645  0.00  0.00    +0.000 F 
ATOM      7  C   UNL     1       5.382   4.252  15.948  0.00  0.00    +0.000 A 
ENDROOT
BRANCH   4   8
ATOM      8  C   UNL     1       3.839   3.992  19.442  0.00  0.00    +0.000 A 
ATOM      9  C   UNL     1       2.950   4.992  19.887  0.00  0.00    +0.000 A 
ATOM     10  C   UNL     1       2.049   4.766  20.936  0.00  0.00    +0.000 A 
ATOM     11  C   UNL     1       1.998   3.526  21.563  0.00  0.00    +0.000 A 
ATOM     12  C   UNL     1       2.856   2.514  21.142  0.00  0.00    +0.000 A 
ATOM     13  C   UNL     1       3.762   2.754  20.108  0.00  0.00    +0.000 A 
ATOM     14  F   UNL     1       4.584   1.744  19.775  0.00  0.00    +0.000 F 
ENDBRANCH   4   8
BRANCH   1  15
ATOM     15  N   UNL     1       7.489   5.162  15.174  0.00  0.00    +0.000 N 
ATOM     16  H   UNL     1       8.071   4.426  14.786  0.00  0.00    +0.000 HD
ATOM     17  H   UNL     1       7.024   5.709  14.455  0.00  0.00    +0.000 HD
ENDBRANCH   1  15
TORSDOF 2
ENDMDL
MODEL 4
REMARK VINA RESULT:      -7.0      1.151      1.744
REMARK  Name = 
REMARK  2 active torsions:
REMARK  status: ('A' for Active; 'I' for Inactive)
REMARK    1  A    between atoms: N_1  and  C_2
REMARK    2  A    between atoms: C_5  and  C_6
REMARK                            x       y       z     vdW  Elec       q    Type
REMARK                         _______ _______ _______ _____ _____    ______ ____
ROOT
ATOM      1  C   UNL     1       6.438   5.021  16.143  0.00  0.00    +0.000 A 
ATOM      2  C   UNL     1       5.366   4.201  15.798  0.00  0.00    +0.000 A 
ATOM      3  C   UNL     1       4.369   3.882  16.731  0.00  0.00    +0.000 A 
ATOM      4  C   UNL     1       4.439   4.315  18.067  0.00  0.00    +0.000 A 
ATOM      5  C   UNL     1       5.557   5.099  18.400  0.00  0.00    +0.000 A 
ATOM      6  F   UNL     1       5.736   5.535  19.659  0.00  0.00    +0.000 F 
ATOM      7  C   UNL     1       6.542   5.437  17.467  0.00  0.00    +0.000 A 
ENDROOT
BRANCH   4   8
ATOM      8  C   UNL     1       3.402   3.934  19.062  0.00  0.00    +0.000 A 
ATOM      9  C   UNL     1       3.674   3.013  20.094  0.00  0.00    +0.000 A 
ATOM     10  C   UNL     1       2.698   2.642  21.029  0.00  0.00    +0.000 A 
ATOM     11  C   UNL     1       1.423   3.194  20.970  0.00  0.00    +0.000 A 
ATOM     12  C   UNL     1       1.124   4.114  19.969  0.00  0.00    +0.000 A 
ATOM     13  C   UNL     1       2.098   4.464  19.032  0.00  0.00    +0.000 A 
ATOM     14  F   UNL     1       1.733   5.331  18.072  0.00  0.00    +0.000 F 
ENDBRANCH   4   8
BRANCH   1  15
ATOM     15  N   UNL     1       7.496   5.214  15.253  0.00  0.00    +0.000 N 
ATOM     16  H   UNL     1       7.618   6.174  14.948  0.00  0.00    +0.000 HD
ATOM     17  H   UNL     1       8.370   4.784  15.541  0.00  0.00    +0.000 HD
ENDBRANCH   1  15
TORSDOF 2
ENDMDL
MODEL 5
REMARK VINA RESULT:      -7.0      1.513      2.439
REMARK  Name = 
REMARK  2 active torsions:
REMARK  status: ('A' for Active; 'I' for Inactive)
REMARK    1  A    between atoms: N_1  and  C_2
REMARK    2  A    between atoms: C_5  and  C_6
REMARK                            x       y       z     vdW  Elec       q    Type
REMARK                         _______ _______ _______ _____ _____    ______ ____
ROOT
ATOM      1  C   UNL     1       6.534   4.953  16.595  0.00  0.00    +0.000 A 
ATOM      2  C   UNL     1       6.658   5.243  17.952  0.00  0.00    +0.000 A 
ATOM      3  C   UNL     1       5.661   4.871  18.866  0.00  0.00    +0.000 A 
ATOM      4  C   UNL     1       4.468   4.254  18.449  0.00  0.00    +0.000 A 
ATOM      5  C   UNL     1       4.349   4.018  17.068  0.00  0.00    +0.000 A 
ATOM      6  F   UNL     1       3.234   3.464  16.563  0.00  0.00    +0.000 F 
ATOM      7  C   UNL     1       5.350   4.369  16.157  0.00  0.00    +0.000 A 
ENDROOT
BRANCH   4   8
ATOM      8  C   UNL     1       3.396   3.903  19.417  0.00  0.00    +0.000 A 
ATOM      9  C   UNL     1       3.549   2.842  20.334  0.00  0.00    +0.000 A 
ATOM     10  C   UNL     1       2.538   2.500  21.242  0.00  0.00    +0.000 A 
ATOM     11  C   UNL     1       1.348   3.218  21.272  0.00  0.00    +0.000 A 
ATOM     12  C   UNL     1       1.169   4.277  20.387  0.00  0.00    +0.000 A 
ATOM     13  C   UNL     1       2.174   4.600  19.474  0.00  0.00    +0.000 A 
ATOM     14  F   UNL     1       1.922   5.611  18.626  0.00  0.00    +0.000 F 
ENDBRANCH   4   8
BRANCH   1  15
ATOM     15  N   UNL     1       7.461   5.455  15.678  0.00  0.00    +0.000 N 
ATOM     16  H   UNL     1       8.362   5.693  16.080  0.00  0.00    +0.000 HD
ATOM     17  H   UNL     1       7.548   4.907  14.828  0.00  0.00    +0.000 HD
ENDBRANCH   1  15
TORSDOF 2
ENDMDL
MODEL 6
REMARK VINA RESULT:      -7.0      1.752      2.094
REMARK  Name = 
REMARK  2 active torsions:
REMARK  status: ('A' for Active; 'I' for Inactive)
REMARK    1  A    between atoms: N_1  and  C_2
REMARK    2  A    between atoms: C_5  and  C_6
REMARK                            x       y       z     vdW  Elec       q    Type
REMARK                         _______ _______ _______ _____ _____    ______ ____
ROOT
ATOM      1  C   UNL     1       5.749   5.247  15.638  0.00  0.00    +0.000 A 
ATOM      2  C   UNL     1       5.543   3.894  15.896  0.00  0.00    +0.000 A 
ATOM      3  C   UNL     1       4.638   3.475  16.882  0.00  0.00    +0.000 A 
ATOM      4  C   UNL     1       3.953   4.393  17.698  0.00  0.00    +0.000 A 
ATOM      5  C   UNL     1       4.218   5.751  17.449  0.00  0.00    +0.000 A 
ATOM      6  F   UNL     1       3.640   6.708  18.195  0.00  0.00    +0.000 F 
ATOM      7  C   UNL     1       5.103   6.173  16.452  0.00  0.00    +0.000 A 
ENDROOT
BRANCH   4   8
ATOM      8  C   UNL     1       3.030   3.941  18.772  0.00  0.00    +0.000 A 
ATOM      9  C   UNL     1       3.515   3.431  19.994  0.00  0.00    +0.000 A 
ATOM     10  C   UNL     1       2.651   2.993  21.006  0.00  0.00    +0.000 A 
ATOM     11  C   UNL     1       1.273   3.066  20.834  0.00  0.00    +0.000 A 
ATOM     12  C   UNL     1       0.761   3.573  19.643  0.00  0.00    +0.000 A 
ATOM     13  C   UNL     1       1.630   3.991  18.633  0.00  0.00    +0.000 A 
ATOM     14  F   UNL     1       1.070   4.437  17.497  0.00  0.00    +0.000 F 
ENDBRANCH   4   8
BRANCH   1  15
ATOM     15  N   UNL     1       6.754   5.654  14.759  0.00  0.00    +0.000 N 
ATOM     16  H   UNL     1       7.160   4.902  14.210  0.00  0.00    +0.000 HD
ATOM     17  H   UNL     1       6.514   6.462  14.191  0.00  0.00    +0.000 HD
ENDBRANCH   1  15
TORSDOF 2
ENDMDL
MODEL 7
REMARK VINA RESULT:      -6.9      1.899      2.111
REMARK  Name = 
REMARK  2 active torsions:
REMARK  status: ('A' for Active; 'I' for Inactive)
REMARK    1  A    between atoms: N_1  and  C_2
REMARK    2  A    between atoms: C_5  and  C_6
REMARK                            x       y       z     vdW  Elec       q    Type
REMARK                         _______ _______ _______ _____ _____    ______ ____
ROOT
ATOM      1  C   UNL     1       6.384   5.974  16.860  0.00  0.00    +0.000 A 
ATOM      2  C   UNL     1       6.446   4.723  17.468  0.00  0.00    +0.000 A 
ATOM      3  C   UNL     1       5.315   4.155  18.073  0.00  0.00    +0.000 A 
ATOM      4  C   UNL     1       4.092   4.847  18.153  0.00  0.00    +0.000 A 
ATOM      5  C   UNL     1       4.073   6.128  17.575  0.00  0.00    +0.000 A 
ATOM      6  F   UNL     1       2.964   6.885  17.627  0.00  0.00    +0.000 F 
ATOM      7  C   UNL     1       5.193   6.688  16.952  0.00  0.00    +0.000 A 
ENDROOT
BRANCH   4   8
ATOM      8  C   UNL     1       2.910   4.258  18.835  0.00  0.00    +0.000 A 
ATOM      9  C   UNL     1       2.544   4.645  20.140  0.00  0.00    +0.000 A 
ATOM     10  C   UNL     1       1.437   4.086  20.793  0.00  0.00    +0.000 A 
ATOM     11  C   UNL     1       0.652   3.133  20.154  0.00  0.00    +0.000 A 
ATOM     12  C   UNL     1       0.981   2.735  18.862  0.00  0.00    +0.000 A 
ATOM     13  C   UNL     1       2.096   3.284  18.226  0.00  0.00    +0.000 A 
ATOM     14  F   UNL     1       2.376   2.830  16.993  0.00  0.00    +0.000 F 
ENDBRANCH   4   8
BRANCH   1  15
ATOM     15  N   UNL     1       7.547   6.590  16.392  0.00  0.00    +0.000 N 
ATOM     16  H   UNL     1       7.944   6.160  15.562  0.00  0.00    +0.000 HD
ATOM     17  H   UNL     1       7.483   7.601  16.311  0.00  0.00    +0.000 HD
ENDBRANCH   1  15
TORSDOF 2
ENDMDL
MODEL 8
REMARK VINA RESULT:      -6.9      1.746      2.019
REMARK  Name = 
REMARK  2 active torsions:
REMARK  status: ('A' for Active; 'I' for Inactive)
REMARK    1  A    between atoms: N_1  and  C_2
REMARK    2  A    between atoms: C_5  and  C_6
REMARK                            x       y       z     vdW  Elec       q    Type
REMARK                         _______ _______ _______ _____ _____    ______ ____
ROOT
ATOM      1  C   UNL     1       6.465   6.446  17.289  0.00  0.00    +0.000 A 
ATOM      2  C   UNL     1       5.186   6.883  16.952  0.00  0.00    +0.000 A 
ATOM      3  C   UNL     1       4.046   6.265  17.486  0.00  0.00    +0.000 A 
ATOM      4  C   UNL     1       4.137   5.141  18.326  0.00  0.00    +0.000 A 
ATOM      5  C   UNL     1       5.438   4.691  18.609  0.00  0.00    +0.000 A 
ATOM      6  F   UNL     1       5.634   3.604  19.375  0.00  0.00    +0.000 F 
ATOM      7  C   UNL     1       6.578   5.318  18.096  0.00  0.00    +0.000 A 
ENDROOT
BRANCH   4   8
ATOM      8  C   UNL     1       2.923   4.463  18.852  0.00  0.00    +0.000 A 
ATOM      9  C   UNL     1       2.411   4.757  20.132  0.00  0.00    +0.000 A 
ATOM     10  C   UNL     1       1.274   4.114  20.638  0.00  0.00    +0.000 A 
ATOM     11  C   UNL     1       0.602   3.168  19.872  0.00  0.00    +0.000 A 
ATOM     12  C   UNL     1       1.076   2.861  18.600  0.00  0.00    +0.000 A 
ATOM     13  C   UNL     1       2.220   3.494  18.111  0.00  0.00    +0.000 A 
ATOM     14  F   UNL     1       2.642   3.126  16.889  0.00  0.00    +0.000 F 
ENDBRANCH   4   8
BRANCH   1  15
ATOM     15  N   UNL     1       7.585   6.972  16.641  0.00  0.00    +0.000 N 
ATOM     16  H   UNL     1       7.601   6.815  15.638  0.00  0.00    +0.000 HD
ATOM     17  H   UNL     1       7.797   7.934  16.886  0.00  0.00    +0.000 HD
ENDBRANCH   1  15
TORSDOF 2
ENDMDL
MODEL 9
REMARK VINA RESULT:      -6.9      1.111      1.114
REMARK  Name = 
REMARK  2 active torsions:
REMARK  status: ('A' for Active; 'I' for Inactive)
REMARK    1  A    between atoms: N_1  and  C_2
REMARK    2  A    between atoms: C_5  and  C_6
REMARK                            x       y       z     vdW  Elec       q    Type
REMARK                         _______ _______ _______ _____ _____    ______ ____
ROOT
ATOM      1  C   UNL     1       6.521   5.064  15.891  0.00  0.00    +0.000 A 
ATOM      2  C   UNL     1       5.320   4.616  15.347  0.00  0.00    +0.000 A 
ATOM      3  C   UNL     1       4.245   4.246  16.169  0.00  0.00    +0.000 A 
ATOM      4  C   UNL     1       4.353   4.244  17.572  0.00  0.00    +0.000 A 
ATOM      5  C   UNL     1       5.593   4.653  18.093  0.00  0.00    +0.000 A 
ATOM      6  F   UNL     1       5.810   4.655  19.419  0.00  0.00    +0.000 F 
ATOM      7  C   UNL     1       6.658   5.044  17.276  0.00  0.00    +0.000 A 
ENDROOT
BRANCH   4   8
ATOM      8  C   UNL     1       3.226   3.807  18.436  0.00  0.00    +0.000 A 
ATOM      9  C   UNL     1       2.476   4.731  19.193  0.00  0.00    +0.000 A 
ATOM     10  C   UNL     1       1.419   4.325  20.018  0.00  0.00    +0.000 A 
ATOM     11  C   UNL     1       1.068   2.982  20.100  0.00  0.00    +0.000 A 
ATOM     12  C   UNL     1       1.782   2.045  19.359  0.00  0.00    +0.000 A 
ATOM     13  C   UNL     1       2.845   2.457  18.553  0.00  0.00    +0.000 A 
ATOM     14  F   UNL     1       3.513   1.497  17.892  0.00  0.00    +0.000 F 
ENDBRANCH   4   8
BRANCH   1  15
ATOM     15  N   UNL     1       7.627   5.291  15.070  0.00  0.00    +0.000 N 
ATOM     16  H   UNL     1       7.498   5.006  14.104  0.00  0.00    +0.000 HD
ATOM     17  H   UNL     1       8.025   6.222  15.150  0.00  0.00    +0.000 HD
ENDBRANCH   1  15
TORSDOF 2
ENDMDL
