MODEL 1
REMARK VINA RESULT:      -8.1      0.000      0.000
REMARK  Name = 
REMARK  2 active torsions:
REMARK  status: ('A' for Active; 'I' for Inactive)
REMARK    1  A    between atoms: C_1  and  C_2
REMARK    2  A    between atoms: C_3  and  C_4
REMARK                            x       y       z     vdW  Elec       q    Type
REMARK                         _______ _______ _______ _____ _____    ______ ____
ROOT
ATOM      1  C   UNL     1       2.341   9.883  17.888  0.00  0.00    +0.000 C 
ATOM      2  C   UNL     1       1.832   9.112  19.052  0.00  0.00    +0.000 A 
ATOM      3  C   UNL     1       0.911   9.449  20.033  0.00  0.00    +0.000 A 
ATOM      4  C   UNL     1       0.909   8.337  20.899  0.00  0.00    +0.000 A 
ATOM      5  N   UNL     1       1.671   7.337  20.467  0.00  0.00    +0.000 NA
ATOM      6  N   UNL     1       2.251   7.820  19.326  0.00  0.00    +0.000 N 
ATOM      7  C   UNL     1       3.141   7.002  18.597  0.00  0.00    +0.000 A 
ATOM      8  N   UNL     1       3.574   7.292  17.406  0.00  0.00    +0.000 NA
ATOM      9  C   UNL     1       4.510   6.411  16.955  0.00  0.00    +0.000 A 
ATOM     10  S   UNL     1       5.024   6.326  15.337  0.00  0.00    +0.000 S 
ATOM     11  C   UNL     1       6.170   5.101  15.710  0.00  0.00    +0.000 A 
ATOM     12  C   UNL     1       6.192   4.799  17.053  0.00  0.00    +0.000 A 
ATOM     13  C   UNL     1       5.174   5.501  17.745  0.00  0.00    +0.000 A 
ATOM     14  C   UNL     1       4.758   5.430  19.128  0.00  0.00    +0.000 A 
ATOM     15  O   UNL     1       5.495   5.082  20.042  0.00  0.00    +0.000 OA
ATOM     16  N   UNL     1       3.471   5.860  19.305  0.00  0.00    +0.000 N 
ATOM     17  H   UNL     1       2.884   5.137  18.895  0.00  0.00    +0.000 HD
ENDROOT
BRANCH   3  18
ATOM     18  C   UNL     1       0.129  10.675  20.110  0.00  0.00    +0.000 C 
ATOM     19  O   UNL     1       0.576  11.678  20.662  0.00  0.00    +0.000 OA
ATOM     20  N   UNL     1      -1.125  10.667  19.491  0.00  0.00    +0.000 N 
ATOM     21  C   UNL     1      -1.899  11.911  19.520  0.00  0.00    +0.000 C 
ATOM     22  C   UNL     1      -3.324  11.773  18.971  0.00  0.00    +0.000 C 
ATOM     23  C   UNL     1      -3.265  11.170  17.593  0.00  0.00    +0.000 A 
ATOM     24  C   UNL     1      -4.100  11.579  16.552  0.00  0.00    +0.000 A 
ATOM     25  C   UNL     1      -3.967  10.998  15.288  0.00  0.00    +0.000 A 
ATOM     26  C   UNL     1      -3.011  10.008  15.059  0.00  0.00    +0.000 A 
ATOM     27  C   UNL     1      -2.203   9.577  16.097  0.00  0.00    +0.000 A 
ATOM     28  C   UNL     1      -2.323  10.153  17.366  0.00  0.00    +0.000 A 
ATOM     29  C   UNL     1      -1.491   9.648  18.508  0.00  0.00    +0.000 C 
ENDBRANCH   3  18
TORSDOF 1
ENDMDL
MODEL 2
REMARK VINA RESULT:      -8.1      3.451      8.606
REMARK  Name = 
REMARK  2 active torsions:
REMARK  status: ('A' for Active; 'I' for Inactive)
REMARK    1  A    between atoms: C_1  and  C_2
REMARK    2  A    between atoms: C_3  and  C_4
REMARK                            x       y       z     vdW  Elec       q    Type
REMARK                         _______ _______ _______ _____ _____    ______ ____
ROOT
ATOM      1  C   UNL     1       1.146   8.522  21.402  0.00  0.00    +0.000 C 
ATOM      2  C   UNL     1       1.426   8.568  19.943  0.00  0.00    +0.000 A 
ATOM      3  C   UNL     1       2.111   7.687  19.121  0.00  0.00    +0.000 A 
ATOM      4  C   UNL     1       2.105   8.317  17.860  0.00  0.00    +0.000 A 
ATOM      5  N   UNL     1       1.396   9.442  17.842  0.00  0.00    +0.000 NA
ATOM      6  N   UNL     1       0.982   9.603  19.136  0.00  0.00    +0.000 N 
ATOM      7  C   UNL     1       0.194  10.722  19.480  0.00  0.00    +0.000 A 
ATOM      8  N   UNL     1      -0.414  10.851  20.623  0.00  0.00    +0.000 NA
ATOM      9  C   UNL     1      -1.017  12.064  20.767  0.00  0.00    +0.000 A 
ATOM     10  S   UNL     1      -2.146  12.417  21.987  0.00  0.00    +0.000 S 
ATOM     11  C   UNL     1      -2.274  14.051  21.470  0.00  0.00    +0.000 A 
ATOM     12  C   UNL     1      -1.433  14.331  20.416  0.00  0.00    +0.000 A 
ATOM     13  C   UNL     1      -0.776  13.157  19.969  0.00  0.00    +0.000 A 
ATOM     14  C   UNL     1       0.110  12.949  18.846  0.00  0.00    +0.000 A 
ATOM     15  O   UNL     1       0.799  13.832  18.350  0.00  0.00    +0.000 OA
ATOM     16  N   UNL     1       0.141  11.640  18.446  0.00  0.00    +0.000 N 
ATOM     17  H   UNL     1      -0.761  11.468  18.009  0.00  0.00    +0.000 HD
ENDROOT
BRANCH   3  18
ATOM     18  C   UNL     1       2.680   6.401  19.502  0.00  0.00    +0.000 C 
ATOM     19  O   UNL     1       2.072   5.635  20.246  0.00  0.00    +0.000 OA
ATOM     20  N   UNL     1       3.920   6.068  18.947  0.00  0.00    +0.000 N 
ATOM     21  C   UNL     1       4.479   4.756  19.285  0.00  0.00    +0.000 C 
ATOM     22  C   UNL     1       5.908   4.536  18.777  0.00  0.00    +0.000 C 
ATOM     23  C   UNL     1       5.953   4.811  17.297  0.00  0.00    +0.000 A 
ATOM     24  C   UNL     1       6.712   4.048  16.409  0.00  0.00    +0.000 A 
ATOM     25  C   UNL     1       6.680   4.339  15.043  0.00  0.00    +0.000 A 
ATOM     26  C   UNL     1       5.900   5.391  14.560  0.00  0.00    +0.000 A 
ATOM     27  C   UNL     1       5.172   6.171  15.442  0.00  0.00    +0.000 A 
ATOM     28  C   UNL     1       5.192   5.887  16.811  0.00  0.00    +0.000 A 
ATOM     29  C   UNL     1       4.452   6.765  17.777  0.00  0.00    +0.000 C 
ENDBRANCH   3  18
TORSDOF 1
ENDMDL
MODEL 3
REMARK VINA RESULT:      -7.9      2.314      3.043
REMARK  Name = 
REMARK  2 active torsions:
REMARK  status: ('A' for Active; 'I' for Inactive)
REMARK    1  A    between atoms: C_1  and  C_2
REMARK    2  A    between atoms: C_3  and  C_4
REMARK                            x       y       z     vdW  Elec       q    Type
REMARK                         _______ _______ _______ _____ _____    ______ ____
ROOT
ATOM      1  C   UNL     1       0.560   8.291  20.996  0.00  0.00    +0.000 C 
ATOM      2  C   UNL     1       1.260   8.715  19.755  0.00  0.00    +0.000 A 
ATOM      3  C   UNL     1       1.297   9.941  19.107  0.00  0.00    +0.000 A 
ATOM      4  C   UNL     1       2.060   9.693  17.948  0.00  0.00    +0.000 A 
ATOM      5  N   UNL     1       2.557   8.461  17.903  0.00  0.00    +0.000 NA
ATOM      6  N   UNL     1       2.053   7.851  19.019  0.00  0.00    +0.000 N 
ATOM      7  C   UNL     1       2.383   6.504  19.285  0.00  0.00    +0.000 A 
ATOM      8  N   UNL     1       2.127   5.909  20.413  0.00  0.00    +0.000 NA
ATOM      9  C   UNL     1       2.435   4.582  20.393  0.00  0.00    +0.000 A 
ATOM     10  S   UNL     1       2.521   3.612  21.785  0.00  0.00    +0.000 S 
ATOM     11  C   UNL     1       2.853   2.208  20.852  0.00  0.00    +0.000 A 
ATOM     12  C   UNL     1       2.848   2.469  19.499  0.00  0.00    +0.000 A 
ATOM     13  C   UNL     1       2.689   3.856  19.253  0.00  0.00    +0.000 A 
ATOM     14  C   UNL     1       2.721   4.598  18.013  0.00  0.00    +0.000 A 
ATOM     15  O   UNL     1       2.450   4.111  16.922  0.00  0.00    +0.000 OA
ATOM     16  N   UNL     1       3.023   5.918  18.207  0.00  0.00    +0.000 N 
ATOM     17  H   UNL     1       4.007   5.937  18.464  0.00  0.00    +0.000 HD
ENDROOT
BRANCH   3  18
ATOM     18  C   UNL     1       0.689  11.185  19.558  0.00  0.00    +0.000 C 
ATOM     19  O   UNL     1       1.382  12.145  19.888  0.00  0.00    +0.000 OA
ATOM     20  N   UNL     1      -0.708  11.246  19.553  0.00  0.00    +0.000 N 
ATOM     21  C   UNL     1      -1.329  12.511  19.957  0.00  0.00    +0.000 C 
ATOM     22  C   UNL     1      -2.855  12.443  20.086  0.00  0.00    +0.000 C 
ATOM     23  C   UNL     1      -3.434  11.908  18.804  0.00  0.00    +0.000 A 
ATOM     24  C   UNL     1      -4.620  12.394  18.249  0.00  0.00    +0.000 A 
ATOM     25  C   UNL     1      -5.082  11.872  17.037  0.00  0.00    +0.000 A 
ATOM     26  C   UNL     1      -4.372  10.866  16.381  0.00  0.00    +0.000 A 
ATOM     27  C   UNL     1      -3.214  10.359  16.945  0.00  0.00    +0.000 A 
ATOM     28  C   UNL     1      -2.738  10.875  18.155  0.00  0.00    +0.000 A 
ATOM     29  C   UNL     1      -1.517  10.289  18.799  0.00  0.00    +0.000 C 
ENDBRANCH   3  18
TORSDOF 1
ENDMDL
MODEL 4
REMARK VINA RESULT:      -7.4      4.519      9.386
REMARK  Name = 
REMARK  2 active torsions:
REMARK  status: ('A' for Active; 'I' for Inactive)
REMARK    1  A    between atoms: C_1  and  C_2
REMARK    2  A    between atoms: C_3  and  C_4
REMARK                            x       y       z     vdW  Elec       q    Type
REMARK                         _______ _______ _______ _____ _____    ______ ____
ROOT
ATOM      1  C   UNL     1      -2.385  12.264  19.394  0.00  0.00    +0.000 C 
ATOM      2  C   UNL     1      -1.507  12.536  20.562  0.00  0.00    +0.000 A 
ATOM      3  C   UNL     1      -0.126  12.510  20.686  0.00  0.00    +0.000 A 
ATOM      4  C   UNL     1       0.101  12.777  22.051  0.00  0.00    +0.000 A 
ATOM      5  N   UNL     1      -1.013  13.054  22.721  0.00  0.00    +0.000 NA
ATOM      6  N   UNL     1      -2.012  12.895  21.801  0.00  0.00    +0.000 N 
ATOM      7  C   UNL     1      -3.353  13.111  22.184  0.00  0.00    +0.000 A 
ATOM      8  N   UNL     1      -4.340  13.187  21.340  0.00  0.00    +0.000 NA
ATOM      9  C   UNL     1      -5.553  13.285  21.953  0.00  0.00    +0.000 A 
ATOM     10  S   UNL     1      -6.985  13.720  21.148  0.00  0.00    +0.000 S 
ATOM     11  C   UNL     1      -7.916  13.510  22.577  0.00  0.00    +0.000 A 
ATOM     12  C   UNL     1      -7.153  13.068  23.635  0.00  0.00    +0.000 A 
ATOM     13  C   UNL     1      -5.781  13.022  23.284  0.00  0.00    +0.000 A 
ATOM     14  C   UNL     1      -4.617  12.718  24.086  0.00  0.00    +0.000 A 
ATOM     15  O   UNL     1      -4.647  12.019  25.091  0.00  0.00    +0.000 OA
ATOM     16  N   UNL     1      -3.471  13.246  23.556  0.00  0.00    +0.000 N 
ATOM     17  H   UNL     1      -3.542  14.251  23.700  0.00  0.00    +0.000 HD
ENDROOT
BRANCH   3  18
ATOM     18  C   UNL     1       0.841  12.274  19.623  0.00  0.00    +0.000 C 
ATOM     19  O   UNL     1       1.554  13.182  19.202  0.00  0.00    +0.000 OA
ATOM     20  N   UNL     1       0.948  10.965  19.142  0.00  0.00    +0.000 N 
ATOM     21  C   UNL     1       1.953  10.707  18.107  0.00  0.00    +0.000 C 
ATOM     22  C   UNL     1       1.892   9.293  17.517  0.00  0.00    +0.000 C 
ATOM     23  C   UNL     1       1.955   8.289  18.637  0.00  0.00    +0.000 A 
ATOM     24  C   UNL     1       2.668   7.092  18.540  0.00  0.00    +0.000 A 
ATOM     25  C   UNL     1       2.711   6.221  19.633  0.00  0.00    +0.000 A 
ATOM     26  C   UNL     1       2.042   6.534  20.816  0.00  0.00    +0.000 A 
ATOM     27  C   UNL     1       1.307   7.704  20.904  0.00  0.00    +0.000 A 
ATOM     28  C   UNL     1       1.259   8.586  19.820  0.00  0.00    +0.000 A 
ATOM     29  C   UNL     1       0.416   9.825  19.890  0.00  0.00    +0.000 C 
ENDBRANCH   3  18
TORSDOF 1
ENDMDL
MODEL 5
REMARK VINA RESULT:      -6.8      5.729      9.804
REMARK  Name = 
REMARK  2 active torsions:
REMARK  status: ('A' for Active; 'I' for Inactive)
REMARK    1  A    between atoms: C_1  and  C_2
REMARK    2  A    between atoms: C_3  and  C_4
REMARK                            x       y       z     vdW  Elec       q    Type
REMARK                         _______ _______ _______ _____ _____    ______ ____
ROOT
ATOM      1  C   UNL     1      -2.729  12.616  19.480  0.00  0.00    +0.000 C 
ATOM      2  C   UNL     1      -1.903  12.303  20.675  0.00  0.00    +0.000 A 
ATOM      3  C   UNL     1      -0.617  11.795  20.783  0.00  0.00    +0.000 A 
ATOM      4  C   UNL     1      -0.421  11.648  22.171  0.00  0.00    +0.000 A 
ATOM      5  N   UNL     1      -1.436  12.113  22.894  0.00  0.00    +0.000 NA
ATOM      6  N   UNL     1      -2.359  12.511  21.967  0.00  0.00    +0.000 N 
ATOM      7  C   UNL     1      -3.585  13.062  22.397  0.00  0.00    +0.000 A 
ATOM      8  N   UNL     1      -4.428  13.653  21.602  0.00  0.00    +0.000 NA
ATOM      9  C   UNL     1      -5.588  14.001  22.226  0.00  0.00    +0.000 A 
ATOM     10  S   UNL     1      -6.739  15.059  21.557  0.00  0.00    +0.000 S 
ATOM     11  C   UNL     1      -7.794  14.841  22.896  0.00  0.00    +0.000 A 
ATOM     12  C   UNL     1      -7.297  13.939  23.811  0.00  0.00    +0.000 A 
ATOM     13  C   UNL     1      -5.989  13.526  23.453  0.00  0.00    +0.000 A 
ATOM     14  C   UNL     1      -5.050  12.678  24.151  0.00  0.00    +0.000 A 
ATOM     15  O   UNL     1      -5.380  11.815  24.955  0.00  0.00    +0.000 OA
ATOM     16  N   UNL     1      -3.758  12.906  23.761  0.00  0.00    +0.000 N 
ATOM     17  H   UNL     1      -3.514  13.815  24.146  0.00  0.00    +0.000 HD
ENDROOT
BRANCH   3  18
ATOM     18  C   UNL     1       0.302  11.507  19.690  0.00  0.00    +0.000 C 
ATOM     19  O   UNL     1       0.170  10.498  19.002  0.00  0.00    +0.000 OA
ATOM     20  N   UNL     1       1.303  12.450  19.438  0.00  0.00    +0.000 N 
ATOM     21  C   UNL     1       2.202  12.194  18.309  0.00  0.00    +0.000 C 
ATOM     22  C   UNL     1       3.369  13.183  18.204  0.00  0.00    +0.000 C 
ATOM     23  C   UNL     1       2.825  14.587  18.194  0.00  0.00    +0.000 A 
ATOM     24  C   UNL     1       3.358  15.597  17.392  0.00  0.00    +0.000 A 
ATOM     25  C   UNL     1       2.782  16.871  17.408  0.00  0.00    +0.000 A 
ATOM     26  C   UNL     1       1.683  17.142  18.224  0.00  0.00    +0.000 A 
ATOM     27  C   UNL     1       1.173  16.151  19.046  0.00  0.00    +0.000 A 
ATOM     28  C   UNL     1       1.738  14.872  19.036  0.00  0.00    +0.000 A 
ATOM     29  C   UNL     1       1.227  13.812  19.967  0.00  0.00    +0.000 C 
ENDBRANCH   3  18
TORSDOF 1
ENDMDL
MODEL 6
REMARK VINA RESULT:      -6.8      3.755      8.667
REMARK  Name = 
REMARK  2 active torsions:
REMARK  status: ('A' for Active; 'I' for Inactive)
REMARK    1  A    between atoms: C_1  and  C_2
REMARK    2  A    between atoms: C_3  and  C_4
REMARK                            x       y       z     vdW  Elec       q    Type
REMARK                         _______ _______ _______ _____ _____    ______ ____
ROOT
ATOM      1  C   UNL     1       0.303  10.597  18.513  0.00  0.00    +0.000 C 
ATOM      2  C   UNL     1       0.702   9.863  19.742  0.00  0.00    +0.000 A 
ATOM      3  C   UNL     1       1.471   8.721  19.908  0.00  0.00    +0.000 A 
ATOM      4  C   UNL     1       1.425   8.475  21.296  0.00  0.00    +0.000 A 
ATOM      5  N   UNL     1       0.781   9.420  21.972  0.00  0.00    +0.000 NA
ATOM      6  N   UNL     1       0.324  10.277  21.009  0.00  0.00    +0.000 N 
ATOM      7  C   UNL     1      -0.420  11.415  21.385  0.00  0.00    +0.000 A 
ATOM      8  N   UNL     1      -0.715  12.385  20.570  0.00  0.00    +0.000 NA
ATOM      9  C   UNL     1      -1.536  13.316  21.132  0.00  0.00    +0.000 A 
ATOM     10  S   UNL     1      -1.836  14.844  20.449  0.00  0.00    +0.000 S 
ATOM     11  C   UNL     1      -2.950  15.241  21.696  0.00  0.00    +0.000 A 
ATOM     12  C   UNL     1      -3.125  14.206  22.588  0.00  0.00    +0.000 A 
ATOM     13  C   UNL     1      -2.243  13.135  22.297  0.00  0.00    +0.000 A 
ATOM     14  C   UNL     1      -2.002  11.899  23.008  0.00  0.00    +0.000 A 
ATOM     15  O   UNL     1      -2.828  11.360  23.733  0.00  0.00    +0.000 OA
ATOM     16  N   UNL     1      -0.773  11.368  22.722  0.00  0.00    +0.000 N 
ATOM     17  H   UNL     1      -0.100  11.981  23.177  0.00  0.00    +0.000 HD
ENDROOT
BRANCH   3  18
ATOM     18  C   UNL     1       2.169   7.979  18.866  0.00  0.00    +0.000 C 
ATOM     19  O   UNL     1       2.936   8.545  18.092  0.00  0.00    +0.000 OA
ATOM     20  N   UNL     1       1.957   6.598  18.823  0.00  0.00    +0.000 N 
ATOM     21  C   UNL     1       2.692   5.835  17.810  0.00  0.00    +0.000 C 
ATOM     22  C   UNL     1       2.280   4.361  17.717  0.00  0.00    +0.000 C 
ATOM     23  C   UNL     1       2.376   3.736  19.083  0.00  0.00    +0.000 A 
ATOM     24  C   UNL     1       2.841   2.436  19.288  0.00  0.00    +0.000 A 
ATOM     25  C   UNL     1       2.935   1.931  20.588  0.00  0.00    +0.000 A 
ATOM     26  C   UNL     1       2.562   2.713  21.682  0.00  0.00    +0.000 A 
ATOM     27  C   UNL     1       2.069   3.991  21.479  0.00  0.00    +0.000 A 
ATOM     28  C   UNL     1       1.974   4.510  20.185  0.00  0.00    +0.000 A 
ATOM     29  C   UNL     1       1.385   5.870  19.956  0.00  0.00    +0.000 C 
ENDBRANCH   3  18
TORSDOF 1
ENDMDL
MODEL 7
REMARK VINA RESULT:      -6.8      6.252      9.671
REMARK  Name = 
REMARK  2 active torsions:
REMARK  status: ('A' for Active; 'I' for Inactive)
REMARK    1  A    between atoms: C_1  and  C_2
REMARK    2  A    between atoms: C_3  and  C_4
REMARK                            x       y       z     vdW  Elec       q    Type
REMARK                         _______ _______ _______ _____ _____    ______ ____
ROOT
ATOM      1  C   UNL     1      -2.191  12.137  19.635  0.00  0.00    +0.000 C 
ATOM      2  C   UNL     1      -1.393  12.670  20.770  0.00  0.00    +0.000 A 
ATOM      3  C   UNL     1      -0.030  12.887  20.899  0.00  0.00    +0.000 A 
ATOM      4  C   UNL     1       0.124  13.329  22.229  0.00  0.00    +0.000 A 
ATOM      5  N   UNL     1      -1.034  13.484  22.864  0.00  0.00    +0.000 NA
ATOM      6  N   UNL     1      -1.974  13.067  21.963  0.00  0.00    +0.000 N 
ATOM      7  C   UNL     1      -3.340  13.096  22.319  0.00  0.00    +0.000 A 
ATOM      8  N   UNL     1      -4.309  12.920  21.470  0.00  0.00    +0.000 NA
ATOM      9  C   UNL     1      -5.533  12.878  22.067  0.00  0.00    +0.000 A 
ATOM     10  S   UNL     1      -7.002  12.984  21.217  0.00  0.00    +0.000 S 
ATOM     11  C   UNL     1      -7.913  12.771  22.659  0.00  0.00    +0.000 A 
ATOM     12  C   UNL     1      -7.108  12.574  23.759  0.00  0.00    +0.000 A 
ATOM     13  C   UNL     1      -5.741  12.720  23.417  0.00  0.00    +0.000 A 
ATOM     14  C   UNL     1      -4.559  12.699  24.249  0.00  0.00    +0.000 A 
ATOM     15  O   UNL     1      -4.493  12.112  25.322  0.00  0.00    +0.000 OA
ATOM     16  N   UNL     1      -3.505  13.352  23.669  0.00  0.00    +0.000 N 
ATOM     17  H   UNL     1      -3.743  14.340  23.706  0.00  0.00    +0.000 HD
ENDROOT
BRANCH   3  18
ATOM     18  C   UNL     1       0.984  12.706  19.869  0.00  0.00    +0.000 C 
ATOM     19  O   UNL     1       1.210  11.596  19.391  0.00  0.00    +0.000 OA
ATOM     20  N   UNL     1       1.646  13.854  19.423  0.00  0.00    +0.000 N 
ATOM     21  C   UNL     1       2.633  13.689  18.351  0.00  0.00    +0.000 C 
ATOM     22  C   UNL     1       3.431  14.960  18.038  0.00  0.00    +0.000 C 
ATOM     23  C   UNL     1       2.473  16.089  17.763  0.00  0.00    +0.000 A 
ATOM     24  C   UNL     1       2.697  17.046  16.772  0.00  0.00    +0.000 A 
ATOM     25  C   UNL     1       1.748  18.047  16.550  0.00  0.00    +0.000 A 
ATOM     26  C   UNL     1       0.583  18.103  17.315  0.00  0.00    +0.000 A 
ATOM     27  C   UNL     1       0.374  17.175  18.321  0.00  0.00    +0.000 A 
ATOM     28  C   UNL     1       1.313  16.165  18.551  0.00  0.00    +0.000 A 
ATOM     29  C   UNL     1       1.120  15.195  19.678  0.00  0.00    +0.000 C 
ENDBRANCH   3  18
TORSDOF 1
ENDMDL
MODEL 8
REMARK VINA RESULT:      -6.7      6.996      7.723
REMARK  Name = 
REMARK  2 active torsions:
REMARK  status: ('A' for Active; 'I' for Inactive)
REMARK    1  A    between atoms: C_1  and  C_2
REMARK    2  A    between atoms: C_3  and  C_4
REMARK                            x       y       z     vdW  Elec       q    Type
REMARK                         _______ _______ _______ _____ _____    ______ ____
ROOT
ATOM      1  C   UNL     1       6.196  14.800  17.657  0.00  0.00    +0.000 C 
ATOM      2  C   UNL     1       5.971  15.202  19.069  0.00  0.00    +0.000 A 
ATOM      3  C   UNL     1       4.929  15.902  19.659  0.00  0.00    +0.000 A 
ATOM      4  C   UNL     1       5.324  16.036  21.006  0.00  0.00    +0.000 A 
ATOM      5  N   UNL     1       6.456  15.396  21.284  0.00  0.00    +0.000 NA
ATOM      6  N   UNL     1       6.862  14.886  20.082  0.00  0.00    +0.000 N 
ATOM      7  C   UNL     1       8.056  14.137  20.011  0.00  0.00    +0.000 A 
ATOM      8  N   UNL     1       8.412  13.445  18.969  0.00  0.00    +0.000 NA
ATOM      9  C   UNL     1       9.655  12.901  19.095  0.00  0.00    +0.000 A 
ATOM     10  S   UNL     1      10.266  11.696  18.063  0.00  0.00    +0.000 S 
ATOM     11  C   UNL     1      11.785  11.705  18.866  0.00  0.00    +0.000 A 
ATOM     12  C   UNL     1      11.838  12.646  19.871  0.00  0.00    +0.000 A 
ATOM     13  C   UNL     1      10.577  13.269  20.045  0.00  0.00    +0.000 A 
ATOM     14  C   UNL     1      10.136  14.233  21.028  0.00  0.00    +0.000 A 
ATOM     15  O   UNL     1      10.887  15.009  21.605  0.00  0.00    +0.000 OA
ATOM     16  N   UNL     1       8.777  14.223  21.189  0.00  0.00    +0.000 N 
ATOM     17  H   UNL     1       8.566  13.352  21.671  0.00  0.00    +0.000 HD
ENDROOT
BRANCH   3  18
ATOM     18  C   UNL     1       3.709  16.363  19.009  0.00  0.00    +0.000 C 
ATOM     19  O   UNL     1       3.730  17.306  18.221  0.00  0.00    +0.000 OA
ATOM     20  N   UNL     1       2.535  15.658  19.290  0.00  0.00    +0.000 N 
ATOM     21  C   UNL     1       1.313  16.083  18.604  0.00  0.00    +0.000 C 
ATOM     22  C   UNL     1       0.044  15.372  19.090  0.00  0.00    +0.000 C 
ATOM     23  C   UNL     1       0.253  13.883  19.013  0.00  0.00    +0.000 A 
ATOM     24  C   UNL     1      -0.749  12.999  18.612  0.00  0.00    +0.000 A 
ATOM     25  C   UNL     1      -0.474  11.631  18.531  0.00  0.00    +0.000 A 
ATOM     26  C   UNL     1       0.791  11.141  18.856  0.00  0.00    +0.000 A 
ATOM     27  C   UNL     1       1.778  12.012  19.286  0.00  0.00    +0.000 A 
ATOM     28  C   UNL     1       1.518  13.383  19.366  0.00  0.00    +0.000 A 
ATOM     29  C   UNL     1       2.564  14.323  19.888  0.00  0.00    +0.000 C 
ENDBRANCH   3  18
TORSDOF 1
ENDMDL
MODEL 9
REMARK VINA RESULT:      -6.6      7.981     11.497
REMARK  Name = 
REMARK  2 active torsions:
REMARK  status: ('A' for Active; 'I' for Inactive)
REMARK    1  A    between atoms: C_1  and  C_2
REMARK    2  A    between atoms: C_3  and  C_4
REMARK                            x       y       z     vdW  Elec       q    Type
REMARK                         _______ _______ _______ _____ _____    ______ ____
ROOT
ATOM      1  C   UNL     1       5.744  14.506  21.227  0.00  0.00    +0.000 C 
ATOM      2  C   UNL     1       5.967  15.659  20.317  0.00  0.00    +0.000 A 
ATOM      3  C   UNL     1       7.066  16.490  20.156  0.00  0.00    +0.000 A 
ATOM      4  C   UNL     1       6.643  17.439  19.203  0.00  0.00    +0.000 A 
ATOM      5  N   UNL     1       5.432  17.186  18.717  0.00  0.00    +0.000 NA
ATOM      6  N   UNL     1       5.008  16.088  19.414  0.00  0.00    +0.000 N 
ATOM      7  C   UNL     1       3.734  15.543  19.147  0.00  0.00    +0.000 A 
ATOM      8  N   UNL     1       3.333  14.393  19.603  0.00  0.00    +0.000 NA
ATOM      9  C   UNL     1       2.028  14.133  19.306  0.00  0.00    +0.000 A 
ATOM     10  S   UNL     1       1.309  12.602  19.475  0.00  0.00    +0.000 S 
ATOM     11  C   UNL     1      -0.224  13.211  18.996  0.00  0.00    +0.000 A 
ATOM     12  C   UNL     1      -0.196  14.568  18.760  0.00  0.00    +0.000 A 
ATOM     13  C   UNL     1       1.125  15.070  18.862  0.00  0.00    +0.000 A 
ATOM     14  C   UNL     1       1.648  16.394  18.606  0.00  0.00    +0.000 A 
ATOM     15  O   UNL     1       0.979  17.416  18.685  0.00  0.00    +0.000 OA
ATOM     16  N   UNL     1       2.989  16.377  18.332  0.00  0.00    +0.000 N 
ATOM     17  H   UNL     1       3.072  15.960  17.409  0.00  0.00    +0.000 HD
ENDROOT
BRANCH   3  18
ATOM     18  C   UNL     1       8.356  16.370  20.824  0.00  0.00    +0.000 C 
ATOM     19  O   UNL     1       8.502  16.735  21.988  0.00  0.00    +0.000 OA
ATOM     20  N   UNL     1       9.394  15.783  20.095  0.00  0.00    +0.000 N 
ATOM     21  C   UNL     1      10.682  15.612  20.775  0.00  0.00    +0.000 C 
ATOM     22  C   UNL     1      11.809  15.119  19.860  0.00  0.00    +0.000 C 
ATOM     23  C   UNL     1      11.362  13.863  19.161  0.00  0.00    +0.000 A 
ATOM     24  C   UNL     1      12.215  12.782  18.931  0.00  0.00    +0.000 A 
ATOM     25  C   UNL     1      11.723  11.633  18.305  0.00  0.00    +0.000 A 
ATOM     26  C   UNL     1      10.390  11.560  17.902  0.00  0.00    +0.000 A 
ATOM     27  C   UNL     1       9.550  12.643  18.099  0.00  0.00    +0.000 A 
ATOM     28  C   UNL     1      10.028  13.797  18.728  0.00  0.00    +0.000 A 
ATOM     29  C   UNL     1       9.139  14.994  18.890  0.00  0.00    +0.000 C 
ENDBRANCH   3  18
TORSDOF 1
ENDMDL
