MODEL 1
REMARK VINA RESULT:      -7.2      0.000      0.000
REMARK  Name = 
REMARK  7 active torsions:
REMARK  status: ('A' for Active; 'I' for Inactive)
REMARK    1  A    between atoms: C_1  and  S_2
REMARK    2  A    between atoms: S_2  and  C_3
REMARK    3  A    between atoms: N_19  and  C_20
REMARK    4  A    between atoms: C_20  and  C_21
REMARK    5  A    between atoms: C_21  and  N_22
REMARK    6  A    between atoms: N_22  and  C_23
REMARK    7  A    between atoms: N_22  and  C_24
REMARK                            x       y       z     vdW  Elec       q    Type
REMARK                         _______ _______ _______ _____ _____    ______ ____
ROOT
ATOM      1  C   UNL     1       4.959   5.440  16.645  0.00  0.00    +0.000 A 
ATOM      2  C   UNL     1       4.900   6.693  16.031  0.00  0.00    +0.000 A 
ATOM      3  C   UNL     1       4.106   7.693  16.575  0.00  0.00    +0.000 A 
ATOM      4  C   UNL     1       3.363   7.449  17.739  0.00  0.00    +0.000 A 
ATOM      5  C   UNL     1       3.402   6.205  18.392  0.00  0.00    +0.000 A 
ATOM      6  C   UNL     1       2.646   5.947  19.564  0.00  0.00    +0.000 A 
ATOM      7  C   UNL     1       2.709   4.676  20.237  0.00  0.00    +0.000 A 
ATOM      8  C   UNL     1       2.011   4.299  21.422  0.00  0.00    +0.000 A 
ATOM      9  C   UNL     1       2.132   3.036  22.008  0.00  0.00    +0.000 A 
ATOM     10  C   UNL     1       2.968   2.093  21.438  0.00  0.00    +0.000 A 
ATOM     11  C   UNL     1       3.670   2.419  20.284  0.00  0.00    +0.000 A 
ATOM     12  C   UNL     1       3.547   3.687  19.682  0.00  0.00    +0.000 A 
ATOM     13  C   UNL     1       4.273   3.950  18.514  0.00  0.00    +0.000 A 
ATOM     14  C   UNL     1       4.223   5.186  17.841  0.00  0.00    +0.000 A 
ATOM     15  C   UNL     1       1.747   7.042  20.056  0.00  0.00    +0.000 C 
ATOM     16  O   UNL     1       0.935   6.836  20.955  0.00  0.00    +0.000 OA
ATOM     17  N   UNL     1       1.808   8.284  19.424  0.00  0.00    +0.000 N 
ATOM     18  C   UNL     1       2.520   8.545  18.261  0.00  0.00    +0.000 C 
ATOM     19  O   UNL     1       2.455   9.597  17.633  0.00  0.00    +0.000 OA
ENDROOT
BRANCH   1  21
ATOM     20  C   UNL     1       7.525   4.476  16.841  0.00  0.00    +0.000 C 
ATOM     21  S   UNL     1       6.025   4.224  15.855  0.00  0.00    +0.000 S 
ENDBRANCH   1  21
BRANCH  17  22
ATOM     22  C   UNL     1       0.893   9.319  19.915  0.00  0.00    +0.000 C 
BRANCH  22  23
ATOM     23  C   UNL     1       1.371  10.044  21.194  0.00  0.00    +0.000 C 
BRANCH  23  24
ATOM     24  N   UNL     1       0.315  10.630  22.048  0.00  0.00    +0.000 NA
ATOM     25  C   UNL     1      -0.793  11.165  21.253  0.00  0.00    +0.000 C 
ATOM     26  C   UNL     1      -0.188   9.596  22.961  0.00  0.00    +0.000 C 
ENDBRANCH  23  24
ENDBRANCH  22  23
ENDBRANCH  17  22
TORSDOF 4
ENDMDL
MODEL 2
REMARK VINA RESULT:      -7.1      3.371      6.405
REMARK  Name = 
REMARK  7 active torsions:
REMARK  status: ('A' for Active; 'I' for Inactive)
REMARK    1  A    between atoms: C_1  and  S_2
REMARK    2  A    between atoms: S_2  and  C_3
REMARK    3  A    between atoms: N_19  and  C_20
REMARK    4  A    between atoms: C_20  and  C_21
REMARK    5  A    between atoms: C_21  and  N_22
REMARK    6  A    between atoms: N_22  and  C_23
REMARK    7  A    between atoms: N_22  and  C_24
REMARK                            x       y       z     vdW  Elec       q    Type
REMARK                         _______ _______ _______ _____ _____    ______ ____
ROOT
ATOM      1  C   UNL     1       1.854   8.136  19.337  0.00  0.00    +0.000 A 
ATOM      2  C   UNL     1       2.284   8.936  18.276  0.00  0.00    +0.000 A 
ATOM      3  C   UNL     1       3.188   8.433  17.351  0.00  0.00    +0.000 A 
ATOM      4  C   UNL     1       3.671   7.123  17.478  0.00  0.00    +0.000 A 
ATOM      5  C   UNL     1       3.256   6.282  18.525  0.00  0.00    +0.000 A 
ATOM      6  C   UNL     1       3.748   4.959  18.667  0.00  0.00    +0.000 A 
ATOM      7  C   UNL     1       3.302   4.099  19.731  0.00  0.00    +0.000 A 
ATOM      8  C   UNL     1       3.709   2.754  19.973  0.00  0.00    +0.000 A 
ATOM      9  C   UNL     1       3.221   1.990  21.037  0.00  0.00    +0.000 A 
ATOM     10  C   UNL     1       2.294   2.536  21.905  0.00  0.00    +0.000 A 
ATOM     11  C   UNL     1       1.867   3.844  21.706  0.00  0.00    +0.000 A 
ATOM     12  C   UNL     1       2.359   4.623  20.640  0.00  0.00    +0.000 A 
ATOM     13  C   UNL     1       1.897   5.937  20.499  0.00  0.00    +0.000 A 
ATOM     14  C   UNL     1       2.323   6.794  19.465  0.00  0.00    +0.000 A 
ATOM     15  C   UNL     1       4.781   4.501  17.681  0.00  0.00    +0.000 C 
ATOM     16  O   UNL     1       5.381   3.440  17.841  0.00  0.00    +0.000 OA
ATOM     17  N   UNL     1       5.096   5.341  16.613  0.00  0.00    +0.000 N 
ATOM     18  C   UNL     1       4.646   6.647  16.475  0.00  0.00    +0.000 C 
ATOM     19  O   UNL     1       5.039   7.425  15.611  0.00  0.00    +0.000 OA
ENDROOT
BRANCH   1  21
ATOM     20  C   UNL     1      -0.007  10.158  19.368  0.00  0.00    +0.000 C 
ATOM     21  S   UNL     1       0.677   8.892  20.470  0.00  0.00    +0.000 S 
ENDBRANCH   1  21
BRANCH  17  22
ATOM     22  C   UNL     1       6.132   4.872  15.688  0.00  0.00    +0.000 C 
BRANCH  22  23
ATOM     23  C   UNL     1       5.591   4.200  14.405  0.00  0.00    +0.000 C 
BRANCH  23  24
ATOM     24  N   UNL     1       6.600   3.799  13.400  0.00  0.00    +0.000 NA
ATOM     25  C   UNL     1       5.976   3.295  12.175  0.00  0.00    +0.000 C 
ATOM     26  C   UNL     1       7.443   4.958  13.082  0.00  0.00    +0.000 C 
ENDBRANCH  23  24
ENDBRANCH  22  23
ENDBRANCH  17  22
TORSDOF 4
ENDMDL
MODEL 3
REMARK VINA RESULT:      -7.0      1.275      1.468
REMARK  Name = 
REMARK  7 active torsions:
REMARK  status: ('A' for Active; 'I' for Inactive)
REMARK    1  A    between atoms: C_1  and  S_2
REMARK    2  A    between atoms: S_2  and  C_3
REMARK    3  A    between atoms: N_19  and  C_20
REMARK    4  A    between atoms: C_20  and  C_21
REMARK    5  A    between atoms: C_21  and  N_22
REMARK    6  A    between atoms: N_22  and  C_23
REMARK    7  A    between atoms: N_22  and  C_24
REMARK                            x       y       z     vdW  Elec       q    Type
REMARK                         _______ _______ _______ _____ _____    ______ ____
ROOT
ATOM      1  C   UNL     1       4.987   5.196  16.491  0.00  0.00    +0.000 A 
ATOM      2  C   UNL     1       4.977   6.426  15.829  0.00  0.00    +0.000 A 
ATOM      3  C   UNL     1       4.243   7.484  16.347  0.00  0.00    +0.000 A 
ATOM      4  C   UNL     1       3.512   7.322  17.532  0.00  0.00    +0.000 A 
ATOM      5  C   UNL     1       3.504   6.104  18.233  0.00  0.00    +0.000 A 
ATOM      6  C   UNL     1       2.758   5.928  19.427  0.00  0.00    +0.000 A 
ATOM      7  C   UNL     1       2.773   4.683  20.149  0.00  0.00    +0.000 A 
ATOM      8  C   UNL     1       2.080   4.387  21.360  0.00  0.00    +0.000 A 
ATOM      9  C   UNL     1       2.152   3.143  21.993  0.00  0.00    +0.000 A 
ATOM     10  C   UNL     1       2.929   2.138  21.446  0.00  0.00    +0.000 A 
ATOM     11  C   UNL     1       3.623   2.384  20.268  0.00  0.00    +0.000 A 
ATOM     12  C   UNL     1       3.551   3.632  19.619  0.00  0.00    +0.000 A 
ATOM     13  C   UNL     1       4.266   3.815  18.429  0.00  0.00    +0.000 A 
ATOM     14  C   UNL     1       4.263   5.025  17.709  0.00  0.00    +0.000 A 
ATOM     15  C   UNL     1       1.924   7.084  19.892  0.00  0.00    +0.000 C 
ATOM     16  O   UNL     1       1.120   6.954  20.813  0.00  0.00    +0.000 OA
ATOM     17  N   UNL     1       2.033   8.297  19.210  0.00  0.00    +0.000 N 
ATOM     18  C   UNL     1       2.734   8.478  18.026  0.00  0.00    +0.000 C 
ATOM     19  O   UNL     1       2.708   9.506  17.358  0.00  0.00    +0.000 OA
ENDROOT
BRANCH   1  21
ATOM     20  C   UNL     1       6.988   4.922  14.627  0.00  0.00    +0.000 C 
ATOM     21  S   UNL     1       5.977   3.899  15.730  0.00  0.00    +0.000 S 
ENDBRANCH   1  21
BRANCH  17  22
ATOM     22  C   UNL     1       1.179   9.394  19.676  0.00  0.00    +0.000 C 
BRANCH  22  23
ATOM     23  C   UNL     1      -0.064   9.658  18.795  0.00  0.00    +0.000 C 
BRANCH  23  24
ATOM     24  N   UNL     1      -0.331  11.070  18.445  0.00  0.00    +0.000 NA
ATOM     25  C   UNL     1      -1.662  11.496  18.882  0.00  0.00    +0.000 C 
ATOM     26  C   UNL     1       0.689  11.918  19.073  0.00  0.00    +0.000 C 
ENDBRANCH  23  24
ENDBRANCH  22  23
ENDBRANCH  17  22
TORSDOF 4
ENDMDL
MODEL 4
REMARK VINA RESULT:      -6.7      4.471      7.984
REMARK  Name = 
REMARK  7 active torsions:
REMARK  status: ('A' for Active; 'I' for Inactive)
REMARK    1  A    between atoms: C_1  and  S_2
REMARK    2  A    between atoms: S_2  and  C_3
REMARK    3  A    between atoms: N_19  and  C_20
REMARK    4  A    between atoms: C_20  and  C_21
REMARK    5  A    between atoms: C_21  and  N_22
REMARK    6  A    between atoms: N_22  and  C_23
REMARK    7  A    between atoms: N_22  and  C_24
REMARK                            x       y       z     vdW  Elec       q    Type
REMARK                         _______ _______ _______ _____ _____    ______ ____
ROOT
ATOM      1  C   UNL     1       0.849   9.661  19.431  0.00  0.00    +0.000 A 
ATOM      2  C   UNL     1       1.296   9.920  20.729  0.00  0.00    +0.000 A 
ATOM      3  C   UNL     1       0.528  10.701  21.582  0.00  0.00    +0.000 A 
ATOM      4  C   UNL     1      -0.694  11.230  21.145  0.00  0.00    +0.000 A 
ATOM      5  C   UNL     1      -1.183  10.986  19.850  0.00  0.00    +0.000 A 
ATOM      6  C   UNL     1      -2.414  11.526  19.397  0.00  0.00    +0.000 A 
ATOM      7  C   UNL     1      -2.917  11.253  18.076  0.00  0.00    +0.000 A 
ATOM      8  C   UNL     1      -4.138  11.724  17.510  0.00  0.00    +0.000 A 
ATOM      9  C   UNL     1      -4.548  11.407  16.212  0.00  0.00    +0.000 A 
ATOM     10  C   UNL     1      -3.756  10.594  15.422  0.00  0.00    +0.000 A 
ATOM     11  C   UNL     1      -2.558  10.110  15.934  0.00  0.00    +0.000 A 
ATOM     12  C   UNL     1      -2.133  10.430  17.239  0.00  0.00    +0.000 A 
ATOM     13  C   UNL     1      -0.912   9.920  17.694  0.00  0.00    +0.000 A 
ATOM     14  C   UNL     1      -0.404  10.178  18.981  0.00  0.00    +0.000 A 
ATOM     15  C   UNL     1      -3.157  12.426  20.339  0.00  0.00    +0.000 C 
ATOM     16  O   UNL     1      -4.134  13.069  19.960  0.00  0.00    +0.000 OA
ATOM     17  N   UNL     1      -2.673  12.569  21.640  0.00  0.00    +0.000 N 
ATOM     18  C   UNL     1      -1.459  12.071  22.090  0.00  0.00    +0.000 C 
ATOM     19  O   UNL     1      -0.975  12.321  23.189  0.00  0.00    +0.000 OA
ENDROOT
BRANCH   1  21
ATOM     20  C   UNL     1       2.250   7.303  19.606  0.00  0.00    +0.000 C 
ATOM     21  S   UNL     1       1.923   8.632  18.417  0.00  0.00    +0.000 S 
ENDBRANCH   1  21
BRANCH  17  22
ATOM     22  C   UNL     1      -3.410  13.480  22.520  0.00  0.00    +0.000 C 
BRANCH  22  23
ATOM     23  C   UNL     1      -4.447  12.790  23.436  0.00  0.00    +0.000 C 
BRANCH  23  24
ATOM     24  N   UNL     1      -5.852  12.821  22.974  0.00  0.00    +0.000 NA
ATOM     25  C   UNL     1      -6.784  12.456  24.043  0.00  0.00    +0.000 C 
ATOM     26  C   UNL     1      -6.165  14.170  22.488  0.00  0.00    +0.000 C 
ENDBRANCH  23  24
ENDBRANCH  22  23
ENDBRANCH  17  22
TORSDOF 4
ENDMDL
MODEL 5
REMARK VINA RESULT:      -6.4      4.260      7.795
REMARK  Name = 
REMARK  7 active torsions:
REMARK  status: ('A' for Active; 'I' for Inactive)
REMARK    1  A    between atoms: C_1  and  S_2
REMARK    2  A    between atoms: S_2  and  C_3
REMARK    3  A    between atoms: N_19  and  C_20
REMARK    4  A    between atoms: C_20  and  C_21
REMARK    5  A    between atoms: C_21  and  N_22
REMARK    6  A    between atoms: N_22  and  C_23
REMARK    7  A    between atoms: N_22  and  C_24
REMARK                            x       y       z     vdW  Elec       q    Type
REMARK                         _______ _______ _______ _____ _____    ______ ____
ROOT
ATOM      1  C   UNL     1       0.936   9.615  19.271  0.00  0.00    +0.000 A 
ATOM      2  C   UNL     1       1.438   9.843  20.555  0.00  0.00    +0.000 A 
ATOM      3  C   UNL     1       0.711  10.608  21.456  0.00  0.00    +0.000 A 
ATOM      4  C   UNL     1      -0.525  11.154  21.082  0.00  0.00    +0.000 A 
ATOM      5  C   UNL     1      -1.069  10.941  19.804  0.00  0.00    +0.000 A 
ATOM      6  C   UNL     1      -2.314  11.497  19.413  0.00  0.00    +0.000 A 
ATOM      7  C   UNL     1      -2.872  11.256  18.109  0.00  0.00    +0.000 A 
ATOM      8  C   UNL     1      -4.113  11.746  17.605  0.00  0.00    +0.000 A 
ATOM      9  C   UNL     1      -4.578  11.460  16.318  0.00  0.00    +0.000 A 
ATOM     10  C   UNL     1      -3.824  10.661  15.478  0.00  0.00    +0.000 A 
ATOM     11  C   UNL     1      -2.609  10.160  15.929  0.00  0.00    +0.000 A 
ATOM     12  C   UNL     1      -2.129  10.449  17.222  0.00  0.00    +0.000 A 
ATOM     13  C   UNL     1      -0.893   9.922  17.615  0.00  0.00    +0.000 A 
ATOM     14  C   UNL     1      -0.330  10.149  18.885  0.00  0.00    +0.000 A 
ATOM     15  C   UNL     1      -3.013  12.379  20.405  0.00  0.00    +0.000 C 
ATOM     16  O   UNL     1      -4.001  13.035  20.082  0.00  0.00    +0.000 OA
ATOM     17  N   UNL     1      -2.474  12.490  21.688  0.00  0.00    +0.000 N 
ATOM     18  C   UNL     1      -1.245  11.977  22.077  0.00  0.00    +0.000 C 
ATOM     19  O   UNL     1      -0.715  12.199  23.160  0.00  0.00    +0.000 OA
ENDROOT
BRANCH   1  21
ATOM     20  C   UNL     1       2.365   7.269  19.349  0.00  0.00    +0.000 C 
ATOM     21  S   UNL     1       1.962   8.604  18.191  0.00  0.00    +0.000 S 
ENDBRANCH   1  21
BRANCH  17  22
ATOM     22  C   UNL     1      -3.169  13.385  22.618  0.00  0.00    +0.000 C 
BRANCH  22  23
ATOM     23  C   UNL     1      -2.677  14.851  22.586  0.00  0.00    +0.000 C 
BRANCH  23  24
ATOM     24  N   UNL     1      -2.416  15.483  23.898  0.00  0.00    +0.000 NA
ATOM     25  C   UNL     1      -3.000  14.712  24.998  0.00  0.00    +0.000 C 
ATOM     26  C   UNL     1      -0.965  15.596  24.092  0.00  0.00    +0.000 C 
ENDBRANCH  23  24
ENDBRANCH  22  23
ENDBRANCH  17  22
TORSDOF 4
ENDMDL
MODEL 6
REMARK VINA RESULT:      -6.2      1.808      4.391
REMARK  Name = 
REMARK  7 active torsions:
REMARK  status: ('A' for Active; 'I' for Inactive)
REMARK    1  A    between atoms: C_1  and  S_2
REMARK    2  A    between atoms: S_2  and  C_3
REMARK    3  A    between atoms: N_19  and  C_20
REMARK    4  A    between atoms: C_20  and  C_21
REMARK    5  A    between atoms: C_21  and  N_22
REMARK    6  A    between atoms: N_22  and  C_23
REMARK    7  A    between atoms: N_22  and  C_24
REMARK                            x       y       z     vdW  Elec       q    Type
REMARK                         _______ _______ _______ _____ _____    ______ ____
ROOT
ATOM      1  C   UNL     1       3.129   3.045  19.931  0.00  0.00    +0.000 A 
ATOM      2  C   UNL     1       2.266   3.494  20.934  0.00  0.00    +0.000 A 
ATOM      3  C   UNL     1       1.831   4.812  20.934  0.00  0.00    +0.000 A 
ATOM      4  C   UNL     1       2.256   5.694  19.930  0.00  0.00    +0.000 A 
ATOM      5  C   UNL     1       3.115   5.280  18.899  0.00  0.00    +0.000 A 
ATOM      6  C   UNL     1       3.558   6.169  17.885  0.00  0.00    +0.000 A 
ATOM      7  C   UNL     1       4.421   5.729  16.821  0.00  0.00    +0.000 A 
ATOM      8  C   UNL     1       4.922   6.518  15.744  0.00  0.00    +0.000 A 
ATOM      9  C   UNL     1       5.761   6.005  14.750  0.00  0.00    +0.000 A 
ATOM     10  C   UNL     1       6.131   4.673  14.785  0.00  0.00    +0.000 A 
ATOM     11  C   UNL     1       5.664   3.867  15.817  0.00  0.00    +0.000 A 
ATOM     12  C   UNL     1       4.824   4.377  16.826  0.00  0.00    +0.000 A 
ATOM     13  C   UNL     1       4.395   3.517  17.843  0.00  0.00    +0.000 A 
ATOM     14  C   UNL     1       3.551   3.929  18.893  0.00  0.00    +0.000 A 
ATOM     15  C   UNL     1       3.116   7.598  17.985  0.00  0.00    +0.000 C 
ATOM     16  O   UNL     1       3.595   8.461  17.252  0.00  0.00    +0.000 OA
ATOM     17  N   UNL     1       2.196   7.940  18.978  0.00  0.00    +0.000 N 
ATOM     18  C   UNL     1       1.776   7.091  19.992  0.00  0.00    +0.000 C 
ATOM     19  O   UNL     1       1.080   7.439  20.941  0.00  0.00    +0.000 OA
ENDROOT
BRANCH   1  21
ATOM     20  C   UNL     1       5.178   1.515  20.936  0.00  0.00    +0.000 C 
ATOM     21  S   UNL     1       3.621   1.316  20.029  0.00  0.00    +0.000 S 
ENDBRANCH   1  21
BRANCH  17  22
ATOM     22  C   UNL     1       1.813   9.352  19.062  0.00  0.00    +0.000 C 
BRANCH  22  23
ATOM     23  C   UNL     1       0.545   9.723  18.258  0.00  0.00    +0.000 C 
BRANCH  23  24
ATOM     24  N   UNL     1      -0.297  10.800  18.823  0.00  0.00    +0.000 NA
ATOM     25  C   UNL     1      -1.588  10.895  18.137  0.00  0.00    +0.000 C 
ATOM     26  C   UNL     1      -0.516  10.535  20.250  0.00  0.00    +0.000 C 
ENDBRANCH  23  24
ENDBRANCH  22  23
ENDBRANCH  17  22
TORSDOF 4
ENDMDL
MODEL 7
REMARK VINA RESULT:      -6.2      4.340      7.827
REMARK  Name = 
REMARK  7 active torsions:
REMARK  status: ('A' for Active; 'I' for Inactive)
REMARK    1  A    between atoms: C_1  and  S_2
REMARK    2  A    between atoms: S_2  and  C_3
REMARK    3  A    between atoms: N_19  and  C_20
REMARK    4  A    between atoms: C_20  and  C_21
REMARK    5  A    between atoms: C_21  and  N_22
REMARK    6  A    between atoms: N_22  and  C_23
REMARK    7  A    between atoms: N_22  and  C_24
REMARK                            x       y       z     vdW  Elec       q    Type
REMARK                         _______ _______ _______ _____ _____    ______ ____
ROOT
ATOM      1  C   UNL     1       0.966   9.559  19.225  0.00  0.00    +0.000 A 
ATOM      2  C   UNL     1       1.477   9.779  20.506  0.00  0.00    +0.000 A 
ATOM      3  C   UNL     1       0.761  10.546  21.415  0.00  0.00    +0.000 A 
ATOM      4  C   UNL     1      -0.474  11.100  21.050  0.00  0.00    +0.000 A 
ATOM      5  C   UNL     1      -1.028  10.895  19.775  0.00  0.00    +0.000 A 
ATOM      6  C   UNL     1      -2.272  11.461  19.394  0.00  0.00    +0.000 A 
ATOM      7  C   UNL     1      -2.839  11.228  18.093  0.00  0.00    +0.000 A 
ATOM      8  C   UNL     1      -4.080  11.727  17.598  0.00  0.00    +0.000 A 
ATOM      9  C   UNL     1      -4.555  11.449  16.313  0.00  0.00    +0.000 A 
ATOM     10  C   UNL     1      -3.812  10.648  15.465  0.00  0.00    +0.000 A 
ATOM     11  C   UNL     1      -2.597  10.138  15.908  0.00  0.00    +0.000 A 
ATOM     12  C   UNL     1      -2.107  10.419  17.198  0.00  0.00    +0.000 A 
ATOM     13  C   UNL     1      -0.872   9.883  17.581  0.00  0.00    +0.000 A 
ATOM     14  C   UNL     1      -0.300  10.102  18.849  0.00  0.00    +0.000 A 
ATOM     15  C   UNL     1      -2.958  12.344  20.393  0.00  0.00    +0.000 C 
ATOM     16  O   UNL     1      -3.944  13.007  20.078  0.00  0.00    +0.000 OA
ATOM     17  N   UNL     1      -2.411  12.447  21.673  0.00  0.00    +0.000 N 
ATOM     18  C   UNL     1      -1.183  11.925  22.052  0.00  0.00    +0.000 C 
ATOM     19  O   UNL     1      -0.644  12.140  23.133  0.00  0.00    +0.000 OA
ENDROOT
BRANCH   1  21
ATOM     20  C   UNL     1       2.386   7.207  19.288  0.00  0.00    +0.000 C 
ATOM     21  S   UNL     1       1.978   8.545  18.135  0.00  0.00    +0.000 S 
ENDBRANCH   1  21
BRANCH  17  22
ATOM     22  C   UNL     1      -3.094  13.343  22.611  0.00  0.00    +0.000 C 
BRANCH  22  23
ATOM     23  C   UNL     1      -2.669  14.827  22.507  0.00  0.00    +0.000 C 
BRANCH  23  24
ATOM     24  N   UNL     1      -3.763  15.816  22.395  0.00  0.00    +0.000 NA
ATOM     25  C   UNL     1      -3.787  16.452  21.076  0.00  0.00    +0.000 C 
ATOM     26  C   UNL     1      -5.043  15.140  22.639  0.00  0.00    +0.000 C 
ENDBRANCH  23  24
ENDBRANCH  22  23
ENDBRANCH  17  22
TORSDOF 4
ENDMDL
MODEL 8
REMARK VINA RESULT:      -6.2      3.088      5.710
REMARK  Name = 
REMARK  7 active torsions:
REMARK  status: ('A' for Active; 'I' for Inactive)
REMARK    1  A    between atoms: C_1  and  S_2
REMARK    2  A    between atoms: S_2  and  C_3
REMARK    3  A    between atoms: N_19  and  C_20
REMARK    4  A    between atoms: C_20  and  C_21
REMARK    5  A    between atoms: C_21  and  N_22
REMARK    6  A    between atoms: N_22  and  C_23
REMARK    7  A    between atoms: N_22  and  C_24
REMARK                            x       y       z     vdW  Elec       q    Type
REMARK                         _______ _______ _______ _____ _____    ______ ____
ROOT
ATOM      1  C   UNL     1       1.489   8.115  19.925  0.00  0.00    +0.000 A 
ATOM      2  C   UNL     1       1.897   9.023  18.945  0.00  0.00    +0.000 A 
ATOM      3  C   UNL     1       2.721   8.601  17.911  0.00  0.00    +0.000 A 
ATOM      4  C   UNL     1       3.146   7.266  17.848  0.00  0.00    +0.000 A 
ATOM      5  C   UNL     1       2.751   6.320  18.809  0.00  0.00    +0.000 A 
ATOM      6  C   UNL     1       3.184   4.970  18.758  0.00  0.00    +0.000 A 
ATOM      7  C   UNL     1       2.756   4.004  19.735  0.00  0.00    +0.000 A 
ATOM      8  C   UNL     1       3.110   2.623  19.785  0.00  0.00    +0.000 A 
ATOM      9  C   UNL     1       2.646   1.754  20.777  0.00  0.00    +0.000 A 
ATOM     10  C   UNL     1       1.798   2.226  21.761  0.00  0.00    +0.000 A 
ATOM     11  C   UNL     1       1.425   3.565  21.749  0.00  0.00    +0.000 A 
ATOM     12  C   UNL     1       1.893   4.450  20.758  0.00  0.00    +0.000 A 
ATOM     13  C   UNL     1       1.490   5.789  20.806  0.00  0.00    +0.000 A 
ATOM     14  C   UNL     1       1.899   6.749  19.860  0.00  0.00    +0.000 A 
ATOM     15  C   UNL     1       4.136   4.596  17.661  0.00  0.00    +0.000 C 
ATOM     16  O   UNL     1       4.690   3.499  17.653  0.00  0.00    +0.000 OA
ATOM     17  N   UNL     1       4.430   5.549  16.685  0.00  0.00    +0.000 N 
ATOM     18  C   UNL     1       4.039   6.879  16.735  0.00  0.00    +0.000 C 
ATOM     19  O   UNL     1       4.419   7.742  15.951  0.00  0.00    +0.000 OA
ENDROOT
BRANCH   1  21
ATOM     20  C   UNL     1      -0.311  10.158  20.298  0.00  0.00    +0.000 C 
ATOM     21  S   UNL     1       0.417   8.773  21.213  0.00  0.00    +0.000 S 
ENDBRANCH   1  21
BRANCH  17  22
ATOM     22  C   UNL     1       5.388   5.155  15.648  0.00  0.00    +0.000 C 
BRANCH  22  23
ATOM     23  C   UNL     1       6.872   5.360  16.033  0.00  0.00    +0.000 C 
BRANCH  23  24
ATOM     24  N   UNL     1       7.138   5.737  17.438  0.00  0.00    +0.000 NA
ATOM     25  C   UNL     1       8.003   4.764  18.108  0.00  0.00    +0.000 C 
ATOM     26  C   UNL     1       7.772   7.061  17.466  0.00  0.00    +0.000 C 
ENDBRANCH  23  24
ENDBRANCH  22  23
ENDBRANCH  17  22
TORSDOF 4
ENDMDL
MODEL 9
REMARK VINA RESULT:      -6.1      7.696      9.516
REMARK  Name = 
REMARK  7 active torsions:
REMARK  status: ('A' for Active; 'I' for Inactive)
REMARK    1  A    between atoms: C_1  and  S_2
REMARK    2  A    between atoms: S_2  and  C_3
REMARK    3  A    between atoms: N_19  and  C_20
REMARK    4  A    between atoms: C_20  and  C_21
REMARK    5  A    between atoms: C_21  and  N_22
REMARK    6  A    between atoms: N_22  and  C_23
REMARK    7  A    between atoms: N_22  and  C_24
REMARK                            x       y       z     vdW  Elec       q    Type
REMARK                         _______ _______ _______ _____ _____    ______ ____
ROOT
ATOM      1  C   UNL     1      -0.515  12.082  20.563  0.00  0.00    +0.000 A 
ATOM      2  C   UNL     1      -0.816  12.763  21.745  0.00  0.00    +0.000 A 
ATOM      3  C   UNL     1      -2.110  13.212  21.974  0.00  0.00    +0.000 A 
ATOM      4  C   UNL     1      -3.114  12.984  21.023  0.00  0.00    +0.000 A 
ATOM      5  C   UNL     1      -2.854  12.296  19.826  0.00  0.00    +0.000 A 
ATOM      6  C   UNL     1      -3.862  12.070  18.853  0.00  0.00    +0.000 A 
ATOM      7  C   UNL     1      -3.590  11.346  17.640  0.00  0.00    +0.000 A 
ATOM      8  C   UNL     1      -4.515  11.045  16.597  0.00  0.00    +0.000 A 
ATOM      9  C   UNL     1      -4.161  10.333  15.447  0.00  0.00    +0.000 A 
ATOM     10  C   UNL     1      -2.863   9.881  15.292  0.00  0.00    +0.000 A 
ATOM     11  C   UNL     1      -1.929  10.150  16.286  0.00  0.00    +0.000 A 
ATOM     12  C   UNL     1      -2.275  10.873  17.444  0.00  0.00    +0.000 A 
ATOM     13  C   UNL     1      -1.287  11.120  18.404  0.00  0.00    +0.000 A 
ATOM     14  C   UNL     1      -1.533  11.827  19.596  0.00  0.00    +0.000 A 
ATOM     15  C   UNL     1      -5.219  12.648  19.124  0.00  0.00    +0.000 C 
ATOM     16  O   UNL     1      -6.090  12.648  18.258  0.00  0.00    +0.000 OA
ATOM     17  N   UNL     1      -5.448  13.249  20.363  0.00  0.00    +0.000 N 
ATOM     18  C   UNL     1      -4.468  13.502  21.312  0.00  0.00    +0.000 C 
ATOM     19  O   UNL     1      -4.648  14.156  22.334  0.00  0.00    +0.000 OA
ENDROOT
BRANCH   1  21
ATOM     20  C   UNL     1       1.995  13.165  20.272  0.00  0.00    +0.000 C 
ATOM     21  S   UNL     1       1.193  11.543  20.377  0.00  0.00    +0.000 S 
ENDBRANCH   1  21
BRANCH  17  22
ATOM     22  C   UNL     1      -6.777  13.828  20.578  0.00  0.00    +0.000 C 
BRANCH  22  23
ATOM     23  C   UNL     1      -7.862  12.810  21.000  0.00  0.00    +0.000 C 
BRANCH  23  24
ATOM     24  N   UNL     1      -7.413  11.695  21.861  0.00  0.00    +0.000 NA
ATOM     25  C   UNL     1      -7.883  11.850  23.240  0.00  0.00    +0.000 C 
ATOM     26  C   UNL     1      -7.916  10.432  21.309  0.00  0.00    +0.000 C 
ENDBRANCH  23  24
ENDBRANCH  22  23
ENDBRANCH  17  22
TORSDOF 4
ENDMDL
