MODEL 1
REMARK VINA RESULT:      -7.8      0.000      0.000
REMARK  Name = 
REMARK  9 active torsions:
REMARK  status: ('A' for Active; 'I' for Inactive)
REMARK    1  A    between atoms: C_1  and  C_2
REMARK    2  A    between atoms: C_2  and  C_3
REMARK    3  A    between atoms: C_2  and  C_4
REMARK    4  A    between atoms: C_2  and  C_5
REMARK    5  A    between atoms: C_8  and  N_9
REMARK    6  A    between atoms: C_10  and  C_12
REMARK    7  A    between atoms: C_16  and  C_17
REMARK    8  A    between atoms: C_17  and  C_18
REMARK    9  A    between atoms: C_18  and  C_19
REMARK                            x       y       z     vdW  Elec       q    Type
REMARK                         _______ _______ _______ _____ _____    ______ ____
ROOT
ATOM      1  N   UNL     1       3.553   6.796  17.682  0.00  0.00    +0.000 N 
ATOM      2  C   UNL     1       4.495   5.933  18.270  0.00  0.00    +0.000 C 
ATOM      3  O   UNL     1       4.659   5.800  19.466  0.00  0.00    +0.000 OA
ATOM      4  H   UNL     1       3.457   6.763  16.677  0.00  0.00    +0.000 HD
ENDROOT
BRANCH   1   8
ATOM      5  C   UNL     1       0.978   9.423  19.827  0.00  0.00    +0.000 A 
ATOM      6  C   UNL     1       1.438   8.220  20.389  0.00  0.00    +0.000 A 
ATOM      7  C   UNL     1       2.281   7.358  19.684  0.00  0.00    +0.000 A 
ATOM      8  C   UNL     1       2.692   7.655  18.393  0.00  0.00    +0.000 A 
ATOM      9  C   UNL     1       2.233   8.840  17.809  0.00  0.00    +0.000 A 
ATOM     10  C   UNL     1       1.374   9.694  18.513  0.00  0.00    +0.000 A 
BRANCH   5  12
ATOM     11  C   UNL     1       0.903  11.676  20.965  0.00  0.00    +0.000 C 
ATOM     12  C   UNL     1       0.091  10.421  20.590  0.00  0.00    +0.000 C 
ATOM     13  C   UNL     1      -0.470   9.794  21.888  0.00  0.00    +0.000 C 
ATOM     14  C   UNL     1      -1.135  10.854  19.749  0.00  0.00    +0.000 C 
ENDBRANCH   5  12
ENDBRANCH   1   8
BRANCH   2  15
ATOM     15  C   UNL     1       5.245   5.125  17.311  0.00  0.00    +0.000 A 
ATOM     16  S   UNL     1       6.804   5.614  16.791  0.00  0.00    +0.000 S 
ATOM     17  C   UNL     1       6.848   4.296  15.720  0.00  0.00    +0.000 A 
ATOM     18  N   UNL     1       5.815   3.489  15.746  0.00  0.00    +0.000 NA
ATOM     19  C   UNL     1       4.870   3.955  16.655  0.00  0.00    +0.000 A 
BRANCH  19  20
ATOM     20  C   UNL     1       3.550   3.241  16.747  0.00  0.00    +0.000 C 
BRANCH  20  21
ATOM     21  C   UNL     1       3.482   2.187  17.855  0.00  0.00    +0.000 C 
BRANCH  21  22
ATOM     22  C   UNL     1       2.732   2.712  19.055  0.00  0.00    +0.000 A 
ATOM     23  C   UNL     1       1.532   3.413  18.900  0.00  0.00    +0.000 A 
ATOM     24  C   UNL     1       0.904   3.909  20.031  0.00  0.00    +0.000 A 
ATOM     25  N   UNL     1       1.383   3.759  21.285  0.00  0.00    +0.000 NA
ATOM     26  C   UNL     1       2.542   3.078  21.411  0.00  0.00    +0.000 A 
ATOM     27  C   UNL     1       3.246   2.545  20.343  0.00  0.00    +0.000 A 
ENDBRANCH  21  22
ENDBRANCH  20  21
ENDBRANCH  19  20
ENDBRANCH   2  15
TORSDOF 6
ENDMDL
MODEL 2
REMARK VINA RESULT:      -7.8      0.152      1.569
REMARK  Name = 
REMARK  9 active torsions:
REMARK  status: ('A' for Active; 'I' for Inactive)
REMARK    1  A    between atoms: C_1  and  C_2
REMARK    2  A    between atoms: C_2  and  C_3
REMARK    3  A    between atoms: C_2  and  C_4
REMARK    4  A    between atoms: C_2  and  C_5
REMARK    5  A    between atoms: C_8  and  N_9
REMARK    6  A    between atoms: C_10  and  C_12
REMARK    7  A    between atoms: C_16  and  C_17
REMARK    8  A    between atoms: C_17  and  C_18
REMARK    9  A    between atoms: C_18  and  C_19
REMARK                            x       y       z     vdW  Elec       q    Type
REMARK                         _______ _______ _______ _____ _____    ______ ____
ROOT
ATOM      1  N   UNL     1       3.589   6.722  17.640  0.00  0.00    +0.000 N 
ATOM      2  C   UNL     1       4.573   5.892  18.206  0.00  0.00    +0.000 C 
ATOM      3  O   UNL     1       4.794   5.794  19.396  0.00  0.00    +0.000 OA
ATOM      4  H   UNL     1       3.447   6.660  16.642  0.00  0.00    +0.000 HD
ENDROOT
BRANCH   1   8
ATOM      5  C   UNL     1       1.011   9.299  19.842  0.00  0.00    +0.000 A 
ATOM      6  C   UNL     1       1.470   9.637  18.557  0.00  0.00    +0.000 A 
ATOM      7  C   UNL     1       2.317   8.792  17.837  0.00  0.00    +0.000 A 
ATOM      8  C   UNL     1       2.745   7.585  18.368  0.00  0.00    +0.000 A 
ATOM      9  C   UNL     1       2.313   7.235  19.651  0.00  0.00    +0.000 A 
ATOM     10  C   UNL     1       1.477   8.093  20.378  0.00  0.00    +0.000 A 
BRANCH   5  12
ATOM     11  C   UNL     1      -0.446   9.428  21.900  0.00  0.00    +0.000 C 
ATOM     12  C   UNL     1       0.038  10.178  20.645  0.00  0.00    +0.000 C 
ATOM     13  C   UNL     1      -1.196  10.565  19.798  0.00  0.00    +0.000 C 
ATOM     14  C   UNL     1       0.700  11.508  21.083  0.00  0.00    +0.000 C 
ENDBRANCH   5  12
ENDBRANCH   1   8
BRANCH   2  15
ATOM     15  C   UNL     1       5.293   5.071  17.234  0.00  0.00    +0.000 A 
ATOM     16  S   UNL     1       6.846   5.539  16.681  0.00  0.00    +0.000 S 
ATOM     17  C   UNL     1       6.852   4.217  15.614  0.00  0.00    +0.000 A 
ATOM     18  N   UNL     1       5.810   3.423  15.664  0.00  0.00    +0.000 NA
ATOM     19  C   UNL     1       4.890   3.904  16.590  0.00  0.00    +0.000 A 
BRANCH  19  20
ATOM     20  C   UNL     1       3.564   3.206  16.712  0.00  0.00    +0.000 C 
BRANCH  20  21
ATOM     21  C   UNL     1       3.501   2.167  17.835  0.00  0.00    +0.000 C 
BRANCH  21  22
ATOM     22  C   UNL     1       2.785   2.720  19.044  0.00  0.00    +0.000 A 
ATOM     23  C   UNL     1       3.304   2.540  20.329  0.00  0.00    +0.000 A 
ATOM     24  C   UNL     1       2.586   3.031  21.408  0.00  0.00    +0.000 A 
ATOM     25  N   UNL     1       1.405   3.676  21.295  0.00  0.00    +0.000 NA
ATOM     26  C   UNL     1       0.923   3.839  20.044  0.00  0.00    +0.000 A 
ATOM     27  C   UNL     1       1.564   3.384  18.904  0.00  0.00    +0.000 A 
ENDBRANCH  21  22
ENDBRANCH  20  21
ENDBRANCH  19  20
ENDBRANCH   2  15
TORSDOF 6
ENDMDL
MODEL 3
REMARK VINA RESULT:      -7.6      0.788      1.176
REMARK  Name = 
REMARK  9 active torsions:
REMARK  status: ('A' for Active; 'I' for Inactive)
REMARK    1  A    between atoms: C_1  and  C_2
REMARK    2  A    between atoms: C_2  and  C_3
REMARK    3  A    between atoms: C_2  and  C_4
REMARK    4  A    between atoms: C_2  and  C_5
REMARK    5  A    between atoms: C_8  and  N_9
REMARK    6  A    between atoms: C_10  and  C_12
REMARK    7  A    between atoms: C_16  and  C_17
REMARK    8  A    between atoms: C_17  and  C_18
REMARK    9  A    between atoms: C_18  and  C_19
REMARK                            x       y       z     vdW  Elec       q    Type
REMARK                         _______ _______ _______ _____ _____    ______ ____
ROOT
ATOM      1  N   UNL     1       3.175   7.203  17.948  0.00  0.00    +0.000 N 
ATOM      2  C   UNL     1       3.756   6.082  18.567  0.00  0.00    +0.000 C 
ATOM      3  O   UNL     1       3.582   5.765  19.727  0.00  0.00    +0.000 OA
ATOM      4  H   UNL     1       3.333   7.320  16.958  0.00  0.00    +0.000 HD
ENDROOT
BRANCH   1   8
ATOM      5  C   UNL     1       0.680  10.057  19.888  0.00  0.00    +0.000 A 
ATOM      6  C   UNL     1       1.075   8.868  20.526  0.00  0.00    +0.000 A 
ATOM      7  C   UNL     1       1.892   7.932  19.888  0.00  0.00    +0.000 A 
ATOM      8  C   UNL     1       2.340   8.138  18.592  0.00  0.00    +0.000 A 
ATOM      9  C   UNL     1       1.946   9.306  17.933  0.00  0.00    +0.000 A 
ATOM     10  C   UNL     1       1.113  10.236  18.569  0.00  0.00    +0.000 A 
BRANCH   5  12
ATOM     11  C   UNL     1       0.645  12.426  20.762  0.00  0.00    +0.000 C 
ATOM     12  C   UNL     1      -0.175  11.135  20.575  0.00  0.00    +0.000 C 
ATOM     13  C   UNL     1      -0.666  10.660  21.962  0.00  0.00    +0.000 C 
ATOM     14  C   UNL     1      -1.445  11.465  19.752  0.00  0.00    +0.000 C 
ENDBRANCH   5  12
ENDBRANCH   1   8
BRANCH   2  15
ATOM     15  C   UNL     1       4.559   5.253  17.671  0.00  0.00    +0.000 A 
ATOM     16  S   UNL     1       6.187   5.665  17.327  0.00  0.00    +0.000 S 
ATOM     17  C   UNL     1       6.273   4.369  16.233  0.00  0.00    +0.000 A 
ATOM     18  N   UNL     1       5.202   3.619  16.132  0.00  0.00    +0.000 NA
ATOM     19  C   UNL     1       4.193   4.118  16.950  0.00  0.00    +0.000 A 
BRANCH  19  20
ATOM     20  C   UNL     1       2.835   3.476  16.887  0.00  0.00    +0.000 C 
BRANCH  20  21
ATOM     21  C   UNL     1       2.715   2.182  17.696  0.00  0.00    +0.000 C 
BRANCH  21  22
ATOM     22  C   UNL     1       2.447   2.476  19.152  0.00  0.00    +0.000 A 
ATOM     23  C   UNL     1       3.445   2.300  20.114  0.00  0.00    +0.000 A 
ATOM     24  C   UNL     1       3.134   2.545  21.443  0.00  0.00    +0.000 A 
ATOM     25  N   UNL     1       1.917   2.945  21.869  0.00  0.00    +0.000 NA
ATOM     26  C   UNL     1       0.969   3.110  20.923  0.00  0.00    +0.000 A 
ATOM     27  C   UNL     1       1.180   2.889  19.571  0.00  0.00    +0.000 A 
ENDBRANCH  21  22
ENDBRANCH  20  21
ENDBRANCH  19  20
ENDBRANCH   2  15
TORSDOF 6
ENDMDL
MODEL 4
REMARK VINA RESULT:      -7.4      5.018      6.013
REMARK  Name = 
REMARK  9 active torsions:
REMARK  status: ('A' for Active; 'I' for Inactive)
REMARK    1  A    between atoms: C_1  and  C_2
REMARK    2  A    between atoms: C_2  and  C_3
REMARK    3  A    between atoms: C_2  and  C_4
REMARK    4  A    between atoms: C_2  and  C_5
REMARK    5  A    between atoms: C_8  and  N_9
REMARK    6  A    between atoms: C_10  and  C_12
REMARK    7  A    between atoms: C_16  and  C_17
REMARK    8  A    between atoms: C_17  and  C_18
REMARK    9  A    between atoms: C_18  and  C_19
REMARK                            x       y       z     vdW  Elec       q    Type
REMARK                         _______ _______ _______ _____ _____    ______ ____
ROOT
ATOM      1  N   UNL     1       7.445   8.177  17.363  0.00  0.00    +0.000 N 
ATOM      2  C   UNL     1       7.456   6.857  17.848  0.00  0.00    +0.000 C 
ATOM      3  O   UNL     1       8.056   6.490  18.839  0.00  0.00    +0.000 OA
ATOM      4  H   UNL     1       6.847   8.376  16.574  0.00  0.00    +0.000 HD
ENDROOT
BRANCH   1   8
ATOM      5  C   UNL     1       9.607  11.434  19.051  0.00  0.00    +0.000 A 
ATOM      6  C   UNL     1       9.657  10.146  19.612  0.00  0.00    +0.000 A 
ATOM      7  C   UNL     1       8.945   9.079  19.059  0.00  0.00    +0.000 A 
ATOM      8  C   UNL     1       8.154   9.253  17.933  0.00  0.00    +0.000 A 
ATOM      9  C   UNL     1       8.077  10.530  17.368  0.00  0.00    +0.000 A 
ATOM     10  C   UNL     1       8.779  11.602  17.936  0.00  0.00    +0.000 A 
BRANCH   5  12
ATOM     11  C   UNL     1       9.741  13.184  20.866  0.00  0.00    +0.000 C 
ATOM     12  C   UNL     1      10.416  12.621  19.601  0.00  0.00    +0.000 C 
ATOM     13  C   UNL     1      10.525  13.756  18.557  0.00  0.00    +0.000 C 
ATOM     14  C   UNL     1      11.867  12.209  19.952  0.00  0.00    +0.000 C 
ENDBRANCH   5  12
ENDBRANCH   1   8
BRANCH   2  15
ATOM     15  C   UNL     1       6.612   5.935  17.092  0.00  0.00    +0.000 A 
ATOM     16  S   UNL     1       7.220   5.139  15.700  0.00  0.00    +0.000 S 
ATOM     17  C   UNL     1       5.689   4.453  15.437  0.00  0.00    +0.000 A 
ATOM     18  N   UNL     1       4.766   4.728  16.326  0.00  0.00    +0.000 NA
ATOM     19  C   UNL     1       5.276   5.593  17.290  0.00  0.00    +0.000 A 
BRANCH  19  20
ATOM     20  C   UNL     1       4.342   6.134  18.336  0.00  0.00    +0.000 C 
BRANCH  20  21
ATOM     21  C   UNL     1       2.862   6.069  17.949  0.00  0.00    +0.000 C 
BRANCH  21  22
ATOM     22  C   UNL     1       2.165   4.937  18.665  0.00  0.00    +0.000 A 
ATOM     23  C   UNL     1       1.684   3.832  17.959  0.00  0.00    +0.000 A 
ATOM     24  C   UNL     1       1.015   2.839  18.658  0.00  0.00    +0.000 A 
ATOM     25  N   UNL     1       0.796   2.875  19.990  0.00  0.00    +0.000 NA
ATOM     26  C   UNL     1       1.271   3.951  20.652  0.00  0.00    +0.000 A 
ATOM     27  C   UNL     1       1.949   4.995  20.044  0.00  0.00    +0.000 A 
ENDBRANCH  21  22
ENDBRANCH  20  21
ENDBRANCH  19  20
ENDBRANCH   2  15
TORSDOF 6
ENDMDL
MODEL 5
REMARK VINA RESULT:      -7.4      0.561      1.001
REMARK  Name = 
REMARK  9 active torsions:
REMARK  status: ('A' for Active; 'I' for Inactive)
REMARK    1  A    between atoms: C_1  and  C_2
REMARK    2  A    between atoms: C_2  and  C_3
REMARK    3  A    between atoms: C_2  and  C_4
REMARK    4  A    between atoms: C_2  and  C_5
REMARK    5  A    between atoms: C_8  and  N_9
REMARK    6  A    between atoms: C_10  and  C_12
REMARK    7  A    between atoms: C_16  and  C_17
REMARK    8  A    between atoms: C_17  and  C_18
REMARK    9  A    between atoms: C_18  and  C_19
REMARK                            x       y       z     vdW  Elec       q    Type
REMARK                         _______ _______ _______ _____ _____    ______ ____
ROOT
ATOM      1  N   UNL     1       3.435   6.788  17.429  0.00  0.00    +0.000 N 
ATOM      2  C   UNL     1       4.478   5.970  17.898  0.00  0.00    +0.000 C 
ATOM      3  O   UNL     1       4.790   5.848  19.065  0.00  0.00    +0.000 OA
ATOM      4  H   UNL     1       3.220   6.748  16.443  0.00  0.00    +0.000 HD
ENDROOT
BRANCH   1   8
ATOM      5  C   UNL     1       1.022   9.302  19.877  0.00  0.00    +0.000 A 
ATOM      6  C   UNL     1       1.527   8.078  20.349  0.00  0.00    +0.000 A 
ATOM      7  C   UNL     1       2.316   7.253  19.544  0.00  0.00    +0.000 A 
ATOM      8  C   UNL     1       2.627   7.610  18.241  0.00  0.00    +0.000 A 
ATOM      9  C   UNL     1       2.122   8.816  17.746  0.00  0.00    +0.000 A 
ATOM     10  C   UNL     1       1.316   9.633  18.550  0.00  0.00    +0.000 A 
BRANCH   5  12
ATOM     11  C   UNL     1      -0.175   9.582  22.083  0.00  0.00    +0.000 C 
ATOM     12  C   UNL     1       0.193  10.260  20.749  0.00  0.00    +0.000 C 
ATOM     13  C   UNL     1      -1.113  10.679  20.035  0.00  0.00    +0.000 C 
ATOM     14  C   UNL     1       0.964  11.569  21.050  0.00  0.00    +0.000 C 
ENDBRANCH   5  12
ENDBRANCH   1   8
BRANCH   2  15
ATOM     15  C   UNL     1       5.144   5.194  16.853  0.00  0.00    +0.000 A 
ATOM     16  S   UNL     1       6.046   5.979  15.625  0.00  0.00    +0.000 S 
ATOM     17  C   UNL     1       6.316   4.477  14.879  0.00  0.00    +0.000 A 
ATOM     18  N   UNL     1       5.829   3.426  15.491  0.00  0.00    +0.000 NA
ATOM     19  C   UNL     1       5.138   3.818  16.634  0.00  0.00    +0.000 A 
BRANCH  19  20
ATOM     20  C   UNL     1       4.393   2.773  17.416  0.00  0.00    +0.000 C 
BRANCH  20  21
ATOM     21  C   UNL     1       2.875   2.975  17.448  0.00  0.00    +0.000 C 
BRANCH  21  22
ATOM     22  C   UNL     1       2.378   3.115  18.867  0.00  0.00    +0.000 A 
ATOM     23  C   UNL     1       1.225   3.850  19.153  0.00  0.00    +0.000 A 
ATOM     24  C   UNL     1       0.835   3.982  20.477  0.00  0.00    +0.000 A 
ATOM     25  N   UNL     1       1.507   3.440  21.516  0.00  0.00    +0.000 NA
ATOM     26  C   UNL     1       2.616   2.733  21.216  0.00  0.00    +0.000 A 
ATOM     27  C   UNL     1       3.089   2.546  19.927  0.00  0.00    +0.000 A 
ENDBRANCH  21  22
ENDBRANCH  20  21
ENDBRANCH  19  20
ENDBRANCH   2  15
TORSDOF 6
ENDMDL
MODEL 6
REMARK VINA RESULT:      -7.4      0.900      1.282
REMARK  Name = 
REMARK  9 active torsions:
REMARK  status: ('A' for Active; 'I' for Inactive)
REMARK    1  A    between atoms: C_1  and  C_2
REMARK    2  A    between atoms: C_2  and  C_3
REMARK    3  A    between atoms: C_2  and  C_4
REMARK    4  A    between atoms: C_2  and  C_5
REMARK    5  A    between atoms: C_8  and  N_9
REMARK    6  A    between atoms: C_10  and  C_12
REMARK    7  A    between atoms: C_16  and  C_17
REMARK    8  A    between atoms: C_17  and  C_18
REMARK    9  A    between atoms: C_18  and  C_19
REMARK                            x       y       z     vdW  Elec       q    Type
REMARK                         _______ _______ _______ _____ _____    ______ ____
ROOT
ATOM      1  N   UNL     1       3.376   6.449  17.492  0.00  0.00    +0.000 N 
ATOM      2  C   UNL     1       4.751   6.571  17.218  0.00  0.00    +0.000 C 
ATOM      3  O   UNL     1       5.465   7.454  17.648  0.00  0.00    +0.000 OA
ATOM      4  H   UNL     1       2.904   5.628  17.141  0.00  0.00    +0.000 HD
ENDROOT
BRANCH   1   8
ATOM      5  C   UNL     1       1.136   9.208  19.837  0.00  0.00    +0.000 A 
ATOM      6  C   UNL     1       1.627   8.008  20.379  0.00  0.00    +0.000 A 
ATOM      7  C   UNL     1       2.360   7.103  19.608  0.00  0.00    +0.000 A 
ATOM      8  C   UNL     1       2.626   7.352  18.270  0.00  0.00    +0.000 A 
ATOM      9  C   UNL     1       2.133   8.533  17.706  0.00  0.00    +0.000 A 
ATOM     10  C   UNL     1       1.384   9.431  18.478  0.00  0.00    +0.000 A 
BRANCH   5  12
ATOM     11  C   UNL     1      -0.993  10.554  20.013  0.00  0.00    +0.000 C 
ATOM     12  C   UNL     1       0.369  10.253  20.666  0.00  0.00    +0.000 C 
ATOM     13  C   UNL     1       1.164  11.574  20.775  0.00  0.00    +0.000 C 
ATOM     14  C   UNL     1       0.131   9.766  22.117  0.00  0.00    +0.000 C 
ENDBRANCH   5  12
ENDBRANCH   1   8
BRANCH   2  15
ATOM     15  C   UNL     1       5.297   5.484  16.409  0.00  0.00    +0.000 A 
ATOM     16  S   UNL     1       5.924   5.794  14.844  0.00  0.00    +0.000 S 
ATOM     17  C   UNL     1       6.187   4.129  14.631  0.00  0.00    +0.000 A 
ATOM     18  N   UNL     1       5.890   3.357  15.648  0.00  0.00    +0.000 NA
ATOM     19  C   UNL     1       5.364   4.120  16.687  0.00  0.00    +0.000 A 
BRANCH  19  20
ATOM     20  C   UNL     1       4.840   3.411  17.904  0.00  0.00    +0.000 C 
BRANCH  20  21
ATOM     21  C   UNL     1       3.408   2.888  17.759  0.00  0.00    +0.000 C 
BRANCH  21  22
ATOM     22  C   UNL     1       2.684   2.921  19.083  0.00  0.00    +0.000 A 
ATOM     23  C   UNL     1       1.343   3.309  19.156  0.00  0.00    +0.000 A 
ATOM     24  C   UNL     1       0.736   3.362  20.401  0.00  0.00    +0.000 A 
ATOM     25  N   UNL     1       1.365   3.061  21.558  0.00  0.00    +0.000 NA
ATOM     26  C   UNL     1       2.659   2.687  21.463  0.00  0.00    +0.000 A 
ATOM     27  C   UNL     1       3.354   2.605  20.267  0.00  0.00    +0.000 A 
ENDBRANCH  21  22
ENDBRANCH  20  21
ENDBRANCH  19  20
ENDBRANCH   2  15
TORSDOF 6
ENDMDL
MODEL 7
REMARK VINA RESULT:      -7.4      2.136      4.290
REMARK  Name = 
REMARK  9 active torsions:
REMARK  status: ('A' for Active; 'I' for Inactive)
REMARK    1  A    between atoms: C_1  and  C_2
REMARK    2  A    between atoms: C_2  and  C_3
REMARK    3  A    between atoms: C_2  and  C_4
REMARK    4  A    between atoms: C_2  and  C_5
REMARK    5  A    between atoms: C_8  and  N_9
REMARK    6  A    between atoms: C_10  and  C_12
REMARK    7  A    between atoms: C_16  and  C_17
REMARK    8  A    between atoms: C_17  and  C_18
REMARK    9  A    between atoms: C_18  and  C_19
REMARK                            x       y       z     vdW  Elec       q    Type
REMARK                         _______ _______ _______ _____ _____    ______ ____
ROOT
ATOM      1  N   UNL     1       2.721   6.449  19.696  0.00  0.00    +0.000 N 
ATOM      2  C   UNL     1       2.564   5.364  18.815  0.00  0.00    +0.000 C 
ATOM      3  O   UNL     1       1.866   5.376  17.820  0.00  0.00    +0.000 OA
ATOM      4  H   UNL     1       3.389   6.344  20.446  0.00  0.00    +0.000 HD
ENDROOT
BRANCH   1   8
ATOM      5  C   UNL     1       0.703  10.181  19.331  0.00  0.00    +0.000 A 
ATOM      6  C   UNL     1       1.441   9.635  18.267  0.00  0.00    +0.000 A 
ATOM      7  C   UNL     1       2.105   8.411  18.388  0.00  0.00    +0.000 A 
ATOM      8  C   UNL     1       2.065   7.690  19.572  0.00  0.00    +0.000 A 
ATOM      9  C   UNL     1       1.350   8.222  20.649  0.00  0.00    +0.000 A 
ATOM     10  C   UNL     1       0.700   9.458  20.529  0.00  0.00    +0.000 A 
BRANCH   5  12
ATOM     11  C   UNL     1       0.844  12.630  18.734  0.00  0.00    +0.000 C 
ATOM     12  C   UNL     1      -0.082  11.499  19.220  0.00  0.00    +0.000 C 
ATOM     13  C   UNL     1      -0.685  11.909  20.583  0.00  0.00    +0.000 C 
ATOM     14  C   UNL     1      -1.272  11.372  18.237  0.00  0.00    +0.000 C 
ENDBRANCH   5  12
ENDBRANCH   1   8
BRANCH   2  15
ATOM     15  C   UNL     1       3.380   4.199  19.150  0.00  0.00    +0.000 A 
ATOM     16  S   UNL     1       2.660   2.654  19.331  0.00  0.00    +0.000 S 
ATOM     17  C   UNL     1       4.168   2.017  19.787  0.00  0.00    +0.000 A 
ATOM     18  N   UNL     1       5.181   2.849  19.773  0.00  0.00    +0.000 NA
ATOM     19  C   UNL     1       4.746   4.122  19.415  0.00  0.00    +0.000 A 
BRANCH  19  20
ATOM     20  C   UNL     1       5.731   5.256  19.460  0.00  0.00    +0.000 C 
BRANCH  20  21
ATOM     21  C   UNL     1       6.941   5.074  18.539  0.00  0.00    +0.000 C 
BRANCH  21  22
ATOM     22  C   UNL     1       6.542   5.209  17.089  0.00  0.00    +0.000 A 
ATOM     23  C   UNL     1       7.125   4.403  16.107  0.00  0.00    +0.000 A 
ATOM     24  C   UNL     1       6.754   4.597  14.786  0.00  0.00    +0.000 A 
ATOM     25  N   UNL     1       5.857   5.524  14.384  0.00  0.00    +0.000 NA
ATOM     26  C   UNL     1       5.306   6.289  15.349  0.00  0.00    +0.000 A 
ATOM     27  C   UNL     1       5.612   6.175  16.695  0.00  0.00    +0.000 A 
ENDBRANCH  21  22
ENDBRANCH  20  21
ENDBRANCH  19  20
ENDBRANCH   2  15
TORSDOF 6
ENDMDL
MODEL 8
REMARK VINA RESULT:      -7.4      0.659      1.432
REMARK  Name = 
REMARK  9 active torsions:
REMARK  status: ('A' for Active; 'I' for Inactive)
REMARK    1  A    between atoms: C_1  and  C_2
REMARK    2  A    between atoms: C_2  and  C_3
REMARK    3  A    between atoms: C_2  and  C_4
REMARK    4  A    between atoms: C_2  and  C_5
REMARK    5  A    between atoms: C_8  and  N_9
REMARK    6  A    between atoms: C_10  and  C_12
REMARK    7  A    between atoms: C_16  and  C_17
REMARK    8  A    between atoms: C_17  and  C_18
REMARK    9  A    between atoms: C_18  and  C_19
REMARK                            x       y       z     vdW  Elec       q    Type
REMARK                         _______ _______ _______ _____ _____    ______ ____
ROOT
ATOM      1  N   UNL     1       3.393   6.352  17.776  0.00  0.00    +0.000 N 
ATOM      2  C   UNL     1       4.731   6.528  17.378  0.00  0.00    +0.000 C 
ATOM      3  O   UNL     1       5.393   7.522  17.599  0.00  0.00    +0.000 OA
ATOM      4  H   UNL     1       2.972   5.451  17.603  0.00  0.00    +0.000 HD
ENDROOT
BRANCH   1   8
ATOM      5  C   UNL     1       1.031   9.233  19.838  0.00  0.00    +0.000 A 
ATOM      6  C   UNL     1       1.367   9.389  18.482  0.00  0.00    +0.000 A 
ATOM      7  C   UNL     1       2.143   8.444  17.807  0.00  0.00    +0.000 A 
ATOM      8  C   UNL     1       2.621   7.315  18.455  0.00  0.00    +0.000 A 
ATOM      9  C   UNL     1       2.312   7.148  19.809  0.00  0.00    +0.000 A 
ATOM     10  C   UNL     1       1.547   8.106  20.487  0.00  0.00    +0.000 A 
BRANCH   5  12
ATOM     11  C   UNL     1      -1.103  10.581  19.757  0.00  0.00    +0.000 C 
ATOM     12  C   UNL     1       0.136  10.225  20.601  0.00  0.00    +0.000 C 
ATOM     13  C   UNL     1       0.898  11.529  20.928  0.00  0.00    +0.000 C 
ATOM     14  C   UNL     1      -0.334   9.642  21.956  0.00  0.00    +0.000 C 
ENDBRANCH   5  12
ENDBRANCH   1   8
BRANCH   2  15
ATOM     15  C   UNL     1       5.314   5.364  16.714  0.00  0.00    +0.000 A 
ATOM     16  S   UNL     1       6.888   5.444  16.039  0.00  0.00    +0.000 S 
ATOM     17  C   UNL     1       6.701   3.864  15.445  0.00  0.00    +0.000 A 
ATOM     18  N   UNL     1       5.578   3.257  15.744  0.00  0.00    +0.000 NA
ATOM     19  C   UNL     1       4.755   4.111  16.473  0.00  0.00    +0.000 A 
BRANCH  19  20
ATOM     20  C   UNL     1       3.365   3.652  16.810  0.00  0.00    +0.000 C 
BRANCH  20  21
ATOM     21  C   UNL     1       3.313   2.428  17.729  0.00  0.00    +0.000 C 
BRANCH  21  22
ATOM     22  C   UNL     1       2.631   2.761  19.034  0.00  0.00    +0.000 A 
ATOM     23  C   UNL     1       1.392   3.407  19.051  0.00  0.00    +0.000 A 
ATOM     24  C   UNL     1       0.829   3.727  20.277  0.00  0.00    +0.000 A 
ATOM     25  N   UNL     1       1.408   3.452  21.466  0.00  0.00    +0.000 NA
ATOM     26  C   UNL     1       2.604   2.827  21.425  0.00  0.00    +0.000 A 
ATOM     27  C   UNL     1       3.249   2.468  20.253  0.00  0.00    +0.000 A 
ENDBRANCH  21  22
ENDBRANCH  20  21
ENDBRANCH  19  20
ENDBRANCH   2  15
TORSDOF 6
ENDMDL
MODEL 9
REMARK VINA RESULT:      -7.4      0.568      1.356
REMARK  Name = 
REMARK  9 active torsions:
REMARK  status: ('A' for Active; 'I' for Inactive)
REMARK    1  A    between atoms: C_1  and  C_2
REMARK    2  A    between atoms: C_2  and  C_3
REMARK    3  A    between atoms: C_2  and  C_4
REMARK    4  A    between atoms: C_2  and  C_5
REMARK    5  A    between atoms: C_8  and  N_9
REMARK    6  A    between atoms: C_10  and  C_12
REMARK    7  A    between atoms: C_16  and  C_17
REMARK    8  A    between atoms: C_17  and  C_18
REMARK    9  A    between atoms: C_18  and  C_19
REMARK                            x       y       z     vdW  Elec       q    Type
REMARK                         _______ _______ _______ _____ _____    ______ ____
ROOT
ATOM      1  N   UNL     1       3.515   6.791  17.503  0.00  0.00    +0.000 N 
ATOM      2  C   UNL     1       4.521   5.954  18.018  0.00  0.00    +0.000 C 
ATOM      3  O   UNL     1       4.773   5.820  19.198  0.00  0.00    +0.000 OA
ATOM      4  H   UNL     1       3.349   6.760  16.508  0.00  0.00    +0.000 HD
ENDROOT
BRANCH   1   8
ATOM      5  C   UNL     1       1.026   9.332  19.845  0.00  0.00    +0.000 A 
ATOM      6  C   UNL     1       1.496   8.102  20.338  0.00  0.00    +0.000 A 
ATOM      7  C   UNL     1       2.311   7.269  19.568  0.00  0.00    +0.000 A 
ATOM      8  C   UNL     1       2.682   7.622  18.279  0.00  0.00    +0.000 A 
ATOM      9  C   UNL     1       2.212   8.833  17.763  0.00  0.00    +0.000 A 
ATOM     10  C   UNL     1       1.381   9.659  18.532  0.00  0.00    +0.000 A 
BRANCH   5  12
ATOM     11  C   UNL     1      -1.087  10.713  19.891  0.00  0.00    +0.000 C 
ATOM     12  C   UNL     1       0.170  10.299  20.680  0.00  0.00    +0.000 C 
ATOM     13  C   UNL     1       0.962  11.575  21.046  0.00  0.00    +0.000 C 
ATOM     14  C   UNL     1      -0.271   9.659  22.020  0.00  0.00    +0.000 C 
ENDBRANCH   5  12
ENDBRANCH   1   8
BRANCH   2  15
ATOM     15  C   UNL     1       5.224   5.172  17.003  0.00  0.00    +0.000 A 
ATOM     16  S   UNL     1       6.307   5.933  15.913  0.00  0.00    +0.000 S 
ATOM     17  C   UNL     1       6.530   4.449  15.116  0.00  0.00    +0.000 A 
ATOM     18  N   UNL     1       5.899   3.416  15.619  0.00  0.00    +0.000 NA
ATOM     19  C   UNL     1       5.129   3.814  16.709  0.00  0.00    +0.000 A 
BRANCH  19  20
ATOM     20  C   UNL     1       4.226   2.802  17.356  0.00  0.00    +0.000 C 
BRANCH  20  21
ATOM     21  C   UNL     1       2.808   3.310  17.632  0.00  0.00    +0.000 C 
BRANCH  21  22
ATOM     22  C   UNL     1       2.461   3.178  19.095  0.00  0.00    +0.000 A 
ATOM     23  C   UNL     1       3.399   2.699  20.013  0.00  0.00    +0.000 A 
ATOM     24  C   UNL     1       3.017   2.557  21.338  0.00  0.00    +0.000 A 
ATOM     25  N   UNL     1       1.783   2.854  21.801  0.00  0.00    +0.000 NA
ATOM     26  C   UNL     1       0.894   3.317  20.896  0.00  0.00    +0.000 A 
ATOM     27  C   UNL     1       1.179   3.491  19.552  0.00  0.00    +0.000 A 
ENDBRANCH  21  22
ENDBRANCH  20  21
ENDBRANCH  19  20
ENDBRANCH   2  15
TORSDOF 6
ENDMDL
