MODEL 1
REMARK VINA RESULT:      -7.4      0.000      0.000
REMARK  Name = 
REMARK  7 active torsions:
REMARK  status: ('A' for Active; 'I' for Inactive)
REMARK    1  A    between atoms: C_1  and  C_2
REMARK    2  A    between atoms: C_4  and  C_5
REMARK    3  A    between atoms: C_8  and  C_9
REMARK    4  A    between atoms: C_16  and  O_17
REMARK    5  A    between atoms: O_17  and  C_18
REMARK    6  A    between atoms: N_23  and  C_24
REMARK    7  A    between atoms: C_27  and  C_28
REMARK                            x       y       z     vdW  Elec       q    Type
REMARK                         _______ _______ _______ _____ _____    ______ ____
ROOT
ATOM      1  O   UNL     1      -0.476  11.534  20.873  0.00  0.00    +0.000 OA
ENDROOT
BRANCH   1   9
ATOM      2  C   UNL     1      -0.329   9.689  23.108  0.00  0.00    +0.000 C 
ATOM      3  C   UNL     1       0.300   9.441  21.765  0.00  0.00    +0.000 A 
ATOM      4  C   UNL     1       1.015   8.242  21.563  0.00  0.00    +0.000 A 
ATOM      5  C   UNL     1       1.587   7.881  20.318  0.00  0.00    +0.000 A 
ATOM      6  C   UNL     1       1.475   8.829  19.284  0.00  0.00    +0.000 A 
ATOM      7 CL   UNL     1       1.925   8.541  17.633  0.00  0.00    +0.000 Cl
ATOM      8  C   UNL     1       0.885  10.072  19.511  0.00  0.00    +0.000 A 
ATOM      9  C   UNL     1       0.229  10.356  20.712  0.00  0.00    +0.000 A 
BRANCH   5  10
ATOM     10  C   UNL     1       2.253   6.558  20.179  0.00  0.00    +0.000 A 
ATOM     11  C   UNL     1       3.412   6.403  19.392  0.00  0.00    +0.000 A 
ATOM     12  C   UNL     1       4.032   5.158  19.231  0.00  0.00    +0.000 A 
ATOM     13  C   UNL     1       3.523   4.038  19.887  0.00  0.00    +0.000 A 
ATOM     14  C   UNL     1       2.388   4.160  20.679  0.00  0.00    +0.000 A 
ATOM     15  C   UNL     1       1.746   5.398  20.792  0.00  0.00    +0.000 A 
BRANCH  13  16
ATOM     16  C   UNL     1       4.161   2.760  19.737  0.00  0.00    +0.000 C 
ATOM     17  N   UNL     1       4.672   1.728  19.621  0.00  0.00    +0.000 NA
ENDBRANCH  13  16
ENDBRANCH   5  10
ENDBRANCH   1   9
BRANCH   1  18
ATOM     18  C   UNL     1       0.107  12.689  20.343  0.00  0.00    +0.000 A 
ATOM     19  C   UNL     1      -0.544  13.291  19.295  0.00  0.00    +0.000 A 
ATOM     20  C   UNL     1       0.046  14.438  18.837  0.00  0.00    +0.000 A 
ATOM     21  N   UNL     1       1.170  14.949  19.363  0.00  0.00    +0.000 NA
ATOM     22  C   UNL     1       1.734  14.299  20.396  0.00  0.00    +0.000 A 
ATOM     23  N   UNL     1       2.850  14.849  21.027  0.00  0.00    +0.000 N 
ATOM     24  N   UNL     1       1.245  13.164  20.897  0.00  0.00    +0.000 NA
ATOM     25  H   UNL     1       3.070  14.356  21.880  0.00  0.00    +0.000 HD
BRANCH  23  26
ATOM     26  C   UNL     1       3.905  15.545  20.421  0.00  0.00    +0.000 A 
ATOM     27  C   UNL     1       4.699  14.910  19.460  0.00  0.00    +0.000 A 
ATOM     28  C   UNL     1       5.821  15.556  18.924  0.00  0.00    +0.000 A 
ATOM     29  C   UNL     1       6.145  16.852  19.333  0.00  0.00    +0.000 A 
ATOM     30  C   UNL     1       5.342  17.506  20.265  0.00  0.00    +0.000 A 
ATOM     31  C   UNL     1       4.235  16.852  20.802  0.00  0.00    +0.000 A 
BRANCH  29  32
ATOM     32  C   UNL     1       7.309  17.505  18.815  0.00  0.00    +0.000 C 
ATOM     33  N   UNL     1       8.251  18.043  18.396  0.00  0.00    +0.000 NA
ENDBRANCH  29  32
ENDBRANCH  23  26
ENDBRANCH   1  18
TORSDOF 6
ENDMDL
MODEL 2
REMARK VINA RESULT:      -7.4      0.383      1.261
REMARK  Name = 
REMARK  7 active torsions:
REMARK  status: ('A' for Active; 'I' for Inactive)
REMARK    1  A    between atoms: C_1  and  C_2
REMARK    2  A    between atoms: C_4  and  C_5
REMARK    3  A    between atoms: C_8  and  C_9
REMARK    4  A    between atoms: C_16  and  O_17
REMARK    5  A    between atoms: O_17  and  C_18
REMARK    6  A    between atoms: N_23  and  C_24
REMARK    7  A    between atoms: C_27  and  C_28
REMARK                            x       y       z     vdW  Elec       q    Type
REMARK                         _______ _______ _______ _____ _____    ______ ____
ROOT
ATOM      1  O   UNL     1      -0.203  11.570  21.035  0.00  0.00    +0.000 OA
ENDROOT
BRANCH   1   9
ATOM      2  C   UNL     1      -0.083   9.631  23.192  0.00  0.00    +0.000 C 
ATOM      3  C   UNL     1       0.465   9.394  21.811  0.00  0.00    +0.000 A 
ATOM      4  C   UNL     1       1.083   8.158  21.531  0.00  0.00    +0.000 A 
ATOM      5  C   UNL     1       1.571   7.809  20.247  0.00  0.00    +0.000 A 
ATOM      6  C   UNL     1       1.478   8.803  19.255  0.00  0.00    +0.000 A 
ATOM      7 CL   UNL     1       1.831   8.551  17.575  0.00  0.00    +0.000 Cl
ATOM      8  C   UNL     1       0.988  10.073  19.556  0.00  0.00    +0.000 A 
ATOM      9  C   UNL     1       0.409  10.353  20.797  0.00  0.00    +0.000 A 
BRANCH   5  10
ATOM     10  C   UNL     1       2.135   6.450  20.028  0.00  0.00    +0.000 A 
ATOM     11  C   UNL     1       1.502   5.303  20.549  0.00  0.00    +0.000 A 
ATOM     12  C   UNL     1       2.038   4.022  20.374  0.00  0.00    +0.000 A 
ATOM     13  C   UNL     1       3.209   3.854  19.636  0.00  0.00    +0.000 A 
ATOM     14  C   UNL     1       3.852   4.963  19.100  0.00  0.00    +0.000 A 
ATOM     15  C   UNL     1       3.335   6.244  19.325  0.00  0.00    +0.000 A 
BRANCH  13  16
ATOM     16  C   UNL     1       3.758   2.541  19.441  0.00  0.00    +0.000 C 
ATOM     17  N   UNL     1       4.197   1.482  19.279  0.00  0.00    +0.000 NA
ENDBRANCH  13  16
ENDBRANCH   5  10
ENDBRANCH   1   9
BRANCH   1  18
ATOM     18  C   UNL     1       0.444  12.703  20.534  0.00  0.00    +0.000 A 
ATOM     19  C   UNL     1      -0.159  13.351  19.484  0.00  0.00    +0.000 A 
ATOM     20  C   UNL     1       0.493  14.475  19.054  0.00  0.00    +0.000 A 
ATOM     21  N   UNL     1       1.629  14.926  19.609  0.00  0.00    +0.000 NA
ATOM     22  C   UNL     1       2.141  14.235  20.643  0.00  0.00    +0.000 A 
ATOM     23  N   UNL     1       3.269  14.724  21.303  0.00  0.00    +0.000 N 
ATOM     24  N   UNL     1       1.592  13.117  21.116  0.00  0.00    +0.000 NA
ATOM     25  H   UNL     1       3.450  14.208  22.152  0.00  0.00    +0.000 HD
BRANCH  23  26
ATOM     26  C   UNL     1       4.367  15.378  20.727  0.00  0.00    +0.000 A 
ATOM     27  C   UNL     1       4.686  16.683  21.116  0.00  0.00    +0.000 A 
ATOM     28  C   UNL     1       5.712  17.387  20.473  0.00  0.00    +0.000 A 
ATOM     29  C   UNL     1       6.442  16.781  19.447  0.00  0.00    +0.000 A 
ATOM     30  C   UNL     1       6.155  15.469  19.073  0.00  0.00    +0.000 A 
ATOM     31  C   UNL     1       5.123  14.781  19.709  0.00  0.00    +0.000 A 
BRANCH  29  32
ATOM     32  C   UNL     1       7.469  17.506  18.762  0.00  0.00    +0.000 C 
ATOM     33  N   UNL     1       8.304  18.088  18.200  0.00  0.00    +0.000 NA
ENDBRANCH  29  32
ENDBRANCH  23  26
ENDBRANCH   1  18
TORSDOF 6
ENDMDL
MODEL 3
REMARK VINA RESULT:      -7.0      0.666      1.072
REMARK  Name = 
REMARK  7 active torsions:
REMARK  status: ('A' for Active; 'I' for Inactive)
REMARK    1  A    between atoms: C_1  and  C_2
REMARK    2  A    between atoms: C_4  and  C_5
REMARK    3  A    between atoms: C_8  and  C_9
REMARK    4  A    between atoms: C_16  and  O_17
REMARK    5  A    between atoms: O_17  and  C_18
REMARK    6  A    between atoms: N_23  and  C_24
REMARK    7  A    between atoms: C_27  and  C_28
REMARK                            x       y       z     vdW  Elec       q    Type
REMARK                         _______ _______ _______ _____ _____    ______ ____
ROOT
ATOM      1  O   UNL     1      -0.378  11.745  20.789  0.00  0.00    +0.000 OA
ENDROOT
BRANCH   1   9
ATOM      2  C   UNL     1      -0.300   9.907  23.033  0.00  0.00    +0.000 C 
ATOM      3  C   UNL     1       0.333   9.635  21.696  0.00  0.00    +0.000 A 
ATOM      4  C   UNL     1       1.015   8.416  21.505  0.00  0.00    +0.000 A 
ATOM      5  C   UNL     1       1.587   8.033  20.266  0.00  0.00    +0.000 A 
ATOM      6  C   UNL     1       1.509   8.979  19.227  0.00  0.00    +0.000 A 
ATOM      7 CL   UNL     1       1.964   8.671  17.581  0.00  0.00    +0.000 Cl
ATOM      8  C   UNL     1       0.953  10.239  19.444  0.00  0.00    +0.000 A 
ATOM      9  C   UNL     1       0.295  10.547  20.639  0.00  0.00    +0.000 A 
BRANCH   5  10
ATOM     10  C   UNL     1       2.217   6.691  20.139  0.00  0.00    +0.000 A 
ATOM     11  C   UNL     1       3.429   6.517  19.440  0.00  0.00    +0.000 A 
ATOM     12  C   UNL     1       4.017   5.256  19.289  0.00  0.00    +0.000 A 
ATOM     13  C   UNL     1       3.421   4.137  19.869  0.00  0.00    +0.000 A 
ATOM     14  C   UNL     1       2.231   4.277  20.572  0.00  0.00    +0.000 A 
ATOM     15  C   UNL     1       1.625   5.534  20.674  0.00  0.00    +0.000 A 
BRANCH  13  16
ATOM     16  C   UNL     1       4.025   2.842  19.729  0.00  0.00    +0.000 C 
ATOM     17  N   UNL     1       4.515   1.800  19.612  0.00  0.00    +0.000 NA
ENDBRANCH  13  16
ENDBRANCH   5  10
ENDBRANCH   1   9
BRANCH   1  18
ATOM     18  C   UNL     1       0.345  12.908  20.507  0.00  0.00    +0.000 A 
ATOM     19  C   UNL     1      -0.164  13.740  19.540  0.00  0.00    +0.000 A 
ATOM     20  C   UNL     1       0.560  14.881  19.328  0.00  0.00    +0.000 A 
ATOM     21  N   UNL     1       1.678  15.182  20.007  0.00  0.00    +0.000 NA
ATOM     22  C   UNL     1       2.097  14.315  20.945  0.00  0.00    +0.000 A 
ATOM     23  N   UNL     1       3.202  14.637  21.733  0.00  0.00    +0.000 N 
ATOM     24  N   UNL     1       1.472  13.167  21.207  0.00  0.00    +0.000 NA
ATOM     25  H   UNL     1       3.309  13.988  22.499  0.00  0.00    +0.000 HD
BRANCH  23  26
ATOM     26  C   UNL     1       4.360  15.315  21.326  0.00  0.00    +0.000 A 
ATOM     27  C   UNL     1       4.757  16.480  21.990  0.00  0.00    +0.000 A 
ATOM     28  C   UNL     1       5.849  17.226  21.527  0.00  0.00    +0.000 A 
ATOM     29  C   UNL     1       6.565  16.799  20.406  0.00  0.00    +0.000 A 
ATOM     30  C   UNL     1       6.198  15.622  19.756  0.00  0.00    +0.000 A 
ATOM     31  C   UNL     1       5.103  14.893  20.215  0.00  0.00    +0.000 A 
BRANCH  29  32
ATOM     32  C   UNL     1       7.660  17.575  19.907  0.00  0.00    +0.000 C 
ATOM     33  N   UNL     1       8.544  18.212  19.502  0.00  0.00    +0.000 NA
ENDBRANCH  29  32
ENDBRANCH  23  26
ENDBRANCH   1  18
TORSDOF 6
ENDMDL
MODEL 4
REMARK VINA RESULT:      -6.5      1.352      1.606
REMARK  Name = 
REMARK  7 active torsions:
REMARK  status: ('A' for Active; 'I' for Inactive)
REMARK    1  A    between atoms: C_1  and  C_2
REMARK    2  A    between atoms: C_4  and  C_5
REMARK    3  A    between atoms: C_8  and  C_9
REMARK    4  A    between atoms: C_16  and  O_17
REMARK    5  A    between atoms: O_17  and  C_18
REMARK    6  A    between atoms: N_23  and  C_24
REMARK    7  A    between atoms: C_27  and  C_28
REMARK                            x       y       z     vdW  Elec       q    Type
REMARK                         _______ _______ _______ _____ _____    ______ ____
ROOT
ATOM      1  O   UNL     1      -0.063  11.332  20.068  0.00  0.00    +0.000 OA
ENDROOT
BRANCH   1   9
ATOM      2  C   UNL     1      -0.141   9.647  22.430  0.00  0.00    +0.000 C 
ATOM      3  C   UNL     1       0.582   9.289  21.161  0.00  0.00    +0.000 A 
ATOM      4  C   UNL     1       1.275   8.063  21.099  0.00  0.00    +0.000 A 
ATOM      5  C   UNL     1       1.930   7.601  19.930  0.00  0.00    +0.000 A 
ATOM      6  C   UNL     1       1.925   8.475  18.828  0.00  0.00    +0.000 A 
ATOM      7 CL   UNL     1       2.492   8.060  17.241  0.00  0.00    +0.000 Cl
ATOM      8  C   UNL     1       1.356   9.745  18.922  0.00  0.00    +0.000 A 
ATOM      9  C   UNL     1       0.618  10.129  20.045  0.00  0.00    +0.000 A 
BRANCH   5  10
ATOM     10  C   UNL     1       2.566   6.256  19.935  0.00  0.00    +0.000 A 
ATOM     11  C   UNL     1       1.997   5.181  20.650  0.00  0.00    +0.000 A 
ATOM     12  C   UNL     1       2.601   3.919  20.685  0.00  0.00    +0.000 A 
ATOM     13  C   UNL     1       3.777   3.691  19.973  0.00  0.00    +0.000 A 
ATOM     14  C   UNL     1       4.358   4.726  19.251  0.00  0.00    +0.000 A 
ATOM     15  C   UNL     1       3.774   5.998  19.263  0.00  0.00    +0.000 A 
BRANCH  13  16
ATOM     16  C   UNL     1       4.396   2.395  19.994  0.00  0.00    +0.000 C 
ATOM     17  N   UNL     1       4.899   1.353  20.012  0.00  0.00    +0.000 NA
ENDBRANCH  13  16
ENDBRANCH   5  10
ENDBRANCH   1   9
BRANCH   1  18
ATOM     18  C   UNL     1       0.712  12.490  19.958  0.00  0.00    +0.000 A 
ATOM     19  C   UNL     1       0.394  13.358  18.942  0.00  0.00    +0.000 A 
ATOM     20  C   UNL     1       1.156  14.494  18.899  0.00  0.00    +0.000 A 
ATOM     21  N   UNL     1       2.138  14.757  19.777  0.00  0.00    +0.000 NA
ATOM     22  C   UNL     1       2.371  13.856  20.747  0.00  0.00    +0.000 A 
ATOM     23  N   UNL     1       3.320  14.137  21.731  0.00  0.00    +0.000 N 
ATOM     24  N   UNL     1       1.698  12.711  20.857  0.00  0.00    +0.000 NA
ATOM     25  H   UNL     1       3.281  13.464  22.482  0.00  0.00    +0.000 HD
BRANCH  23  26
ATOM     26  C   UNL     1       4.539  14.807  21.560  0.00  0.00    +0.000 A 
ATOM     27  C   UNL     1       5.708  14.289  22.126  0.00  0.00    +0.000 A 
ATOM     28  C   UNL     1       6.911  15.002  22.055  0.00  0.00    +0.000 A 
ATOM     29  C   UNL     1       6.958  16.233  21.397  0.00  0.00    +0.000 A 
ATOM     30  C   UNL     1       5.807  16.745  20.800  0.00  0.00    +0.000 A 
ATOM     31  C   UNL     1       4.611  16.035  20.887  0.00  0.00    +0.000 A 
BRANCH  29  32
ATOM     32  C   UNL     1       8.176  16.984  21.350  0.00  0.00    +0.000 C 
ATOM     33  N   UNL     1       9.164  17.598  21.321  0.00  0.00    +0.000 NA
ENDBRANCH  29  32
ENDBRANCH  23  26
ENDBRANCH   1  18
TORSDOF 6
ENDMDL
MODEL 5
REMARK VINA RESULT:      -6.5      4.591      7.583
REMARK  Name = 
REMARK  7 active torsions:
REMARK  status: ('A' for Active; 'I' for Inactive)
REMARK    1  A    between atoms: C_1  and  C_2
REMARK    2  A    between atoms: C_4  and  C_5
REMARK    3  A    between atoms: C_8  and  C_9
REMARK    4  A    between atoms: C_16  and  O_17
REMARK    5  A    between atoms: O_17  and  C_18
REMARK    6  A    between atoms: N_23  and  C_24
REMARK    7  A    between atoms: C_27  and  C_28
REMARK                            x       y       z     vdW  Elec       q    Type
REMARK                         _______ _______ _______ _____ _____    ______ ____
ROOT
ATOM      1  O   UNL     1       4.184   5.802  18.040  0.00  0.00    +0.000 OA
ENDROOT
BRANCH   1   9
ATOM      2  C   UNL     1       2.820   4.956  20.459  0.00  0.00    +0.000 C 
ATOM      3  C   UNL     1       2.602   6.283  19.786  0.00  0.00    +0.000 A 
ATOM      4  C   UNL     1       1.676   7.184  20.351  0.00  0.00    +0.000 A 
ATOM      5  C   UNL     1       1.447   8.484  19.835  0.00  0.00    +0.000 A 
ATOM      6  C   UNL     1       2.144   8.819  18.660  0.00  0.00    +0.000 A 
ATOM      7 CL   UNL     1       2.173  10.403  17.951  0.00  0.00    +0.000 Cl
ATOM      8  C   UNL     1       2.962   7.888  18.021  0.00  0.00    +0.000 A 
ATOM      9  C   UNL     1       3.259   6.657  18.611  0.00  0.00    +0.000 A 
BRANCH   5  10
ATOM     10  C   UNL     1       0.509   9.395  20.547  0.00  0.00    +0.000 A 
ATOM     11  C   UNL     1      -0.488  10.107  19.850  0.00  0.00    +0.000 A 
ATOM     12  C   UNL     1      -1.358  10.987  20.504  0.00  0.00    +0.000 A 
ATOM     13  C   UNL     1      -1.272  11.150  21.886  0.00  0.00    +0.000 A 
ATOM     14  C   UNL     1      -0.307  10.455  22.604  0.00  0.00    +0.000 A 
ATOM     15  C   UNL     1       0.591   9.616  21.933  0.00  0.00    +0.000 A 
BRANCH  13  16
ATOM     16  C   UNL     1      -2.169  12.042  22.566  0.00  0.00    +0.000 C 
ATOM     17  N   UNL     1      -2.893  12.757  23.118  0.00  0.00    +0.000 NA
ENDBRANCH  13  16
ENDBRANCH   5  10
ENDBRANCH   1   9
BRANCH   1  18
ATOM     18  C   UNL     1       5.529   6.161  18.167  0.00  0.00    +0.000 A 
ATOM     19  C   UNL     1       6.396   5.187  18.596  0.00  0.00    +0.000 A 
ATOM     20  C   UNL     1       7.706   5.577  18.669  0.00  0.00    +0.000 A 
ATOM     21  N   UNL     1       8.127   6.809  18.343  0.00  0.00    +0.000 NA
ATOM     22  C   UNL     1       7.209   7.696  17.920  0.00  0.00    +0.000 A 
ATOM     23  N   UNL     1       7.621   8.956  17.486  0.00  0.00    +0.000 N 
ATOM     24  N   UNL     1       5.908   7.416  17.839  0.00  0.00    +0.000 NA
ATOM     25  H   UNL     1       6.865   9.458  17.044  0.00  0.00    +0.000 HD
BRANCH  23  26
ATOM     26  C   UNL     1       8.656   9.736  18.021  0.00  0.00    +0.000 A 
ATOM     27  C   UNL     1       8.934   9.684  19.391  0.00  0.00    +0.000 A 
ATOM     28  C   UNL     1       9.892  10.535  19.956  0.00  0.00    +0.000 A 
ATOM     29  C   UNL     1      10.595  11.433  19.149  0.00  0.00    +0.000 A 
ATOM     30  C   UNL     1      10.350  11.470  17.777  0.00  0.00    +0.000 A 
ATOM     31  C   UNL     1       9.386  10.629  17.225  0.00  0.00    +0.000 A 
BRANCH  29  32
ATOM     32  C   UNL     1      11.551  12.330  19.724  0.00  0.00    +0.000 C 
ATOM     33  N   UNL     1      12.333  13.052  20.193  0.00  0.00    +0.000 NA
ENDBRANCH  29  32
ENDBRANCH  23  26
ENDBRANCH   1  18
TORSDOF 6
ENDMDL
MODEL 6
REMARK VINA RESULT:      -6.5      4.701      9.925
REMARK  Name = 
REMARK  7 active torsions:
REMARK  status: ('A' for Active; 'I' for Inactive)
REMARK    1  A    between atoms: C_1  and  C_2
REMARK    2  A    between atoms: C_4  and  C_5
REMARK    3  A    between atoms: C_8  and  C_9
REMARK    4  A    between atoms: C_16  and  O_17
REMARK    5  A    between atoms: O_17  and  C_18
REMARK    6  A    between atoms: N_23  and  C_24
REMARK    7  A    between atoms: C_27  and  C_28
REMARK                            x       y       z     vdW  Elec       q    Type
REMARK                         _______ _______ _______ _____ _____    ______ ____
ROOT
ATOM      1  O   UNL     1      -0.498  11.042  18.215  0.00  0.00    +0.000 OA
ENDROOT
BRANCH   1   9
ATOM      2  C   UNL     1      -3.385  11.231  18.452  0.00  0.00    +0.000 C 
ATOM      3  C   UNL     1      -2.415  12.044  19.265  0.00  0.00    +0.000 A 
ATOM      4  C   UNL     1      -2.925  12.964  20.204  0.00  0.00    +0.000 A 
ATOM      5  C   UNL     1      -2.100  13.728  21.067  0.00  0.00    +0.000 A 
ATOM      6  C   UNL     1      -0.711  13.583  20.889  0.00  0.00    +0.000 A 
ATOM      7 CL   UNL     1       0.491  14.263  21.940  0.00  0.00    +0.000 Cl
ATOM      8  C   UNL     1      -0.199  12.774  19.876  0.00  0.00    +0.000 A 
ATOM      9  C   UNL     1      -1.030  11.945  19.117  0.00  0.00    +0.000 A 
BRANCH   5  10
ATOM     10  C   UNL     1      -2.731  14.615  22.081  0.00  0.00    +0.000 A 
ATOM     11  C   UNL     1      -3.333  14.085  23.241  0.00  0.00    +0.000 A 
ATOM     12  C   UNL     1      -3.954  14.906  24.189  0.00  0.00    +0.000 A 
ATOM     13  C   UNL     1      -3.957  16.289  24.016  0.00  0.00    +0.000 A 
ATOM     14  C   UNL     1      -3.364  16.843  22.888  0.00  0.00    +0.000 A 
ATOM     15  C   UNL     1      -2.790  16.010  21.921  0.00  0.00    +0.000 A 
BRANCH  13  16
ATOM     16  C   UNL     1      -4.582  17.139  24.990  0.00  0.00    +0.000 C 
ATOM     17  N   UNL     1      -5.082  17.828  25.774  0.00  0.00    +0.000 NA
ENDBRANCH  13  16
ENDBRANCH   5  10
ENDBRANCH   1   9
BRANCH   1  18
ATOM     18  C   UNL     1       0.345  10.058  18.741  0.00  0.00    +0.000 A 
ATOM     19  C   UNL     1       0.416   9.965  20.109  0.00  0.00    +0.000 A 
ATOM     20  C   UNL     1       1.225   8.963  20.573  0.00  0.00    +0.000 A 
ATOM     21  N   UNL     1       1.896   8.125  19.768  0.00  0.00    +0.000 NA
ATOM     22  C   UNL     1       1.757   8.282  18.440  0.00  0.00    +0.000 A 
ATOM     23  N   UNL     1       2.366   7.374  17.574  0.00  0.00    +0.000 N 
ATOM     24  N   UNL     1       1.011   9.242  17.894  0.00  0.00    +0.000 NA
ATOM     25  H   UNL     1       2.051   7.503  16.624  0.00  0.00    +0.000 HD
BRANCH  23  26
ATOM     26  C   UNL     1       3.618   6.763  17.735  0.00  0.00    +0.000 A 
ATOM     27  C   UNL     1       4.750   7.320  17.131  0.00  0.00    +0.000 A 
ATOM     28  C   UNL     1       5.986   6.663  17.195  0.00  0.00    +0.000 A 
ATOM     29  C   UNL     1       6.102   5.452  17.881  0.00  0.00    +0.000 A 
ATOM     30  C   UNL     1       4.988   4.905  18.515  0.00  0.00    +0.000 A 
ATOM     31  C   UNL     1       3.759   5.558  18.436  0.00  0.00    +0.000 A 
BRANCH  29  32
ATOM     32  C   UNL     1       7.354   4.759  17.921  0.00  0.00    +0.000 C 
ATOM     33  N   UNL     1       8.367   4.190  17.960  0.00  0.00    +0.000 NA
ENDBRANCH  29  32
ENDBRANCH  23  26
ENDBRANCH   1  18
TORSDOF 6
ENDMDL
MODEL 7
REMARK VINA RESULT:      -6.4      4.129      5.708
REMARK  Name = 
REMARK  7 active torsions:
REMARK  status: ('A' for Active; 'I' for Inactive)
REMARK    1  A    between atoms: C_1  and  C_2
REMARK    2  A    between atoms: C_4  and  C_5
REMARK    3  A    between atoms: C_8  and  C_9
REMARK    4  A    between atoms: C_16  and  O_17
REMARK    5  A    between atoms: O_17  and  C_18
REMARK    6  A    between atoms: N_23  and  C_24
REMARK    7  A    between atoms: C_27  and  C_28
REMARK                            x       y       z     vdW  Elec       q    Type
REMARK                         _______ _______ _______ _____ _____    ______ ____
ROOT
ATOM      1  O   UNL     1      -2.334  12.002  19.677  0.00  0.00    +0.000 OA
ENDROOT
BRANCH   1   9
ATOM      2  C   UNL     1      -1.883  10.964  17.004  0.00  0.00    +0.000 C 
ATOM      3  C   UNL     1      -1.105  10.538  18.218  0.00  0.00    +0.000 A 
ATOM      4  C   UNL     1      -0.090   9.571  18.067  0.00  0.00    +0.000 A 
ATOM      5  C   UNL     1       0.746   9.151  19.131  0.00  0.00    +0.000 A 
ATOM      6  C   UNL     1       0.464   9.699  20.397  0.00  0.00    +0.000 A 
ATOM      7 CL   UNL     1       1.456   9.485  21.804  0.00  0.00    +0.000 Cl
ATOM      8  C   UNL     1      -0.621  10.555  20.582  0.00  0.00    +0.000 A 
ATOM      9  C   UNL     1      -1.356  11.041  19.497  0.00  0.00    +0.000 A 
BRANCH   5  10
ATOM     10  C   UNL     1       1.844   8.185  18.858  0.00  0.00    +0.000 A 
ATOM     11  C   UNL     1       2.669   8.319  17.722  0.00  0.00    +0.000 A 
ATOM     12  C   UNL     1       3.687   7.401  17.439  0.00  0.00    +0.000 A 
ATOM     13  C   UNL     1       3.927   6.339  18.310  0.00  0.00    +0.000 A 
ATOM     14  C   UNL     1       3.138   6.185  19.443  0.00  0.00    +0.000 A 
ATOM     15  C   UNL     1       2.090   7.079  19.690  0.00  0.00    +0.000 A 
BRANCH  13  16
ATOM     16  C   UNL     1       4.977   5.400  18.033  0.00  0.00    +0.000 C 
ATOM     17  N   UNL     1       5.820   4.638  17.810  0.00  0.00    +0.000 NA
ENDBRANCH  13  16
ENDBRANCH   5  10
ENDBRANCH   1   9
BRANCH   1  18
ATOM     18  C   UNL     1      -1.942  13.180  20.320  0.00  0.00    +0.000 A 
ATOM     19  C   UNL     1      -0.964  13.926  19.710  0.00  0.00    +0.000 A 
ATOM     20  C   UNL     1      -0.642  15.088  20.359  0.00  0.00    +0.000 A 
ATOM     21  N   UNL     1      -1.232  15.484  21.498  0.00  0.00    +0.000 NA
ATOM     22  C   UNL     1      -2.190  14.696  22.017  0.00  0.00    +0.000 A 
ATOM     23  N   UNL     1      -2.888  15.119  23.148  0.00  0.00    +0.000 N 
ATOM     24  N   UNL     1      -2.555  13.536  21.471  0.00  0.00    +0.000 NA
ATOM     25  H   UNL     1      -3.681  14.524  23.335  0.00  0.00    +0.000 HD
BRANCH  23  26
ATOM     26  C   UNL     1      -2.372  15.828  24.242  0.00  0.00    +0.000 A 
ATOM     27  C   UNL     1      -2.491  17.221  24.291  0.00  0.00    +0.000 A 
ATOM     28  C   UNL     1      -1.887  17.951  25.322  0.00  0.00    +0.000 A 
ATOM     29  C   UNL     1      -1.175  17.290  26.326  0.00  0.00    +0.000 A 
ATOM     30  C   UNL     1      -1.078  15.900  26.305  0.00  0.00    +0.000 A 
ATOM     31  C   UNL     1      -1.670  15.182  25.268  0.00  0.00    +0.000 A 
BRANCH  29  32
ATOM     32  C   UNL     1      -0.526  18.032  27.364  0.00  0.00    +0.000 C 
ATOM     33  N   UNL     1       0.009  18.631  28.205  0.00  0.00    +0.000 NA
ENDBRANCH  29  32
ENDBRANCH  23  26
ENDBRANCH   1  18
TORSDOF 6
ENDMDL
MODEL 8
REMARK VINA RESULT:      -6.3      4.987      9.874
REMARK  Name = 
REMARK  7 active torsions:
REMARK  status: ('A' for Active; 'I' for Inactive)
REMARK    1  A    between atoms: C_1  and  C_2
REMARK    2  A    between atoms: C_4  and  C_5
REMARK    3  A    between atoms: C_8  and  C_9
REMARK    4  A    between atoms: C_16  and  O_17
REMARK    5  A    between atoms: O_17  and  C_18
REMARK    6  A    between atoms: N_23  and  C_24
REMARK    7  A    between atoms: C_27  and  C_28
REMARK                            x       y       z     vdW  Elec       q    Type
REMARK                         _______ _______ _______ _____ _____    ______ ____
ROOT
ATOM      1  O   UNL     1       0.444   8.407  20.859  0.00  0.00    +0.000 OA
ENDROOT
BRANCH   1   9
ATOM      2  C   UNL     1       0.161   9.464  23.547  0.00  0.00    +0.000 C 
ATOM      3  C   UNL     1      -0.372  10.139  22.313  0.00  0.00    +0.000 A 
ATOM      4  C   UNL     1      -1.060  11.362  22.454  0.00  0.00    +0.000 A 
ATOM      5  C   UNL     1      -1.541  12.112  21.352  0.00  0.00    +0.000 A 
ATOM      6  C   UNL     1      -1.367  11.532  20.082  0.00  0.00    +0.000 A 
ATOM      7 CL   UNL     1      -1.700  12.336  18.580  0.00  0.00    +0.000 Cl
ATOM      8  C   UNL     1      -0.806  10.263  19.943  0.00  0.00    +0.000 A 
ATOM      9  C   UNL     1      -0.237   9.598  21.033  0.00  0.00    +0.000 A 
BRANCH   5  10
ATOM     10  C   UNL     1      -2.183  13.432  21.595  0.00  0.00    +0.000 A 
ATOM     11  C   UNL     1      -1.411  14.585  21.844  0.00  0.00    +0.000 A 
ATOM     12  C   UNL     1      -2.004  15.827  22.101  0.00  0.00    +0.000 A 
ATOM     13  C   UNL     1      -3.393  15.952  22.079  0.00  0.00    +0.000 A 
ATOM     14  C   UNL     1      -4.181  14.837  21.827  0.00  0.00    +0.000 A 
ATOM     15  C   UNL     1      -3.580  13.590  21.621  0.00  0.00    +0.000 A 
BRANCH  13  16
ATOM     16  C   UNL     1      -4.008  17.225  22.330  0.00  0.00    +0.000 C 
ATOM     17  N   UNL     1      -4.507  18.251  22.527  0.00  0.00    +0.000 NA
ENDBRANCH  13  16
ENDBRANCH   5  10
ENDBRANCH   1   9
BRANCH   1  18
ATOM     18  C   UNL     1       1.327   8.345  19.777  0.00  0.00    +0.000 A 
ATOM     19  C   UNL     1       1.284   9.382  18.877  0.00  0.00    +0.000 A 
ATOM     20  C   UNL     1       2.193   9.294  17.858  0.00  0.00    +0.000 A 
ATOM     21  N   UNL     1       3.069   8.284  17.736  0.00  0.00    +0.000 NA
ATOM     22  C   UNL     1       3.049   7.318  18.671  0.00  0.00    +0.000 A 
ATOM     23  N   UNL     1       4.003   6.302  18.628  0.00  0.00    +0.000 N 
ATOM     24  N   UNL     1       2.186   7.305  19.687  0.00  0.00    +0.000 NA
ATOM     25  H   UNL     1       3.983   5.742  19.468  0.00  0.00    +0.000 HD
BRANCH  23  26
ATOM     26  C   UNL     1       4.529   5.685  17.484  0.00  0.00    +0.000 A 
ATOM     27  C   UNL     1       5.223   6.446  16.537  0.00  0.00    +0.000 A 
ATOM     28  C   UNL     1       5.660   5.865  15.340  0.00  0.00    +0.000 A 
ATOM     29  C   UNL     1       5.423   4.512  15.090  0.00  0.00    +0.000 A 
ATOM     30  C   UNL     1       4.761   3.736  16.040  0.00  0.00    +0.000 A 
ATOM     31  C   UNL     1       4.318   4.325  17.223  0.00  0.00    +0.000 A 
BRANCH  29  32
ATOM     32  C   UNL     1       5.836   3.920  13.853  0.00  0.00    +0.000 C 
ATOM     33  N   UNL     1       6.179   3.435  12.853  0.00  0.00    +0.000 NA
ENDBRANCH  29  32
ENDBRANCH  23  26
ENDBRANCH   1  18
TORSDOF 6
ENDMDL
MODEL 9
REMARK VINA RESULT:      -6.3      3.325      4.905
REMARK  Name = 
REMARK  7 active torsions:
REMARK  status: ('A' for Active; 'I' for Inactive)
REMARK    1  A    between atoms: C_1  and  C_2
REMARK    2  A    between atoms: C_4  and  C_5
REMARK    3  A    between atoms: C_8  and  C_9
REMARK    4  A    between atoms: C_16  and  O_17
REMARK    5  A    between atoms: O_17  and  C_18
REMARK    6  A    between atoms: N_23  and  C_24
REMARK    7  A    between atoms: C_27  and  C_28
REMARK                            x       y       z     vdW  Elec       q    Type
REMARK                         _______ _______ _______ _____ _____    ______ ____
ROOT
ATOM      1  O   UNL     1       0.062  11.312  19.437  0.00  0.00    +0.000 OA
ENDROOT
BRANCH   1   9
ATOM      2  C   UNL     1      -0.276   9.677  21.811  0.00  0.00    +0.000 C 
ATOM      3  C   UNL     1       0.573   9.289  20.632  0.00  0.00    +0.000 A 
ATOM      4  C   UNL     1       1.259   8.058  20.667  0.00  0.00    +0.000 A 
ATOM      5  C   UNL     1       2.029   7.567  19.583  0.00  0.00    +0.000 A 
ATOM      6  C   UNL     1       2.146   8.419  18.469  0.00  0.00    +0.000 A 
ATOM      7 CL   UNL     1       2.873   7.967  16.959  0.00  0.00    +0.000 Cl
ATOM      8  C   UNL     1       1.580   9.693  18.477  0.00  0.00    +0.000 A 
ATOM      9  C   UNL     1       0.732  10.105  19.509  0.00  0.00    +0.000 A 
BRANCH   5  10
ATOM     10  C   UNL     1       2.650   6.219  19.682  0.00  0.00    +0.000 A 
ATOM     11  C   UNL     1       1.930   5.119  20.191  0.00  0.00    +0.000 A 
ATOM     12  C   UNL     1       2.513   3.852  20.315  0.00  0.00    +0.000 A 
ATOM     13  C   UNL     1       3.827   3.647  19.897  0.00  0.00    +0.000 A 
ATOM     14  C   UNL     1       4.560   4.709  19.383  0.00  0.00    +0.000 A 
ATOM     15  C   UNL     1       3.985   5.983  19.310  0.00  0.00    +0.000 A 
BRANCH  13  16
ATOM     16  C   UNL     1       4.427   2.347  20.010  0.00  0.00    +0.000 C 
ATOM     17  N   UNL     1       4.906   1.297  20.101  0.00  0.00    +0.000 NA
ENDBRANCH  13  16
ENDBRANCH   5  10
ENDBRANCH   1   9
BRANCH   1  18
ATOM     18  C   UNL     1       0.488  12.316  20.311  0.00  0.00    +0.000 A 
ATOM     19  C   UNL     1       1.844  12.488  20.448  0.00  0.00    +0.000 A 
ATOM     20  C   UNL     1       2.210  13.507  21.285  0.00  0.00    +0.000 A 
ATOM     21  N   UNL     1       1.326  14.290  21.924  0.00  0.00    +0.000 NA
ATOM     22  C   UNL     1       0.018  14.058  21.720  0.00  0.00    +0.000 A 
ATOM     23  N   UNL     1      -0.928  14.907  22.295  0.00  0.00    +0.000 N 
ATOM     24  N   UNL     1      -0.435  13.075  20.942  0.00  0.00    +0.000 NA
ATOM     25  H   UNL     1      -1.853  14.726  21.934  0.00  0.00    +0.000 HD
BRANCH  23  26
ATOM     26  C   UNL     1      -0.861  15.514  23.557  0.00  0.00    +0.000 A 
ATOM     27  C   UNL     1      -0.064  16.647  23.747  0.00  0.00    +0.000 A 
ATOM     28  C   UNL     1       0.097  17.199  25.024  0.00  0.00    +0.000 A 
ATOM     29  C   UNL     1      -0.557  16.631  26.120  0.00  0.00    +0.000 A 
ATOM     30  C   UNL     1      -1.380  15.521  25.938  0.00  0.00    +0.000 A 
ATOM     31  C   UNL     1      -1.524  14.970  24.666  0.00  0.00    +0.000 A 
BRANCH  29  32
ATOM     32  C   UNL     1      -0.370  17.168  27.434  0.00  0.00    +0.000 C 
ATOM     33  N   UNL     1      -0.227  17.609  28.501  0.00  0.00    +0.000 NA
ENDBRANCH  29  32
ENDBRANCH  23  26
ENDBRANCH   1  18
TORSDOF 6
ENDMDL
