MODEL 1
REMARK VINA RESULT:      -6.4      0.000      0.000
REMARK  Name = 
REMARK  4 active torsions:
REMARK  status: ('A' for Active; 'I' for Inactive)
REMARK    1  A    between atoms: C_1  and  C_2
REMARK    2  A    between atoms: C_5  and  C_6
REMARK    3  A    between atoms: C_7  and  C_8
REMARK    4  A    between atoms: C_8  and  N_9
REMARK                            x       y       z     vdW  Elec       q    Type
REMARK                         _______ _______ _______ _____ _____    ______ ____
ROOT
ATOM      1  N   UNL     1      -1.703  12.560  19.083  0.00  0.00    +0.000 NA
ATOM      2  C   UNL     1      -1.962  11.811  17.847  0.00  0.00    +0.000 C 
ATOM      3  C   UNL     1      -1.721  10.291  17.997  0.00  0.00    +0.000 C 
ATOM      4  O   UNL     1      -1.129   9.835  19.232  0.00  0.00    +0.000 OA
ATOM      5  C   UNL     1      -0.132  10.665  19.878  0.00  0.00    +0.000 C 
ATOM      6  C   UNL     1      -0.354  10.667  21.419  0.00  0.00    +0.000 C 
ATOM      7  C   UNL     1      -0.303   9.292  22.035  0.00  0.00    +0.000 C 
ATOM      8  C   UNL     1       1.071   8.704  21.824  0.00  0.00    +0.000 C 
ATOM      9  N   UNL     1       1.391   8.726  20.401  0.00  0.00    +0.000 N 
ATOM     10  C   UNL     1       1.893   7.570  19.857  0.00  0.00    +0.000 A 
ATOM     11  N   UNL     1       1.869   6.459  20.627  0.00  0.00    +0.000 NA
ATOM     12  C   UNL     1       2.313   5.302  20.119  0.00  0.00    +0.000 A 
ATOM     13  C   UNL     1       2.825   5.198  18.863  0.00  0.00    +0.000 A 
ATOM     14  C   UNL     1       2.847   6.374  18.150  0.00  0.00    +0.000 A 
ATOM     15  N   UNL     1       2.394   7.558  18.614  0.00  0.00    +0.000 NA
ATOM     16  C   UNL     1       1.293  10.014  19.670  0.00  0.00    +0.000 C 
ATOM     17  C   UNL     1      -0.290  12.155  19.433  0.00  0.00    +0.000 C 
ENDROOT
BRANCH   1  18
ATOM     18  C   UNL     1      -2.704  12.185  20.126  0.00  0.00    +0.000 C 
BRANCH  18  25
ATOM     19  C   UNL     1      -3.820  14.665  21.787  0.00  0.00    +0.000 C 
ATOM     20  C   UNL     1      -4.541  13.909  20.740  0.00  0.00    +0.000 A 
ATOM     21  N   UNL     1      -5.828  14.164  20.490  0.00  0.00    +0.000 NA
ATOM     22  O   UNL     1      -6.234  13.189  19.609  0.00  0.00    +0.000 OA
ATOM     23  C   UNL     1      -5.199  12.349  19.336  0.00  0.00    +0.000 A 
ATOM     24  C   UNL     1      -5.584  11.159  18.543  0.00  0.00    +0.000 C 
ATOM     25  C   UNL     1      -4.055  12.810  19.981  0.00  0.00    +0.000 A 
ENDBRANCH  18  25
ENDBRANCH   1  18
TORSDOF 2
ENDMDL
MODEL 2
REMARK VINA RESULT:      -6.2      1.070      1.269
REMARK  Name = 
REMARK  4 active torsions:
REMARK  status: ('A' for Active; 'I' for Inactive)
REMARK    1  A    between atoms: C_1  and  C_2
REMARK    2  A    between atoms: C_5  and  C_6
REMARK    3  A    between atoms: C_7  and  C_8
REMARK    4  A    between atoms: C_8  and  N_9
REMARK                            x       y       z     vdW  Elec       q    Type
REMARK                         _______ _______ _______ _____ _____    ______ ____
ROOT
ATOM      1  N   UNL     1      -1.638  12.589  19.157  0.00  0.00    +0.000 NA
ATOM      2  C   UNL     1      -1.895  11.867  17.905  0.00  0.00    +0.000 C 
ATOM      3  C   UNL     1      -1.677  10.341  18.029  0.00  0.00    +0.000 C 
ATOM      4  O   UNL     1      -1.103   9.855  19.262  0.00  0.00    +0.000 OA
ATOM      5  C   UNL     1      -0.101  10.658  19.932  0.00  0.00    +0.000 C 
ATOM      6  C   UNL     1      -0.338  10.636  21.471  0.00  0.00    +0.000 C 
ATOM      7  C   UNL     1      -0.312   9.250  22.061  0.00  0.00    +0.000 C 
ATOM      8  C   UNL     1       1.055   8.646  21.853  0.00  0.00    +0.000 C 
ATOM      9  N   UNL     1       1.390   8.689  20.434  0.00  0.00    +0.000 N 
ATOM     10  C   UNL     1       1.880   7.536  19.874  0.00  0.00    +0.000 A 
ATOM     11  N   UNL     1       1.833   6.411  20.623  0.00  0.00    +0.000 NA
ATOM     12  C   UNL     1       2.266   5.258  20.098  0.00  0.00    +0.000 A 
ATOM     13  C   UNL     1       2.788   5.169  18.845  0.00  0.00    +0.000 A 
ATOM     14  C   UNL     1       2.834   6.357  18.155  0.00  0.00    +0.000 A 
ATOM     15  N   UNL     1       2.393   7.539  18.635  0.00  0.00    +0.000 NA
ATOM     16  C   UNL     1       1.317   9.991  19.725  0.00  0.00    +0.000 C 
ATOM     17  C   UNL     1      -0.234  12.159  19.512  0.00  0.00    +0.000 C 
ENDROOT
BRANCH   1  18
ATOM     18  C   UNL     1      -2.654  12.211  20.183  0.00  0.00    +0.000 C 
BRANCH  18  25
ATOM     19  C   UNL     1      -1.704  13.759  22.801  0.00  0.00    +0.000 C 
ATOM     20  C   UNL     1      -2.932  14.021  22.018  0.00  0.00    +0.000 A 
ATOM     21  N   UNL     1      -3.832  14.906  22.453  0.00  0.00    +0.000 NA
ATOM     22  O   UNL     1      -4.910  14.783  21.608  0.00  0.00    +0.000 OA
ATOM     23  C   UNL     1      -4.662  13.825  20.673  0.00  0.00    +0.000 A 
ATOM     24  C   UNL     1      -5.832  13.488  19.831  0.00  0.00    +0.000 C 
ATOM     25  C   UNL     1      -3.364  13.350  20.842  0.00  0.00    +0.000 A 
ENDBRANCH  18  25
ENDBRANCH   1  18
TORSDOF 2
ENDMDL
MODEL 3
REMARK VINA RESULT:      -6.2      0.511      1.648
REMARK  Name = 
REMARK  4 active torsions:
REMARK  status: ('A' for Active; 'I' for Inactive)
REMARK    1  A    between atoms: C_1  and  C_2
REMARK    2  A    between atoms: C_5  and  C_6
REMARK    3  A    between atoms: C_7  and  C_8
REMARK    4  A    between atoms: C_8  and  N_9
REMARK                            x       y       z     vdW  Elec       q    Type
REMARK                         _______ _______ _______ _____ _____    ______ ____
ROOT
ATOM      1  N   UNL     1      -1.797  12.466  19.104  0.00  0.00    +0.000 NA
ATOM      2  C   UNL     1      -1.946  11.838  17.785  0.00  0.00    +0.000 C 
ATOM      3  C   UNL     1      -1.620  10.327  17.792  0.00  0.00    +0.000 C 
ATOM      4  O   UNL     1      -1.064   9.777  19.005  0.00  0.00    +0.000 OA
ATOM      5  C   UNL     1      -0.153  10.589  19.788  0.00  0.00    +0.000 C 
ATOM      6  C   UNL     1      -0.452  10.416  21.306  0.00  0.00    +0.000 C 
ATOM      7  C   UNL     1      -0.347   8.989  21.779  0.00  0.00    +0.000 C 
ATOM      8  C   UNL     1       1.069   8.505  21.587  0.00  0.00    +0.000 C 
ATOM      9  N   UNL     1       1.458   8.695  20.194  0.00  0.00    +0.000 N 
ATOM     10  C   UNL     1       2.057   7.633  19.565  0.00  0.00    +0.000 A 
ATOM     11  N   UNL     1       2.063   6.446  20.214  0.00  0.00    +0.000 NA
ATOM     12  C   UNL     1       2.603   5.377  19.616  0.00  0.00    +0.000 A 
ATOM     13  C   UNL     1       3.183   5.435  18.387  0.00  0.00    +0.000 A 
ATOM     14  C   UNL     1       3.168   6.679  17.801  0.00  0.00    +0.000 A 
ATOM     15  N   UNL     1       2.620   7.780  18.357  0.00  0.00    +0.000 NA
ATOM     16  C   UNL     1       1.318  10.045  19.595  0.00  0.00    +0.000 C 
ATOM     17  C   UNL     1      -0.381  12.107  19.489  0.00  0.00    +0.000 C 
ENDROOT
BRANCH   1  18
ATOM     18  C   UNL     1      -2.824  11.928  20.045  0.00  0.00    +0.000 C 
BRANCH  18  25
ATOM     19  C   UNL     1      -5.463  11.262  18.389  0.00  0.00    +0.000 C 
ATOM     20  C   UNL     1      -5.278  12.380  19.341  0.00  0.00    +0.000 A 
ATOM     21  N   UNL     1      -6.230  13.304  19.489  0.00  0.00    +0.000 NA
ATOM     22  O   UNL     1      -5.681  14.275  20.294  0.00  0.00    +0.000 OA
ATOM     23  C   UNL     1      -4.404  13.940  20.623  0.00  0.00    +0.000 A 
ATOM     24  C   UNL     1      -3.665  15.008  21.334  0.00  0.00    +0.000 C 
ATOM     25  C   UNL     1      -4.113  12.684  20.097  0.00  0.00    +0.000 A 
ENDBRANCH  18  25
ENDBRANCH   1  18
TORSDOF 2
ENDMDL
MODEL 4
REMARK VINA RESULT:      -6.2      1.877      8.018
REMARK  Name = 
REMARK  4 active torsions:
REMARK  status: ('A' for Active; 'I' for Inactive)
REMARK    1  A    between atoms: C_1  and  C_2
REMARK    2  A    between atoms: C_5  and  C_6
REMARK    3  A    between atoms: C_7  and  C_8
REMARK    4  A    between atoms: C_8  and  N_9
REMARK                            x       y       z     vdW  Elec       q    Type
REMARK                         _______ _______ _______ _____ _____    ______ ____
ROOT
ATOM      1  N   UNL     1       1.603   9.230  21.324  0.00  0.00    +0.000 NA
ATOM      2  C   UNL     1       1.017   9.250  22.670  0.00  0.00    +0.000 C 
ATOM      3  C   UNL     1      -0.498   9.559  22.667  0.00  0.00    +0.000 C 
ATOM      4  O   UNL     1      -1.091   9.945  21.408  0.00  0.00    +0.000 OA
ATOM      5  C   UNL     1      -0.314  10.752  20.488  0.00  0.00    +0.000 C 
ATOM      6  C   UNL     1      -0.528  10.254  19.029  0.00  0.00    +0.000 C 
ATOM      7  C   UNL     1      -1.970  10.282  18.590  0.00  0.00    +0.000 C 
ATOM      8  C   UNL     1      -2.467  11.707  18.609  0.00  0.00    +0.000 C 
ATOM      9  N   UNL     1      -2.241  12.278  19.932  0.00  0.00    +0.000 N 
ATOM     10  C   UNL     1      -3.292  12.945  20.510  0.00  0.00    +0.000 A 
ATOM     11  N   UNL     1      -4.497  12.855  19.903  0.00  0.00    +0.000 NA
ATOM     12  C   UNL     1      -5.556  13.459  20.457  0.00  0.00    +0.000 A 
ATOM     13  C   UNL     1      -5.469  14.196  21.597  0.00  0.00    +0.000 A 
ATOM     14  C   UNL     1      -4.208  14.270  22.141  0.00  0.00    +0.000 A 
ATOM     15  N   UNL     1      -3.117  13.664  21.628  0.00  0.00    +0.000 NA
ATOM     16  C   UNL     1      -0.872  12.231  20.503  0.00  0.00    +0.000 C 
ATOM     17  C   UNL     1       1.214  10.580  20.767  0.00  0.00    +0.000 C 
ENDROOT
BRANCH   1  18
ATOM     18  C   UNL     1       1.052   8.084  20.543  0.00  0.00    +0.000 C 
BRANCH  18  25
ATOM     19  C   UNL     1       2.358   8.783  17.722  0.00  0.00    +0.000 C 
ATOM     20  C   UNL     1       2.621   7.579  18.542  0.00  0.00    +0.000 A 
ATOM     21  N   UNL     1       3.387   6.595  18.066  0.00  0.00    +0.000 NA
ATOM     22  O   UNL     1       3.286   5.572  18.982  0.00  0.00    +0.000 OA
ATOM     23  C   UNL     1       2.459   5.938  19.998  0.00  0.00    +0.000 A 
ATOM     24  C   UNL     1       2.138   4.840  20.939  0.00  0.00    +0.000 C 
ATOM     25  C   UNL     1       2.058   7.258  19.807  0.00  0.00    +0.000 A 
ENDBRANCH  18  25
ENDBRANCH   1  18
TORSDOF 2
ENDMDL
MODEL 5
REMARK VINA RESULT:      -6.2      1.202      1.282
REMARK  Name = 
REMARK  4 active torsions:
REMARK  status: ('A' for Active; 'I' for Inactive)
REMARK    1  A    between atoms: C_1  and  C_2
REMARK    2  A    between atoms: C_5  and  C_6
REMARK    3  A    between atoms: C_7  and  C_8
REMARK    4  A    between atoms: C_8  and  N_9
REMARK                            x       y       z     vdW  Elec       q    Type
REMARK                         _______ _______ _______ _____ _____    ______ ____
ROOT
ATOM      1  N   UNL     1      -2.749  12.190  17.977  0.00  0.00    +0.000 NA
ATOM      2  C   UNL     1      -2.828  11.302  16.811  0.00  0.00    +0.000 C 
ATOM      3  C   UNL     1      -2.207   9.909  17.066  0.00  0.00    +0.000 C 
ATOM      4  O   UNL     1      -1.500   9.719  18.311  0.00  0.00    +0.000 OA
ATOM      5  C   UNL     1      -0.736  10.823  18.857  0.00  0.00    +0.000 C 
ATOM      6  C   UNL     1      -0.929  10.896  20.400  0.00  0.00    +0.000 C 
ATOM      7  C   UNL     1      -0.522   9.633  21.116  0.00  0.00    +0.000 C 
ATOM      8  C   UNL     1       0.953   9.394  20.902  0.00  0.00    +0.000 C 
ATOM      9  N   UNL     1       1.236   9.380  19.471  0.00  0.00    +0.000 N 
ATOM     10  C   UNL     1       2.006   8.346  18.999  0.00  0.00    +0.000 A 
ATOM     11  N   UNL     1       2.276   7.331  19.851  0.00  0.00    +0.000 NA
ATOM     12  C   UNL     1       2.992   6.286  19.417  0.00  0.00    +0.000 A 
ATOM     13  C   UNL     1       3.494   6.211  18.154  0.00  0.00    +0.000 A 
ATOM     14  C   UNL     1       3.207   7.293  17.355  0.00  0.00    +0.000 A 
ATOM     15  N   UNL     1       2.476   8.359  17.743  0.00  0.00    +0.000 NA
ATOM     16  C   UNL     1       0.804  10.537  18.648  0.00  0.00    +0.000 C 
ATOM     17  C   UNL     1      -1.274  12.184  18.306  0.00  0.00    +0.000 C 
ENDROOT
BRANCH   1  18
ATOM     18  C   UNL     1      -3.606  11.663  19.079  0.00  0.00    +0.000 C 
BRANCH  18  25
ATOM     19  C   UNL     1      -4.141  12.687  22.049  0.00  0.00    +0.000 C 
ATOM     20  C   UNL     1      -4.952  12.995  20.850  0.00  0.00    +0.000 A 
ATOM     21  N   UNL     1      -6.096  13.674  20.967  0.00  0.00    +0.000 NA
ATOM     22  O   UNL     1      -6.677  13.637  19.720  0.00  0.00    +0.000 OA
ATOM     23  C   UNL     1      -5.890  12.934  18.861  0.00  0.00    +0.000 A 
ATOM     24  C   UNL     1      -6.515  12.679  17.543  0.00  0.00    +0.000 C 
ATOM     25  C   UNL     1      -4.720  12.559  19.517  0.00  0.00    +0.000 A 
ENDBRANCH  18  25
ENDBRANCH   1  18
TORSDOF 2
ENDMDL
MODEL 6
REMARK VINA RESULT:      -6.2      1.317      1.979
REMARK  Name = 
REMARK  4 active torsions:
REMARK  status: ('A' for Active; 'I' for Inactive)
REMARK    1  A    between atoms: C_1  and  C_2
REMARK    2  A    between atoms: C_5  and  C_6
REMARK    3  A    between atoms: C_7  and  C_8
REMARK    4  A    between atoms: C_8  and  N_9
REMARK                            x       y       z     vdW  Elec       q    Type
REMARK                         _______ _______ _______ _____ _____    ______ ____
ROOT
ATOM      1  N   UNL     1      -2.777  12.000  17.656  0.00  0.00    +0.000 NA
ATOM      2  C   UNL     1      -2.723  11.143  16.465  0.00  0.00    +0.000 C 
ATOM      3  C   UNL     1      -2.066   9.770  16.735  0.00  0.00    +0.000 C 
ATOM      4  O   UNL     1      -1.454   9.574  18.028  0.00  0.00    +0.000 OA
ATOM      5  C   UNL     1      -0.785  10.692  18.662  0.00  0.00    +0.000 C 
ATOM      6  C   UNL     1      -1.104  10.712  20.186  0.00  0.00    +0.000 C 
ATOM      7  C   UNL     1      -0.701   9.447  20.900  0.00  0.00    +0.000 C 
ATOM      8  C   UNL     1       0.795   9.275  20.801  0.00  0.00    +0.000 C 
ATOM      9  N   UNL     1       1.192   9.313  19.398  0.00  0.00    +0.000 N 
ATOM     10  C   UNL     1       2.041   8.326  18.965  0.00  0.00    +0.000 A 
ATOM     11  N   UNL     1       2.286   7.299  19.810  0.00  0.00    +0.000 NA
ATOM     12  C   UNL     1       3.078   6.297  19.409  0.00  0.00    +0.000 A 
ATOM     13  C   UNL     1       3.684   6.279  18.191  0.00  0.00    +0.000 A 
ATOM     14  C   UNL     1       3.415   7.371  17.398  0.00  0.00    +0.000 A 
ATOM     15  N   UNL     1       2.610   8.394  17.752  0.00  0.00    +0.000 NA
ATOM     16  C   UNL     1       0.778  10.475  18.573  0.00  0.00    +0.000 C 
ATOM     17  C   UNL     1      -1.335  12.045  18.104  0.00  0.00    +0.000 C 
ENDROOT
BRANCH   1  18
ATOM     18  C   UNL     1      -3.697  11.407  18.671  0.00  0.00    +0.000 C 
BRANCH  18  25
ATOM     19  C   UNL     1      -6.242  12.761  17.314  0.00  0.00    +0.000 C 
ATOM     20  C   UNL     1      -5.766  12.969  18.700  0.00  0.00    +0.000 A 
ATOM     21  N   UNL     1      -6.347  13.881  19.482  0.00  0.00    +0.000 NA
ATOM     22  O   UNL     1      -5.570  13.945  20.616  0.00  0.00    +0.000 OA
ATOM     23  C   UNL     1      -4.525  13.080  20.513  0.00  0.00    +0.000 A 
ATOM     24  C   UNL     1      -3.529  13.208  21.601  0.00  0.00    +0.000 C 
ATOM     25  C   UNL     1      -4.642  12.363  19.325  0.00  0.00    +0.000 A 
ENDBRANCH  18  25
ENDBRANCH   1  18
TORSDOF 2
ENDMDL
MODEL 7
REMARK VINA RESULT:      -6.2      1.873      8.153
REMARK  Name = 
REMARK  4 active torsions:
REMARK  status: ('A' for Active; 'I' for Inactive)
REMARK    1  A    between atoms: C_1  and  C_2
REMARK    2  A    between atoms: C_5  and  C_6
REMARK    3  A    between atoms: C_7  and  C_8
REMARK    4  A    between atoms: C_8  and  N_9
REMARK                            x       y       z     vdW  Elec       q    Type
REMARK                         _______ _______ _______ _____ _____    ______ ____
ROOT
ATOM      1  N   UNL     1       1.871   8.806  20.476  0.00  0.00    +0.000 NA
ATOM      2  C   UNL     1       1.156   8.529  21.728  0.00  0.00    +0.000 C 
ATOM      3  C   UNL     1      -0.374   8.715  21.608  0.00  0.00    +0.000 C 
ATOM      4  O   UNL     1      -0.875   9.283  20.378  0.00  0.00    +0.000 OA
ATOM      5  C   UNL     1      -0.094  10.305  19.711  0.00  0.00    +0.000 C 
ATOM      6  C   UNL     1      -0.114  10.073  18.171  0.00  0.00    +0.000 C 
ATOM      7  C   UNL     1      -1.502  10.072  17.583  0.00  0.00    +0.000 C 
ATOM      8  C   UNL     1      -2.134  11.426  17.798  0.00  0.00    +0.000 C 
ATOM      9  N   UNL     1      -2.095  11.755  19.219  0.00  0.00    +0.000 N 
ATOM     10  C   UNL     1      -3.257  12.219  19.782  0.00  0.00    +0.000 A 
ATOM     11  N   UNL     1      -4.382  12.151  19.035  0.00  0.00    +0.000 NA
ATOM     12  C   UNL     1      -5.544  12.557  19.564  0.00  0.00    +0.000 A 
ATOM     13  C   UNL     1      -5.641  13.073  20.819  0.00  0.00    +0.000 A 
ATOM     14  C   UNL     1      -4.452  13.141  21.508  0.00  0.00    +0.000 A 
ATOM     15  N   UNL     1      -3.262  12.727  21.023  0.00  0.00    +0.000 NA
ATOM     16  C   UNL     1      -0.791  11.707  19.924  0.00  0.00    +0.000 C 
ATOM     17  C   UNL     1       1.410  10.202  20.127  0.00  0.00    +0.000 C 
ENDROOT
BRANCH   1  18
ATOM     18  C   UNL     1       1.512   7.786  19.447  0.00  0.00    +0.000 C 
BRANCH  18  25
ATOM     19  C   UNL     1       3.905   7.470  17.367  0.00  0.00    +0.000 C 
ATOM     20  C   UNL     1       3.496   6.489  18.396  0.00  0.00    +0.000 A 
ATOM     21  N   UNL     1       4.071   5.285  18.446  0.00  0.00    +0.000 NA
ATOM     22  O   UNL     1       3.355   4.572  19.379  0.00  0.00    +0.000 OA
ATOM     23  C   UNL     1       2.352   5.340  19.883  0.00  0.00    +0.000 A 
ATOM     24  C   UNL     1       1.411   4.605  20.758  0.00  0.00    +0.000 C 
ATOM     25  C   UNL     1       2.440   6.620  19.340  0.00  0.00    +0.000 A 
ENDBRANCH  18  25
ENDBRANCH   1  18
TORSDOF 2
ENDMDL
MODEL 8
REMARK VINA RESULT:      -6.1      1.474      2.138
REMARK  Name = 
REMARK  4 active torsions:
REMARK  status: ('A' for Active; 'I' for Inactive)
REMARK    1  A    between atoms: C_1  and  C_2
REMARK    2  A    between atoms: C_5  and  C_6
REMARK    3  A    between atoms: C_7  and  C_8
REMARK    4  A    between atoms: C_8  and  N_9
REMARK                            x       y       z     vdW  Elec       q    Type
REMARK                         _______ _______ _______ _____ _____    ______ ____
ROOT
ATOM      1  N   UNL     1      -1.753  12.785  19.760  0.00  0.00    +0.000 NA
ATOM      2  C   UNL     1      -1.992  12.202  18.434  0.00  0.00    +0.000 C 
ATOM      3  C   UNL     1      -1.744  10.677  18.388  0.00  0.00    +0.000 C 
ATOM      4  O   UNL     1      -1.163  10.067  19.561  0.00  0.00    +0.000 OA
ATOM      5  C   UNL     1      -0.178  10.810  20.321  0.00  0.00    +0.000 C 
ATOM      6  C   UNL     1      -0.419  10.610  21.847  0.00  0.00    +0.000 C 
ATOM      7  C   UNL     1      -0.367   9.167  22.279  0.00  0.00    +0.000 C 
ATOM      8  C   UNL     1       1.013   8.618  22.010  0.00  0.00    +0.000 C 
ATOM      9  N   UNL     1       1.350   8.827  20.606  0.00  0.00    +0.000 N 
ATOM     10  C   UNL     1       1.865   7.754  19.923  0.00  0.00    +0.000 A 
ATOM     11  N   UNL     1       1.839   6.551  20.541  0.00  0.00    +0.000 NA
ATOM     12  C   UNL     1       2.296   5.472  19.893  0.00  0.00    +0.000 A 
ATOM     13  C   UNL     1       2.824   5.535  18.640  0.00  0.00    +0.000 A 
ATOM     14  C   UNL     1       2.847   6.794  18.087  0.00  0.00    +0.000 A 
ATOM     15  N   UNL     1       2.381   7.906  18.695  0.00  0.00    +0.000 NA
ATOM     16  C   UNL     1       1.253  10.198  20.048  0.00  0.00    +0.000 C 
ATOM     17  C   UNL     1      -0.341  12.345  20.072  0.00  0.00    +0.000 C 
ENDROOT
BRANCH   1  18
ATOM     18  C   UNL     1      -2.763  12.273  20.733  0.00  0.00    +0.000 C 
BRANCH  18  25
ATOM     19  C   UNL     1      -5.458  13.958  20.506  0.00  0.00    +0.000 C 
ATOM     20  C   UNL     1      -4.467  14.023  21.602  0.00  0.00    +0.000 A 
ATOM     21  N   UNL     1      -4.594  14.933  22.571  0.00  0.00    +0.000 NA
ATOM     22  O   UNL     1      -3.440  14.844  23.316  0.00  0.00    +0.000 OA
ATOM     23  C   UNL     1      -2.622  13.890  22.793  0.00  0.00    +0.000 A 
ATOM     24  C   UNL     1      -1.277  13.847  23.411  0.00  0.00    +0.000 C 
ATOM     25  C   UNL     1      -3.267  13.270  21.726  0.00  0.00    +0.000 A 
ENDBRANCH  18  25
ENDBRANCH   1  18
TORSDOF 2
ENDMDL
MODEL 9
REMARK VINA RESULT:      -6.1      1.878      2.326
REMARK  Name = 
REMARK  4 active torsions:
REMARK  status: ('A' for Active; 'I' for Inactive)
REMARK    1  A    between atoms: C_1  and  C_2
REMARK    2  A    between atoms: C_5  and  C_6
REMARK    3  A    between atoms: C_7  and  C_8
REMARK    4  A    between atoms: C_8  and  N_9
REMARK                            x       y       z     vdW  Elec       q    Type
REMARK                         _______ _______ _______ _____ _____    ______ ____
ROOT
ATOM      1  N   UNL     1      -1.383  12.785  19.220  0.00  0.00    +0.000 NA
ATOM      2  C   UNL     1      -1.817  12.011  18.051  0.00  0.00    +0.000 C 
ATOM      3  C   UNL     1      -1.697  10.483  18.257  0.00  0.00    +0.000 C 
ATOM      4  O   UNL     1      -1.037  10.029  19.459  0.00  0.00    +0.000 OA
ATOM      5  C   UNL     1       0.083  10.791  19.973  0.00  0.00    +0.000 C 
ATOM      6  C   UNL     1       0.002  10.880  21.525  0.00  0.00    +0.000 C 
ATOM      7  C   UNL     1      -0.012   9.534  22.203  0.00  0.00    +0.000 C 
ATOM      8  C   UNL     1       1.281   8.814  21.905  0.00  0.00    +0.000 C 
ATOM      9  N   UNL     1       1.472   8.746  20.461  0.00  0.00    +0.000 N 
ATOM     10  C   UNL     1       1.819   7.526  19.936  0.00  0.00    +0.000 A 
ATOM     11  N   UNL     1       1.768   6.456  20.761  0.00  0.00    +0.000 NA
ATOM     12  C   UNL     1       2.062   5.242  20.276  0.00  0.00    +0.000 A 
ATOM     13  C   UNL     1       2.447   5.038  18.987  0.00  0.00    +0.000 A 
ATOM     14  C   UNL     1       2.507   6.175  18.216  0.00  0.00    +0.000 A 
ATOM     15  N   UNL     1       2.203   7.415  18.656  0.00  0.00    +0.000 NA
ATOM     16  C   UNL     1       1.421  10.004  19.676  0.00  0.00    +0.000 C 
ATOM     17  C   UNL     1       0.015  12.269  19.467  0.00  0.00    +0.000 C 
ENDROOT
BRANCH   1  18
ATOM     18  C   UNL     1      -2.314  12.550  20.364  0.00  0.00    +0.000 C 
BRANCH  18  25
ATOM     19  C   UNL     1      -3.018  12.047  23.430  0.00  0.00    +0.000 C 
ATOM     20  C   UNL     1      -2.595  13.327  22.821  0.00  0.00    +0.000 A 
ATOM     21  N   UNL     1      -2.590  14.449  23.545  0.00  0.00    +0.000 NA
ATOM     22  O   UNL     1      -2.324  15.464  22.654  0.00  0.00    +0.000 OA
ATOM     23  C   UNL     1      -2.175  14.955  21.401  0.00  0.00    +0.000 A 
ATOM     24  C   UNL     1      -2.070  15.984  20.342  0.00  0.00    +0.000 C 
ATOM     25  C   UNL     1      -2.264  13.566  21.459  0.00  0.00    +0.000 A 
ENDBRANCH  18  25
ENDBRANCH   1  18
TORSDOF 2
ENDMDL
