MODEL 1
REMARK VINA RESULT:      -8.6      0.000      0.000
REMARK  Name = 
REMARK  9 active torsions:
REMARK  status: ('A' for Active; 'I' for Inactive)
REMARK    1  A    between atoms: C_1  and  C_2
REMARK    2  A    between atoms: C_2  and  C_3
REMARK    3  A    between atoms: C_3  and  C_4
REMARK    4  A    between atoms: C_4  and  N_5
REMARK    5  A    between atoms: C_6  and  C_8
REMARK    6  A    between atoms: C_12  and  C_13
REMARK    7  A    between atoms: C_16  and  O_17
REMARK    8  A    between atoms: O_17  and  C_18
REMARK    9  A    between atoms: C_18  and  C_19
REMARK                            x       y       z     vdW  Elec       q    Type
REMARK                         _______ _______ _______ _____ _____    ______ ____
ROOT
ATOM      1  C   UNL     1       5.079   4.726  16.772  0.00  0.00    +0.000 A 
ATOM      2  C   UNL     1       4.490   3.482  17.018  0.00  0.00    +0.000 A 
ATOM      3  C   UNL     1       3.338   3.397  17.788  0.00  0.00    +0.000 A 
ATOM      4  C   UNL     1       2.757   4.556  18.294  0.00  0.00    +0.000 A 
ATOM      5  C   UNL     1       3.299   5.827  18.030  0.00  0.00    +0.000 A 
ATOM      6  C   UNL     1       4.490   5.892  17.277  0.00  0.00    +0.000 A 
ENDROOT
BRANCH   5   7
ATOM      7  C   UNL     1       2.610   7.042  18.507  0.00  0.00    +0.000 A 
ATOM      8  C   UNL     1       2.115   7.135  19.814  0.00  0.00    +0.000 A 
ATOM      9  C   UNL     1       1.446   8.276  20.249  0.00  0.00    +0.000 A 
ATOM     10  C   UNL     1       1.280   9.365  19.398  0.00  0.00    +0.000 A 
ATOM     11  C   UNL     1       1.743   9.294  18.089  0.00  0.00    +0.000 A 
ATOM     12  C   UNL     1       2.414   8.150  17.656  0.00  0.00    +0.000 A 
BRANCH  10  13
ATOM     13  O   UNL     1       0.683  10.536  19.767  0.00  0.00    +0.000 OA
BRANCH  13  14
ATOM     14  C   UNL     1       0.310  11.366  18.662  0.00  0.00    +0.000 C 
BRANCH  14  15
ATOM     15  C   UNL     1      -1.147  11.153  18.376  0.00  0.00    +0.000 A 
ATOM     16  C   UNL     1      -2.120  11.979  18.947  0.00  0.00    +0.000 A 
ATOM     17  C   UNL     1      -3.470  11.733  18.708  0.00  0.00    +0.000 A 
ATOM     18  C   UNL     1      -3.852  10.673  17.885  0.00  0.00    +0.000 A 
ATOM     19  C   UNL     1      -2.886   9.874  17.276  0.00  0.00    +0.000 A 
ATOM     20  C   UNL     1      -1.537  10.118  17.516  0.00  0.00    +0.000 A 
ENDBRANCH  14  15
ENDBRANCH  13  14
ENDBRANCH  10  13
ENDBRANCH   5   7
BRANCH   1  22
ATOM     21  N   UNL     1       6.047   4.649  14.531  0.00  0.00    +0.000 N 
ATOM     22  C   UNL     1       6.267   4.768  15.881  0.00  0.00    +0.000 C 
ATOM     23  O   UNL     1       7.382   4.918  16.374  0.00  0.00    +0.000 OA
ATOM     24  H   UNL     1       5.103   4.615  14.164  0.00  0.00    +0.000 HD
BRANCH  21  25
ATOM     25  C   UNL     1       7.154   4.603  13.590  0.00  0.00    +0.000 C 
BRANCH  25  26
ATOM     26  C   UNL     1       6.703   4.222  12.180  0.00  0.00    +0.000 C 
BRANCH  26  28
ATOM     27  C   UNL     1       4.459   3.315  11.461  0.00  0.00    +0.000 C 
ATOM     28  C   UNL     1       5.766   3.012  12.174  0.00  0.00    +0.000 C 
ENDBRANCH  26  28
ENDBRANCH  25  26
ENDBRANCH  21  25
ENDBRANCH   1  22
TORSDOF 8
ENDMDL
MODEL 2
REMARK VINA RESULT:      -8.3      1.335      1.984
REMARK  Name = 
REMARK  9 active torsions:
REMARK  status: ('A' for Active; 'I' for Inactive)
REMARK    1  A    between atoms: C_1  and  C_2
REMARK    2  A    between atoms: C_2  and  C_3
REMARK    3  A    between atoms: C_3  and  C_4
REMARK    4  A    between atoms: C_4  and  N_5
REMARK    5  A    between atoms: C_6  and  C_8
REMARK    6  A    between atoms: C_12  and  C_13
REMARK    7  A    between atoms: C_16  and  O_17
REMARK    8  A    between atoms: O_17  and  C_18
REMARK    9  A    between atoms: C_18  and  C_19
REMARK                            x       y       z     vdW  Elec       q    Type
REMARK                         _______ _______ _______ _____ _____    ______ ____
ROOT
ATOM      1  C   UNL     1       6.346   5.092  15.841  0.00  0.00    +0.000 A 
ATOM      2  C   UNL     1       7.200   4.503  16.777  0.00  0.00    +0.000 A 
ATOM      3  C   UNL     1       7.014   4.738  18.134  0.00  0.00    +0.000 A 
ATOM      4  C   UNL     1       5.961   5.542  18.558  0.00  0.00    +0.000 A 
ATOM      5  C   UNL     1       5.057   6.116  17.645  0.00  0.00    +0.000 A 
ATOM      6  C   UNL     1       5.283   5.896  16.270  0.00  0.00    +0.000 A 
ENDROOT
BRANCH   5   7
ATOM      7  C   UNL     1       3.900   6.890  18.132  0.00  0.00    +0.000 A 
ATOM      8  C   UNL     1       3.241   6.549  19.320  0.00  0.00    +0.000 A 
ATOM      9  C   UNL     1       2.134   7.270  19.761  0.00  0.00    +0.000 A 
ATOM     10  C   UNL     1       1.677   8.370  19.041  0.00  0.00    +0.000 A 
ATOM     11  C   UNL     1       2.298   8.721  17.848  0.00  0.00    +0.000 A 
ATOM     12  C   UNL     1       3.406   7.997  17.410  0.00  0.00    +0.000 A 
BRANCH  10  13
ATOM     13  O   UNL     1       0.633   9.158  19.435  0.00  0.00    +0.000 OA
BRANCH  13  14
ATOM     14  C   UNL     1       0.498  10.360  18.671  0.00  0.00    +0.000 C 
BRANCH  14  15
ATOM     15  C   UNL     1      -0.945  10.526  18.293  0.00  0.00    +0.000 A 
ATOM     16  C   UNL     1      -1.506   9.778  17.253  0.00  0.00    +0.000 A 
ATOM     17  C   UNL     1      -2.833   9.983  16.886  0.00  0.00    +0.000 A 
ATOM     18  C   UNL     1      -3.609  10.922  17.566  0.00  0.00    +0.000 A 
ATOM     19  C   UNL     1      -3.069  11.639  18.632  0.00  0.00    +0.000 A 
ATOM     20  C   UNL     1      -1.743  11.436  18.999  0.00  0.00    +0.000 A 
ENDBRANCH  14  15
ENDBRANCH  13  14
ENDBRANCH  10  13
ENDBRANCH   5   7
BRANCH   1  22
ATOM     21  N   UNL     1       5.769   3.740  13.890  0.00  0.00    +0.000 N 
ATOM     22  C   UNL     1       6.543   4.748  14.409  0.00  0.00    +0.000 C 
ATOM     23  O   UNL     1       7.368   5.376  13.749  0.00  0.00    +0.000 OA
ATOM     24  H   UNL     1       5.042   3.310  14.449  0.00  0.00    +0.000 HD
BRANCH  21  25
ATOM     25  C   UNL     1       5.946   3.285  12.521  0.00  0.00    +0.000 C 
BRANCH  25  26
ATOM     26  C   UNL     1       4.992   3.978  11.549  0.00  0.00    +0.000 C 
BRANCH  26  28
ATOM     27  C   UNL     1       3.069   3.674   9.943  0.00  0.00    +0.000 C 
ATOM     28  C   UNL     1       3.867   3.055  11.078  0.00  0.00    +0.000 C 
ENDBRANCH  26  28
ENDBRANCH  25  26
ENDBRANCH  21  25
ENDBRANCH   1  22
TORSDOF 8
ENDMDL
MODEL 3
REMARK VINA RESULT:      -8.2      1.660      2.414
REMARK  Name = 
REMARK  9 active torsions:
REMARK  status: ('A' for Active; 'I' for Inactive)
REMARK    1  A    between atoms: C_1  and  C_2
REMARK    2  A    between atoms: C_2  and  C_3
REMARK    3  A    between atoms: C_3  and  C_4
REMARK    4  A    between atoms: C_4  and  N_5
REMARK    5  A    between atoms: C_6  and  C_8
REMARK    6  A    between atoms: C_12  and  C_13
REMARK    7  A    between atoms: C_16  and  O_17
REMARK    8  A    between atoms: O_17  and  C_18
REMARK    9  A    between atoms: C_18  and  C_19
REMARK                            x       y       z     vdW  Elec       q    Type
REMARK                         _______ _______ _______ _____ _____    ______ ____
ROOT
ATOM      1  C   UNL     1       4.990   5.072  16.625  0.00  0.00    +0.000 A 
ATOM      2  C   UNL     1       4.519   3.806  16.983  0.00  0.00    +0.000 A 
ATOM      3  C   UNL     1       3.455   3.682  17.868  0.00  0.00    +0.000 A 
ATOM      4  C   UNL     1       2.846   4.824  18.379  0.00  0.00    +0.000 A 
ATOM      5  C   UNL     1       3.267   6.114  18.007  0.00  0.00    +0.000 A 
ATOM      6  C   UNL     1       4.372   6.220  17.136  0.00  0.00    +0.000 A 
ENDROOT
BRANCH   5   7
ATOM      7  C   UNL     1       2.544   7.302  18.497  0.00  0.00    +0.000 A 
ATOM      8  C   UNL     1       2.257   8.382  17.652  0.00  0.00    +0.000 A 
ATOM      9  C   UNL     1       1.595   9.511  18.129  0.00  0.00    +0.000 A 
ATOM     10  C   UNL     1       1.174   9.576  19.454  0.00  0.00    +0.000 A 
ATOM     11  C   UNL     1       1.462   8.528  20.321  0.00  0.00    +0.000 A 
ATOM     12  C   UNL     1       2.124   7.399  19.841  0.00  0.00    +0.000 A 
BRANCH  10  13
ATOM     13  O   UNL     1       0.474  10.624  19.981  0.00  0.00    +0.000 OA
BRANCH  13  14
ATOM     14  C   UNL     1      -0.118  10.340  21.252  0.00  0.00    +0.000 C 
BRANCH  14  15
ATOM     15  C   UNL     1      -1.116  11.415  21.565  0.00  0.00    +0.000 A 
ATOM     16  C   UNL     1      -1.751  12.126  20.541  0.00  0.00    +0.000 A 
ATOM     17  C   UNL     1      -2.637  13.154  20.853  0.00  0.00    +0.000 A 
ATOM     18  C   UNL     1      -2.905  13.464  22.187  0.00  0.00    +0.000 A 
ATOM     19  C   UNL     1      -2.310  12.730  23.212  0.00  0.00    +0.000 A 
ATOM     20  C   UNL     1      -1.423  11.704  22.901  0.00  0.00    +0.000 A 
ENDBRANCH  14  15
ENDBRANCH  13  14
ENDBRANCH  10  13
ENDBRANCH   5   7
BRANCH   1  22
ATOM     21  N   UNL     1       5.929   4.413  14.469  0.00  0.00    +0.000 N 
ATOM     22  C   UNL     1       6.080   5.148  15.618  0.00  0.00    +0.000 C 
ATOM     23  O   UNL     1       7.054   5.864  15.840  0.00  0.00    +0.000 OA
ATOM     24  H   UNL     1       5.070   3.906  14.291  0.00  0.00    +0.000 HD
BRANCH  21  25
ATOM     25  C   UNL     1       6.977   4.366  13.463  0.00  0.00    +0.000 C 
BRANCH  25  26
ATOM     26  C   UNL     1       6.480   3.805  12.130  0.00  0.00    +0.000 C 
BRANCH  26  28
ATOM     27  C   UNL     1       4.231   3.246  11.130  0.00  0.00    +0.000 C 
ATOM     28  C   UNL     1       5.189   2.998  12.283  0.00  0.00    +0.000 C 
ENDBRANCH  26  28
ENDBRANCH  25  26
ENDBRANCH  21  25
ENDBRANCH   1  22
TORSDOF 8
ENDMDL
MODEL 4
REMARK VINA RESULT:      -8.1      1.079      1.522
REMARK  Name = 
REMARK  9 active torsions:
REMARK  status: ('A' for Active; 'I' for Inactive)
REMARK    1  A    between atoms: C_1  and  C_2
REMARK    2  A    between atoms: C_2  and  C_3
REMARK    3  A    between atoms: C_3  and  C_4
REMARK    4  A    between atoms: C_4  and  N_5
REMARK    5  A    between atoms: C_6  and  C_8
REMARK    6  A    between atoms: C_12  and  C_13
REMARK    7  A    between atoms: C_16  and  O_17
REMARK    8  A    between atoms: O_17  and  C_18
REMARK    9  A    between atoms: C_18  and  C_19
REMARK                            x       y       z     vdW  Elec       q    Type
REMARK                         _______ _______ _______ _____ _____    ______ ____
ROOT
ATOM      1  C   UNL     1       4.533   5.472  17.342  0.00  0.00    +0.000 A 
ATOM      2  C   UNL     1       4.314   4.321  18.103  0.00  0.00    +0.000 A 
ATOM      3  C   UNL     1       3.444   4.356  19.186  0.00  0.00    +0.000 A 
ATOM      4  C   UNL     1       2.775   5.536  19.496  0.00  0.00    +0.000 A 
ATOM      5  C   UNL     1       2.940   6.702  18.726  0.00  0.00    +0.000 A 
ATOM      6  C   UNL     1       3.854   6.657  17.652  0.00  0.00    +0.000 A 
ENDROOT
BRANCH   5   7
ATOM      7  C   UNL     1       2.149   7.910  19.027  0.00  0.00    +0.000 A 
ATOM      8  C   UNL     1       1.509   8.074  20.262  0.00  0.00    +0.000 A 
ATOM      9  C   UNL     1       0.745   9.207  20.530  0.00  0.00    +0.000 A 
ATOM     10  C   UNL     1       0.626  10.219  19.582  0.00  0.00    +0.000 A 
ATOM     11  C   UNL     1       1.233  10.075  18.340  0.00  0.00    +0.000 A 
ATOM     12  C   UNL     1       1.999   8.940  18.075  0.00  0.00    +0.000 A 
BRANCH  10  13
ATOM     13  O   UNL     1      -0.060  11.381  19.790  0.00  0.00    +0.000 OA
BRANCH  13  14
ATOM     14  C   UNL     1      -0.514  12.006  18.585  0.00  0.00    +0.000 C 
BRANCH  14  15
ATOM     15  C   UNL     1      -1.919  11.557  18.315  0.00  0.00    +0.000 A 
ATOM     16  C   UNL     1      -2.191  10.598  17.334  0.00  0.00    +0.000 A 
ATOM     17  C   UNL     1      -3.508  10.231  17.064  0.00  0.00    +0.000 A 
ATOM     18  C   UNL     1      -4.554  10.808  17.784  0.00  0.00    +0.000 A 
ATOM     19  C   UNL     1      -4.288  11.731  18.794  0.00  0.00    +0.000 A 
ATOM     20  C   UNL     1      -2.973  12.099  19.062  0.00  0.00    +0.000 A 
ENDBRANCH  14  15
ENDBRANCH  13  14
ENDBRANCH  10  13
ENDBRANCH   5   7
BRANCH   1  22
ATOM     21  N   UNL     1       5.445   4.150  15.502  0.00  0.00    +0.000 N 
ATOM     22  C   UNL     1       5.414   5.360  16.151  0.00  0.00    +0.000 C 
ATOM     23  O   UNL     1       6.061   6.339  15.787  0.00  0.00    +0.000 OA
ATOM     24  H   UNL     1       4.829   3.398  15.785  0.00  0.00    +0.000 HD
BRANCH  21  25
ATOM     25  C   UNL     1       6.334   3.924  14.374  0.00  0.00    +0.000 C 
BRANCH  25  26
ATOM     26  C   UNL     1       5.579   3.829  13.048  0.00  0.00    +0.000 C 
BRANCH  26  28
ATOM     27  C   UNL     1       5.846   1.900  11.442  0.00  0.00    +0.000 C 
ATOM     28  C   UNL     1       6.430   3.213  11.936  0.00  0.00    +0.000 C 
ENDBRANCH  26  28
ENDBRANCH  25  26
ENDBRANCH  21  25
ENDBRANCH   1  22
TORSDOF 8
ENDMDL
MODEL 5
REMARK VINA RESULT:      -8.1      1.609      2.286
REMARK  Name = 
REMARK  9 active torsions:
REMARK  status: ('A' for Active; 'I' for Inactive)
REMARK    1  A    between atoms: C_1  and  C_2
REMARK    2  A    between atoms: C_2  and  C_3
REMARK    3  A    between atoms: C_3  and  C_4
REMARK    4  A    between atoms: C_4  and  N_5
REMARK    5  A    between atoms: C_6  and  C_8
REMARK    6  A    between atoms: C_12  and  C_13
REMARK    7  A    between atoms: C_16  and  O_17
REMARK    8  A    between atoms: O_17  and  C_18
REMARK    9  A    between atoms: C_18  and  C_19
REMARK                            x       y       z     vdW  Elec       q    Type
REMARK                         _______ _______ _______ _____ _____    ______ ____
ROOT
ATOM      1  C   UNL     1       4.506   4.991  16.847  0.00  0.00    +0.000 A 
ATOM      2  C   UNL     1       3.766   3.813  16.981  0.00  0.00    +0.000 A 
ATOM      3  C   UNL     1       2.580   3.813  17.705  0.00  0.00    +0.000 A 
ATOM      4  C   UNL     1       2.119   4.996  18.275  0.00  0.00    +0.000 A 
ATOM      5  C   UNL     1       2.817   6.209  18.123  0.00  0.00    +0.000 A 
ATOM      6  C   UNL     1       4.037   6.182  17.416  0.00  0.00    +0.000 A 
ENDROOT
BRANCH   5   7
ATOM      7  C   UNL     1       2.257   7.461  18.664  0.00  0.00    +0.000 A 
ATOM      8  C   UNL     1       2.030   8.574  17.844  0.00  0.00    +0.000 A 
ATOM      9  C   UNL     1       1.522   9.761  18.367  0.00  0.00    +0.000 A 
ATOM     10  C   UNL     1       1.200   9.856  19.718  0.00  0.00    +0.000 A 
ATOM     11  C   UNL     1       1.433   8.775  20.560  0.00  0.00    +0.000 A 
ATOM     12  C   UNL     1       1.940   7.588  20.033  0.00  0.00    +0.000 A 
BRANCH  10  13
ATOM     13  O   UNL     1       0.651  10.966  20.294  0.00  0.00    +0.000 OA
BRANCH  13  14
ATOM     14  C   UNL     1      -0.577  11.381  19.688  0.00  0.00    +0.000 C 
BRANCH  14  15
ATOM     15  C   UNL     1      -1.522  11.811  20.771  0.00  0.00    +0.000 A 
ATOM     16  C   UNL     1      -1.238  11.553  22.116  0.00  0.00    +0.000 A 
ATOM     17  C   UNL     1      -2.153  11.916  23.102  0.00  0.00    +0.000 A 
ATOM     18  C   UNL     1      -3.344  12.552  22.750  0.00  0.00    +0.000 A 
ATOM     19  C   UNL     1      -3.612  12.852  21.416  0.00  0.00    +0.000 A 
ATOM     20  C   UNL     1      -2.700  12.488  20.430  0.00  0.00    +0.000 A 
ENDBRANCH  14  15
ENDBRANCH  13  14
ENDBRANCH  10  13
ENDBRANCH   5   7
BRANCH   1  22
ATOM     21  N   UNL     1       5.564   4.639  14.673  0.00  0.00    +0.000 N 
ATOM     22  C   UNL     1       5.726   4.952  16.000  0.00  0.00    +0.000 C 
ATOM     23  O   UNL     1       6.816   5.208  16.506  0.00  0.00    +0.000 OA
ATOM     24  H   UNL     1       4.637   4.520  14.282  0.00  0.00    +0.000 HD
BRANCH  21  25
ATOM     25  C   UNL     1       6.708   4.501  13.788  0.00  0.00    +0.000 C 
BRANCH  25  26
ATOM     26  C   UNL     1       6.364   3.740  12.507  0.00  0.00    +0.000 C 
BRANCH  26  28
ATOM     27  C   UNL     1       4.327   3.331  11.073  0.00  0.00    +0.000 C 
ATOM     28  C   UNL     1       4.906   3.278  12.478  0.00  0.00    +0.000 C 
ENDBRANCH  26  28
ENDBRANCH  25  26
ENDBRANCH  21  25
ENDBRANCH   1  22
TORSDOF 8
ENDMDL
MODEL 6
REMARK VINA RESULT:      -8.0      1.436      2.036
REMARK  Name = 
REMARK  9 active torsions:
REMARK  status: ('A' for Active; 'I' for Inactive)
REMARK    1  A    between atoms: C_1  and  C_2
REMARK    2  A    between atoms: C_2  and  C_3
REMARK    3  A    between atoms: C_3  and  C_4
REMARK    4  A    between atoms: C_4  and  N_5
REMARK    5  A    between atoms: C_6  and  C_8
REMARK    6  A    between atoms: C_12  and  C_13
REMARK    7  A    between atoms: C_16  and  O_17
REMARK    8  A    between atoms: O_17  and  C_18
REMARK    9  A    between atoms: C_18  and  C_19
REMARK                            x       y       z     vdW  Elec       q    Type
REMARK                         _______ _______ _______ _____ _____    ______ ____
ROOT
ATOM      1  C   UNL     1       6.562   5.022  15.599  0.00  0.00    +0.000 A 
ATOM      2  C   UNL     1       7.348   4.348  16.538  0.00  0.00    +0.000 A 
ATOM      3  C   UNL     1       7.109   4.517  17.897  0.00  0.00    +0.000 A 
ATOM      4  C   UNL     1       6.070   5.341  18.318  0.00  0.00    +0.000 A 
ATOM      5  C   UNL     1       5.233   6.000  17.399  0.00  0.00    +0.000 A 
ATOM      6  C   UNL     1       5.513   5.846  16.025  0.00  0.00    +0.000 A 
ENDROOT
BRANCH   5   7
ATOM      7  C   UNL     1       4.086   6.795  17.877  0.00  0.00    +0.000 A 
ATOM      8  C   UNL     1       3.359   6.419  19.013  0.00  0.00    +0.000 A 
ATOM      9  C   UNL     1       2.263   7.162  19.444  0.00  0.00    +0.000 A 
ATOM     10  C   UNL     1       1.883   8.318  18.767  0.00  0.00    +0.000 A 
ATOM     11  C   UNL     1       2.573   8.705  17.625  0.00  0.00    +0.000 A 
ATOM     12  C   UNL     1       3.671   7.960  17.196  0.00  0.00    +0.000 A 
BRANCH  10  13
ATOM     13  O   UNL     1       0.855   9.126  19.158  0.00  0.00    +0.000 OA
BRANCH  13  14
ATOM     14  C   UNL     1       0.497  10.114  18.186  0.00  0.00    +0.000 C 
BRANCH  14  15
ATOM     15  C   UNL     1      -0.728  10.834  18.667  0.00  0.00    +0.000 A 
ATOM     16  C   UNL     1      -0.710  11.566  19.859  0.00  0.00    +0.000 A 
ATOM     17  C   UNL     1      -1.872  12.186  20.312  0.00  0.00    +0.000 A 
ATOM     18  C   UNL     1      -3.050  12.092  19.570  0.00  0.00    +0.000 A 
ATOM     19  C   UNL     1      -3.063  11.402  18.358  0.00  0.00    +0.000 A 
ATOM     20  C   UNL     1      -1.903  10.781  17.906  0.00  0.00    +0.000 A 
ENDBRANCH  14  15
ENDBRANCH  13  14
ENDBRANCH  10  13
ENDBRANCH   5   7
BRANCH   1  22
ATOM     21  N   UNL     1       6.191   3.654  13.610  0.00  0.00    +0.000 N 
ATOM     22  C   UNL     1       6.812   4.748  14.160  0.00  0.00    +0.000 C 
ATOM     23  O   UNL     1       7.542   5.503  13.523  0.00  0.00    +0.000 OA
ATOM     24  H   UNL     1       5.530   3.110  14.152  0.00  0.00    +0.000 HD
BRANCH  21  25
ATOM     25  C   UNL     1       6.437   3.264  12.232  0.00  0.00    +0.000 C 
BRANCH  25  26
ATOM     26  C   UNL     1       5.234   2.561  11.603  0.00  0.00    +0.000 C 
BRANCH  26  28
ATOM     27  C   UNL     1       3.370   3.365  10.103  0.00  0.00    +0.000 C 
ATOM     28  C   UNL     1       4.023   3.485  11.470  0.00  0.00    +0.000 C 
ENDBRANCH  26  28
ENDBRANCH  25  26
ENDBRANCH  21  25
ENDBRANCH   1  22
TORSDOF 8
ENDMDL
MODEL 7
REMARK VINA RESULT:      -7.9      2.180      2.805
REMARK  Name = 
REMARK  9 active torsions:
REMARK  status: ('A' for Active; 'I' for Inactive)
REMARK    1  A    between atoms: C_1  and  C_2
REMARK    2  A    between atoms: C_2  and  C_3
REMARK    3  A    between atoms: C_3  and  C_4
REMARK    4  A    between atoms: C_4  and  N_5
REMARK    5  A    between atoms: C_6  and  C_8
REMARK    6  A    between atoms: C_12  and  C_13
REMARK    7  A    between atoms: C_16  and  O_17
REMARK    8  A    between atoms: O_17  and  C_18
REMARK    9  A    between atoms: C_18  and  C_19
REMARK                            x       y       z     vdW  Elec       q    Type
REMARK                         _______ _______ _______ _____ _____    ______ ____
ROOT
ATOM      1  C   UNL     1       6.446   5.112  15.935  0.00  0.00    +0.000 A 
ATOM      2  C   UNL     1       7.346   4.599  16.873  0.00  0.00    +0.000 A 
ATOM      3  C   UNL     1       7.170   4.864  18.226  0.00  0.00    +0.000 A 
ATOM      4  C   UNL     1       6.081   5.622  18.644  0.00  0.00    +0.000 A 
ATOM      5  C   UNL     1       5.132   6.118  17.731  0.00  0.00    +0.000 A 
ATOM      6  C   UNL     1       5.348   5.870  16.359  0.00  0.00    +0.000 A 
ENDROOT
BRANCH   5   7
ATOM      7  C   UNL     1       3.942   6.843  18.215  0.00  0.00    +0.000 A 
ATOM      8  C   UNL     1       3.282   6.460  19.390  0.00  0.00    +0.000 A 
ATOM      9  C   UNL     1       2.145   7.134  19.828  0.00  0.00    +0.000 A 
ATOM     10  C   UNL     1       1.656   8.228  19.119  0.00  0.00    +0.000 A 
ATOM     11  C   UNL     1       2.279   8.619  17.939  0.00  0.00    +0.000 A 
ATOM     12  C   UNL     1       3.418   7.943  17.504  0.00  0.00    +0.000 A 
BRANCH  10  13
ATOM     13  O   UNL     1       0.581   8.972  19.512  0.00  0.00    +0.000 OA
BRANCH  13  14
ATOM     14  C   UNL     1       0.910  10.318  19.870  0.00  0.00    +0.000 C 
BRANCH  14  15
ATOM     15  C   UNL     1       0.012  10.747  20.992  0.00  0.00    +0.000 A 
ATOM     16  C   UNL     1      -0.668  11.968  20.942  0.00  0.00    +0.000 A 
ATOM     17  C   UNL     1      -1.458  12.369  22.017  0.00  0.00    +0.000 A 
ATOM     18  C   UNL     1      -1.585  11.546  23.136  0.00  0.00    +0.000 A 
ATOM     19  C   UNL     1      -0.946  10.308  23.174  0.00  0.00    +0.000 A 
ATOM     20  C   UNL     1      -0.155   9.907  22.102  0.00  0.00    +0.000 A 
ENDBRANCH  14  15
ENDBRANCH  13  14
ENDBRANCH  10  13
ENDBRANCH   5   7
BRANCH   1  22
ATOM     21  N   UNL     1       5.729   3.870  13.958  0.00  0.00    +0.000 N 
ATOM     22  C   UNL     1       6.639   4.737  14.510  0.00  0.00    +0.000 C 
ATOM     23  O   UNL     1       7.582   5.217  13.885  0.00  0.00    +0.000 OA
ATOM     24  H   UNL     1       4.919   3.568  14.486  0.00  0.00    +0.000 HD
BRANCH  21  25
ATOM     25  C   UNL     1       5.882   3.387  12.596  0.00  0.00    +0.000 C 
BRANCH  25  26
ATOM     26  C   UNL     1       4.895   4.046  11.631  0.00  0.00    +0.000 C 
BRANCH  26  28
ATOM     27  C   UNL     1       3.006   3.696   9.993  0.00  0.00    +0.000 C 
ATOM     28  C   UNL     1       3.978   3.027  10.951  0.00  0.00    +0.000 C 
ENDBRANCH  26  28
ENDBRANCH  25  26
ENDBRANCH  21  25
ENDBRANCH   1  22
TORSDOF 8
ENDMDL
MODEL 8
REMARK VINA RESULT:      -7.9      2.083      2.990
REMARK  Name = 
REMARK  9 active torsions:
REMARK  status: ('A' for Active; 'I' for Inactive)
REMARK    1  A    between atoms: C_1  and  C_2
REMARK    2  A    between atoms: C_2  and  C_3
REMARK    3  A    between atoms: C_3  and  C_4
REMARK    4  A    between atoms: C_4  and  N_5
REMARK    5  A    between atoms: C_6  and  C_8
REMARK    6  A    between atoms: C_12  and  C_13
REMARK    7  A    between atoms: C_16  and  O_17
REMARK    8  A    between atoms: O_17  and  C_18
REMARK    9  A    between atoms: C_18  and  C_19
REMARK                            x       y       z     vdW  Elec       q    Type
REMARK                         _______ _______ _______ _____ _____    ______ ____
ROOT
ATOM      1  C   UNL     1       4.796   5.086  16.670  0.00  0.00    +0.000 A 
ATOM      2  C   UNL     1       4.465   3.852  17.237  0.00  0.00    +0.000 A 
ATOM      3  C   UNL     1       3.534   3.785  18.265  0.00  0.00    +0.000 A 
ATOM      4  C   UNL     1       2.915   4.948  18.714  0.00  0.00    +0.000 A 
ATOM      5  C   UNL     1       3.193   6.201  18.137  0.00  0.00    +0.000 A 
ATOM      6  C   UNL     1       4.168   6.255  17.119  0.00  0.00    +0.000 A 
ENDROOT
BRANCH   5   7
ATOM      7  C   UNL     1       2.455   7.401  18.575  0.00  0.00    +0.000 A 
ATOM      8  C   UNL     1       2.021   7.548  19.898  0.00  0.00    +0.000 A 
ATOM      9  C   UNL     1       1.304   8.674  20.298  0.00  0.00    +0.000 A 
ATOM     10  C   UNL     1       1.030   9.695  19.392  0.00  0.00    +0.000 A 
ATOM     11  C   UNL     1       1.431   9.567  18.068  0.00  0.00    +0.000 A 
ATOM     12  C   UNL     1       2.150   8.440  17.670  0.00  0.00    +0.000 A 
BRANCH  10  13
ATOM     13  O   UNL     1       0.381  10.850  19.720  0.00  0.00    +0.000 OA
BRANCH  13  14
ATOM     14  C   UNL     1       1.130  11.706  20.589  0.00  0.00    +0.000 C 
BRANCH  14  15
ATOM     15  C   UNL     1       1.478  12.959  19.841  0.00  0.00    +0.000 A 
ATOM     16  C   UNL     1       2.429  12.944  18.816  0.00  0.00    +0.000 A 
ATOM     17  C   UNL     1       2.773  14.128  18.168  0.00  0.00    +0.000 A 
ATOM     18  C   UNL     1       2.157  15.326  18.529  0.00  0.00    +0.000 A 
ATOM     19  C   UNL     1       1.175  15.341  19.519  0.00  0.00    +0.000 A 
ATOM     20  C   UNL     1       0.832  14.159  20.168  0.00  0.00    +0.000 A 
ENDBRANCH  14  15
ENDBRANCH  13  14
ENDBRANCH  10  13
ENDBRANCH   5   7
BRANCH   1  22
ATOM     21  N   UNL     1       5.595   4.105  14.581  0.00  0.00    +0.000 N 
ATOM     22  C   UNL     1       5.741   5.092  15.523  0.00  0.00    +0.000 C 
ATOM     23  O   UNL     1       6.595   5.973  15.454  0.00  0.00    +0.000 OA
ATOM     24  H   UNL     1       4.822   3.452  14.635  0.00  0.00    +0.000 HD
BRANCH  21  25
ATOM     25  C   UNL     1       6.521   3.986  13.467  0.00  0.00    +0.000 C 
BRANCH  25  26
ATOM     26  C   UNL     1       5.889   3.298  12.257  0.00  0.00    +0.000 C 
BRANCH  26  28
ATOM     27  C   UNL     1       6.326   1.103  11.089  0.00  0.00    +0.000 C 
ATOM     28  C   UNL     1       6.898   2.457  11.472  0.00  0.00    +0.000 C 
ENDBRANCH  26  28
ENDBRANCH  25  26
ENDBRANCH  21  25
ENDBRANCH   1  22
TORSDOF 8
ENDMDL
MODEL 9
REMARK VINA RESULT:      -7.9      1.615      2.139
REMARK  Name = 
REMARK  9 active torsions:
REMARK  status: ('A' for Active; 'I' for Inactive)
REMARK    1  A    between atoms: C_1  and  C_2
REMARK    2  A    between atoms: C_2  and  C_3
REMARK    3  A    between atoms: C_3  and  C_4
REMARK    4  A    between atoms: C_4  and  N_5
REMARK    5  A    between atoms: C_6  and  C_8
REMARK    6  A    between atoms: C_12  and  C_13
REMARK    7  A    between atoms: C_16  and  O_17
REMARK    8  A    between atoms: O_17  and  C_18
REMARK    9  A    between atoms: C_18  and  C_19
REMARK                            x       y       z     vdW  Elec       q    Type
REMARK                         _______ _______ _______ _____ _____    ______ ____
ROOT
ATOM      1  C   UNL     1       4.823   4.816  16.609  0.00  0.00    +0.000 A 
ATOM      2  C   UNL     1       4.333   3.592  17.074  0.00  0.00    +0.000 A 
ATOM      3  C   UNL     1       3.325   3.563  18.030  0.00  0.00    +0.000 A 
ATOM      4  C   UNL     1       2.790   4.756  18.505  0.00  0.00    +0.000 A 
ATOM      5  C   UNL     1       3.230   6.004  18.027  0.00  0.00    +0.000 A 
ATOM      6  C   UNL     1       4.279   6.015  17.084  0.00  0.00    +0.000 A 
ENDROOT
BRANCH   5   7
ATOM      7  C   UNL     1       2.580   7.247  18.485  0.00  0.00    +0.000 A 
ATOM      8  C   UNL     1       2.087   7.374  19.790  0.00  0.00    +0.000 A 
ATOM      9  C   UNL     1       1.454   8.542  20.208  0.00  0.00    +0.000 A 
ATOM     10  C   UNL     1       1.325   9.624  19.342  0.00  0.00    +0.000 A 
ATOM     11  C   UNL     1       1.788   9.520  18.035  0.00  0.00    +0.000 A 
ATOM     12  C   UNL     1       2.422   8.350  17.620  0.00  0.00    +0.000 A 
BRANCH  10  13
ATOM     13  O   UNL     1       0.766  10.819  19.694  0.00  0.00    +0.000 OA
BRANCH  13  14
ATOM     14  C   UNL     1      -0.634  10.907  19.407  0.00  0.00    +0.000 C 
BRANCH  14  15
ATOM     15  C   UNL     1      -1.329  11.495  20.599  0.00  0.00    +0.000 A 
ATOM     16  C   UNL     1      -2.398  12.382  20.442  0.00  0.00    +0.000 A 
ATOM     17  C   UNL     1      -2.997  12.955  21.562  0.00  0.00    +0.000 A 
ATOM     18  C   UNL     1      -2.541  12.632  22.840  0.00  0.00    +0.000 A 
ATOM     19  C   UNL     1      -1.505  11.714  23.005  0.00  0.00    +0.000 A 
ATOM     20  C   UNL     1      -0.905  11.143  21.888  0.00  0.00    +0.000 A 
ENDBRANCH  14  15
ENDBRANCH  13  14
ENDBRANCH  10  13
ENDBRANCH   5   7
BRANCH   1  22
ATOM     21  N   UNL     1       5.451   4.346  14.295  0.00  0.00    +0.000 N 
ATOM     22  C   UNL     1       5.848   4.789  15.533  0.00  0.00    +0.000 C 
ATOM     23  O   UNL     1       6.990   5.169  15.782  0.00  0.00    +0.000 OA
ATOM     24  H   UNL     1       4.480   4.125  14.115  0.00  0.00    +0.000 HD
BRANCH  21  25
ATOM     25  C   UNL     1       6.402   4.214  13.204  0.00  0.00    +0.000 C 
BRANCH  25  26
ATOM     26  C   UNL     1       5.889   3.296  12.094  0.00  0.00    +0.000 C 
BRANCH  26  28
ATOM     27  C   UNL     1       6.322   1.066  10.993  0.00  0.00    +0.000 C 
ATOM     28  C   UNL     1       6.949   2.295  11.630  0.00  0.00    +0.000 C 
ENDBRANCH  26  28
ENDBRANCH  25  26
ENDBRANCH  21  25
ENDBRANCH   1  22
TORSDOF 8
ENDMDL
