MODEL 1
REMARK VINA RESULT:      -8.5      0.000      0.000
REMARK  Name = 
REMARK  11 active torsions:
REMARK  status: ('A' for Active; 'I' for Inactive)
REMARK    1  A    between atoms: C_1  and  N_2
REMARK    2  A    between atoms: N_2  and  C_3
REMARK    3  A    between atoms: N_2  and  C_4
REMARK    4  A    between atoms: C_7  and  C_8
REMARK    5  A    between atoms: C_8  and  N_9
REMARK    6  A    between atoms: N_9  and  C_10
REMARK    7  A    between atoms: C_10  and  C_11
REMARK    8  A    between atoms: C_11  and  O_12
REMARK    9  A    between atoms: O_12  and  C_13
REMARK   10  A    between atoms: N_21  and  S_22
REMARK   11  A    between atoms: S_22  and  C_25
REMARK                            x       y       z     vdW  Elec       q    Type
REMARK                         _______ _______ _______ _____ _____    ______ ____
ROOT
ATOM      1  C   UNL     1       2.649   5.616  18.464  0.00  0.00    +0.000 A 
ATOM      2  C   UNL     1       1.796   4.508  18.500  0.00  0.00    +0.000 A 
ATOM      3  C   UNL     1       2.207   3.264  18.000  0.00  0.00    +0.000 A 
ATOM      4  C   UNL     1       3.408   3.126  17.286  0.00  0.00    +0.000 A 
ATOM      5  C   UNL     1       4.257   4.243  17.285  0.00  0.00    +0.000 A 
ATOM      6  C   UNL     1       3.990   5.301  18.163  0.00  0.00    +0.000 A 
ATOM      7  C   UNL     1       5.174   5.197  19.008  0.00  0.00    +0.000 A 
ATOM      8  C   UNL     1       6.143   4.483  18.306  0.00  0.00    +0.000 A 
ATOM      9  N   UNL     1       5.619   4.409  17.020  0.00  0.00    +0.000 N 
ENDROOT
BRANCH   9  10
ATOM     10  S   UNL     1       6.152   5.705  15.917  0.00  0.00    +0.000 S 
ATOM     11  O   UNL     1       5.001   6.580  15.763  0.00  0.00    +0.000 OA
ATOM     12  O   UNL     1       7.428   6.181  16.404  0.00  0.00    +0.000 OA
BRANCH  10  13
ATOM     13  C   UNL     1       6.439   4.902  14.364  0.00  0.00    +0.000 A 
ATOM     14  C   UNL     1       5.520   3.950  13.914  0.00  0.00    +0.000 A 
ATOM     15  C   UNL     1       5.683   3.370  12.657  0.00  0.00    +0.000 A 
ATOM     16  C   UNL     1       6.749   3.754  11.845  0.00  0.00    +0.000 A 
ATOM     17  C   UNL     1       7.645   4.734  12.277  0.00  0.00    +0.000 A 
ATOM     18  C   UNL     1       7.487   5.322  13.535  0.00  0.00    +0.000 A 
ENDBRANCH  10  13
ENDBRANCH   9  10
BRANCH   1  19
ATOM     19  O   UNL     1       2.309   6.927  18.682  0.00  0.00    +0.000 OA
BRANCH  19  20
ATOM     20  C   UNL     1       3.005   7.916  17.917  0.00  0.00    +0.000 C 
BRANCH  20  21
ATOM     21  C   UNL     1       2.129   9.153  17.604  0.00  0.00    +0.000 C 
BRANCH  21  22
ATOM     22  N   UNL     1       1.201   9.408  18.726  0.00  0.00    +0.000 NA
ATOM     23  H   UNL     1       0.318   8.929  18.556  0.00  0.00    +0.000 HD
BRANCH  22  24
ATOM     24  C   UNL     1       0.920  10.829  18.934  0.00  0.00    +0.000 C 
BRANCH  24  28
ATOM     25  C   UNL     1      -3.390  11.699  18.623  0.00  0.00    +0.000 A 
ATOM     26  C   UNL     1      -2.587  12.221  19.653  0.00  0.00    +0.000 A 
ATOM     27  C   UNL     1      -1.210  11.929  19.764  0.00  0.00    +0.000 A 
ATOM     28  C   UNL     1      -0.565  11.104  18.846  0.00  0.00    +0.000 A 
ATOM     29  C   UNL     1      -1.353  10.613  17.782  0.00  0.00    +0.000 A 
ATOM     30  C   UNL     1      -2.721  10.903  17.690  0.00  0.00    +0.000 A 
BRANCH  25  32
ATOM     31  C   UNL     1      -5.420  11.876  17.215  0.00  0.00    +0.000 C 
ATOM     32  N   UNL     1      -4.752  11.989  18.509  0.00  0.00    +0.000 N 
ATOM     33  C   UNL     1      -5.345  12.924  19.464  0.00  0.00    +0.000 C 
ENDBRANCH  25  32
ENDBRANCH  24  28
ENDBRANCH  22  24
ENDBRANCH  21  22
ENDBRANCH  20  21
ENDBRANCH  19  20
ENDBRANCH   1  19
TORSDOF 9
ENDMDL
MODEL 2
REMARK VINA RESULT:      -8.3      0.494      1.146
REMARK  Name = 
REMARK  11 active torsions:
REMARK  status: ('A' for Active; 'I' for Inactive)
REMARK    1  A    between atoms: C_1  and  N_2
REMARK    2  A    between atoms: N_2  and  C_3
REMARK    3  A    between atoms: N_2  and  C_4
REMARK    4  A    between atoms: C_7  and  C_8
REMARK    5  A    between atoms: C_8  and  N_9
REMARK    6  A    between atoms: N_9  and  C_10
REMARK    7  A    between atoms: C_10  and  C_11
REMARK    8  A    between atoms: C_11  and  O_12
REMARK    9  A    between atoms: O_12  and  C_13
REMARK   10  A    between atoms: N_21  and  S_22
REMARK   11  A    between atoms: S_22  and  C_25
REMARK                            x       y       z     vdW  Elec       q    Type
REMARK                         _______ _______ _______ _____ _____    ______ ____
ROOT
ATOM      1  C   UNL     1       3.027   5.582  18.890  0.00  0.00    +0.000 A 
ATOM      2  C   UNL     1       2.241   4.435  19.046  0.00  0.00    +0.000 A 
ATOM      3  C   UNL     1       2.670   3.193  18.556  0.00  0.00    +0.000 A 
ATOM      4  C   UNL     1       3.806   3.086  17.738  0.00  0.00    +0.000 A 
ATOM      5  C   UNL     1       4.592   4.242  17.617  0.00  0.00    +0.000 A 
ATOM      6  C   UNL     1       4.350   5.321  18.477  0.00  0.00    +0.000 A 
ATOM      7  C   UNL     1       5.610   5.311  19.211  0.00  0.00    +0.000 A 
ATOM      8  C   UNL     1       6.547   4.617  18.448  0.00  0.00    +0.000 A 
ATOM      9  N   UNL     1       5.912   4.465  17.220  0.00  0.00    +0.000 N 
ENDROOT
BRANCH   9  10
ATOM     10  S   UNL     1       6.273   5.739  16.025  0.00  0.00    +0.000 S 
ATOM     11  O   UNL     1       5.063   6.539  15.937  0.00  0.00    +0.000 OA
ATOM     12  O   UNL     1       7.555   6.306  16.382  0.00  0.00    +0.000 OA
BRANCH  10  13
ATOM     13  C   UNL     1       6.477   4.885  14.486  0.00  0.00    +0.000 A 
ATOM     14  C   UNL     1       5.486   3.991  14.071  0.00  0.00    +0.000 A 
ATOM     15  C   UNL     1       5.586   3.375  12.825  0.00  0.00    +0.000 A 
ATOM     16  C   UNL     1       6.663   3.666  11.988  0.00  0.00    +0.000 A 
ATOM     17  C   UNL     1       7.633   4.589  12.385  0.00  0.00    +0.000 A 
ATOM     18  C   UNL     1       7.538   5.213  13.632  0.00  0.00    +0.000 A 
ENDBRANCH  10  13
ENDBRANCH   9  10
BRANCH   1  19
ATOM     19  O   UNL     1       2.640   6.882  19.091  0.00  0.00    +0.000 OA
BRANCH  19  20
ATOM     20  C   UNL     1       2.484   7.702  17.929  0.00  0.00    +0.000 C 
BRANCH  20  21
ATOM     21  C   UNL     1       2.068   9.152  18.273  0.00  0.00    +0.000 C 
BRANCH  21  22
ATOM     22  N   UNL     1       1.122   9.147  19.408  0.00  0.00    +0.000 NA
ATOM     23  H   UNL     1       0.250   8.701  19.126  0.00  0.00    +0.000 HD
BRANCH  22  24
ATOM     24  C   UNL     1       0.811  10.486  19.911  0.00  0.00    +0.000 C 
BRANCH  24  28
ATOM     25  C   UNL     1      -3.270  11.671  18.742  0.00  0.00    +0.000 A 
ATOM     26  C   UNL     1      -2.554  10.665  18.069  0.00  0.00    +0.000 A 
ATOM     27  C   UNL     1      -1.240  10.297  18.431  0.00  0.00    +0.000 A 
ATOM     28  C   UNL     1      -0.577  10.913  19.489  0.00  0.00    +0.000 A 
ATOM     29  C   UNL     1      -1.305  11.893  20.201  0.00  0.00    +0.000 A 
ATOM     30  C   UNL     1      -2.606  12.255  19.824  0.00  0.00    +0.000 A 
BRANCH  25  32
ATOM     31  C   UNL     1      -5.553  12.347  19.422  0.00  0.00    +0.000 C 
ATOM     32  N   UNL     1      -4.571  12.036  18.387  0.00  0.00    +0.000 N 
ATOM     33  C   UNL     1      -5.105  11.554  17.113  0.00  0.00    +0.000 C 
ENDBRANCH  25  32
ENDBRANCH  24  28
ENDBRANCH  22  24
ENDBRANCH  21  22
ENDBRANCH  20  21
ENDBRANCH  19  20
ENDBRANCH   1  19
TORSDOF 9
ENDMDL
MODEL 3
REMARK VINA RESULT:      -8.3      1.706      2.268
REMARK  Name = 
REMARK  11 active torsions:
REMARK  status: ('A' for Active; 'I' for Inactive)
REMARK    1  A    between atoms: C_1  and  N_2
REMARK    2  A    between atoms: N_2  and  C_3
REMARK    3  A    between atoms: N_2  and  C_4
REMARK    4  A    between atoms: C_7  and  C_8
REMARK    5  A    between atoms: C_8  and  N_9
REMARK    6  A    between atoms: N_9  and  C_10
REMARK    7  A    between atoms: C_10  and  C_11
REMARK    8  A    between atoms: C_11  and  O_12
REMARK    9  A    between atoms: O_12  and  C_13
REMARK   10  A    between atoms: N_21  and  S_22
REMARK   11  A    between atoms: S_22  and  C_25
REMARK                            x       y       z     vdW  Elec       q    Type
REMARK                         _______ _______ _______ _____ _____    ______ ____
ROOT
ATOM      1  C   UNL     1       2.726   6.051  18.588  0.00  0.00    +0.000 A 
ATOM      2  C   UNL     1       1.726   5.074  18.583  0.00  0.00    +0.000 A 
ATOM      3  C   UNL     1       1.949   3.816  18.005  0.00  0.00    +0.000 A 
ATOM      4  C   UNL     1       3.106   3.552  17.256  0.00  0.00    +0.000 A 
ATOM      5  C   UNL     1       4.105   4.537  17.296  0.00  0.00    +0.000 A 
ATOM      6  C   UNL     1       4.004   5.569  18.238  0.00  0.00    +0.000 A 
ATOM      7  C   UNL     1       5.176   5.251  19.047  0.00  0.00    +0.000 A 
ATOM      8  C   UNL     1       6.022   4.450  18.283  0.00  0.00    +0.000 A 
ATOM      9  N   UNL     1       5.472   4.526  17.008  0.00  0.00    +0.000 N 
ENDROOT
BRANCH   9  10
ATOM     10  S   UNL     1       6.166   5.796  15.966  0.00  0.00    +0.000 S 
ATOM     11  O   UNL     1       5.127   6.806  15.844  0.00  0.00    +0.000 OA
ATOM     12  O   UNL     1       7.483   6.097  16.481  0.00  0.00    +0.000 OA
BRANCH  10  13
ATOM     13  C   UNL     1       6.374   5.032  14.381  0.00  0.00    +0.000 A 
ATOM     14  C   UNL     1       7.511   5.334  13.627  0.00  0.00    +0.000 A 
ATOM     15  C   UNL     1       7.734   4.680  12.417  0.00  0.00    +0.000 A 
ATOM     16  C   UNL     1       6.834   3.713  11.971  0.00  0.00    +0.000 A 
ATOM     17  C   UNL     1       5.718   3.382  12.742  0.00  0.00    +0.000 A 
ATOM     18  C   UNL     1       5.488   4.032  13.958  0.00  0.00    +0.000 A 
ENDBRANCH  10  13
ENDBRANCH   9  10
BRANCH   1  19
ATOM     19  O   UNL     1       2.579   7.382  18.887  0.00  0.00    +0.000 OA
BRANCH  19  20
ATOM     20  C   UNL     1       2.201   8.252  17.815  0.00  0.00    +0.000 C 
BRANCH  20  21
ATOM     21  C   UNL     1       1.721   9.636  18.313  0.00  0.00    +0.000 C 
BRANCH  21  22
ATOM     22  N   UNL     1       0.615   9.467  19.278  0.00  0.00    +0.000 NA
ATOM     23  H   UNL     1      -0.217   9.946  18.934  0.00  0.00    +0.000 HD
BRANCH  22  24
ATOM     24  C   UNL     1       0.924   9.987  20.612  0.00  0.00    +0.000 C 
BRANCH  24  28
ATOM     25  C   UNL     1      -2.411  12.365  22.239  0.00  0.00    +0.000 A 
ATOM     26  C   UNL     1      -1.640  11.502  23.037  0.00  0.00    +0.000 A 
ATOM     27  C   UNL     1      -0.583  10.725  22.514  0.00  0.00    +0.000 A 
ATOM     28  C   UNL     1      -0.239  10.779  21.166  0.00  0.00    +0.000 A 
ATOM     29  C   UNL     1      -0.978  11.679  20.365  0.00  0.00    +0.000 A 
ATOM     30  C   UNL     1      -2.031  12.436  20.897  0.00  0.00    +0.000 A 
BRANCH  25  32
ATOM     31  C   UNL     1      -4.833  12.872  22.346  0.00  0.00    +0.000 C 
ATOM     32  N   UNL     1      -3.455  13.136  22.755  0.00  0.00    +0.000 N 
ATOM     33  C   UNL     1      -3.161  14.500  23.195  0.00  0.00    +0.000 C 
ENDBRANCH  25  32
ENDBRANCH  24  28
ENDBRANCH  22  24
ENDBRANCH  21  22
ENDBRANCH  20  21
ENDBRANCH  19  20
ENDBRANCH   1  19
TORSDOF 9
ENDMDL
MODEL 4
REMARK VINA RESULT:      -8.1      2.831      4.347
REMARK  Name = 
REMARK  11 active torsions:
REMARK  status: ('A' for Active; 'I' for Inactive)
REMARK    1  A    between atoms: C_1  and  N_2
REMARK    2  A    between atoms: N_2  and  C_3
REMARK    3  A    between atoms: N_2  and  C_4
REMARK    4  A    between atoms: C_7  and  C_8
REMARK    5  A    between atoms: C_8  and  N_9
REMARK    6  A    between atoms: N_9  and  C_10
REMARK    7  A    between atoms: C_10  and  C_11
REMARK    8  A    between atoms: C_11  and  O_12
REMARK    9  A    between atoms: O_12  and  C_13
REMARK   10  A    between atoms: N_21  and  S_22
REMARK   11  A    between atoms: S_22  and  C_25
REMARK                            x       y       z     vdW  Elec       q    Type
REMARK                         _______ _______ _______ _____ _____    ______ ____
ROOT
ATOM      1  C   UNL     1       2.823   6.067  18.603  0.00  0.00    +0.000 A 
ATOM      2  C   UNL     1       1.808   5.106  18.613  0.00  0.00    +0.000 A 
ATOM      3  C   UNL     1       1.998   3.848  18.023  0.00  0.00    +0.000 A 
ATOM      4  C   UNL     1       3.135   3.571  17.248  0.00  0.00    +0.000 A 
ATOM      5  C   UNL     1       4.150   4.540  17.273  0.00  0.00    +0.000 A 
ATOM      6  C   UNL     1       4.086   5.567  18.222  0.00  0.00    +0.000 A 
ATOM      7  C   UNL     1       5.269   5.226  19.005  0.00  0.00    +0.000 A 
ATOM      8  C   UNL     1       6.086   4.416  18.218  0.00  0.00    +0.000 A 
ATOM      9  N   UNL     1       5.510   4.509  16.956  0.00  0.00    +0.000 N 
ENDROOT
BRANCH   9  10
ATOM     10  S   UNL     1       6.202   5.774  15.906  0.00  0.00    +0.000 S 
ATOM     11  O   UNL     1       5.166   6.788  15.790  0.00  0.00    +0.000 OA
ATOM     12  O   UNL     1       7.524   6.071  16.411  0.00  0.00    +0.000 OA
BRANCH  10  13
ATOM     13  C   UNL     1       6.395   5.007  14.321  0.00  0.00    +0.000 A 
ATOM     14  C   UNL     1       7.512   5.327  13.545  0.00  0.00    +0.000 A 
ATOM     15  C   UNL     1       7.726   4.671  12.334  0.00  0.00    +0.000 A 
ATOM     16  C   UNL     1       6.836   3.686  11.909  0.00  0.00    +0.000 A 
ATOM     17  C   UNL     1       5.740   3.338  12.702  0.00  0.00    +0.000 A 
ATOM     18  C   UNL     1       5.521   3.989  13.919  0.00  0.00    +0.000 A 
ENDBRANCH  10  13
ENDBRANCH   9  10
BRANCH   1  19
ATOM     19  O   UNL     1       2.704   7.398  18.912  0.00  0.00    +0.000 OA
BRANCH  19  20
ATOM     20  C   UNL     1       2.522   8.307  17.821  0.00  0.00    +0.000 C 
BRANCH  20  21
ATOM     21  C   UNL     1       1.292   9.226  18.010  0.00  0.00    +0.000 C 
BRANCH  21  22
ATOM     22  N   UNL     1       1.691  10.639  17.836  0.00  0.00    +0.000 NA
ATOM     23  H   UNL     1       2.704  10.722  17.916  0.00  0.00    +0.000 HD
BRANCH  22  24
ATOM     24  C   UNL     1       1.077  11.540  18.814  0.00  0.00    +0.000 C 
BRANCH  24  28
ATOM     25  C   UNL     1       3.832  14.847  19.763  0.00  0.00    +0.000 A 
ATOM     26  C   UNL     1       3.054  14.207  20.745  0.00  0.00    +0.000 A 
ATOM     27  C   UNL     1       2.158  13.160  20.440  0.00  0.00    +0.000 A 
ATOM     28  C   UNL     1       1.999  12.695  19.137  0.00  0.00    +0.000 A 
ATOM     29  C   UNL     1       2.811  13.300  18.151  0.00  0.00    +0.000 A 
ATOM     30  C   UNL     1       3.689  14.345  18.468  0.00  0.00    +0.000 A 
BRANCH  25  32
ATOM     31  C   UNL     1       5.998  15.587  20.709  0.00  0.00    +0.000 C 
ATOM     32  N   UNL     1       4.721  15.881  20.063  0.00  0.00    +0.000 N 
ATOM     33  C   UNL     1       4.179  17.222  20.285  0.00  0.00    +0.000 C 
ENDBRANCH  25  32
ENDBRANCH  24  28
ENDBRANCH  22  24
ENDBRANCH  21  22
ENDBRANCH  20  21
ENDBRANCH  19  20
ENDBRANCH   1  19
TORSDOF 9
ENDMDL
MODEL 5
REMARK VINA RESULT:      -8.1      1.085      1.729
REMARK  Name = 
REMARK  11 active torsions:
REMARK  status: ('A' for Active; 'I' for Inactive)
REMARK    1  A    between atoms: C_1  and  N_2
REMARK    2  A    between atoms: N_2  and  C_3
REMARK    3  A    between atoms: N_2  and  C_4
REMARK    4  A    between atoms: C_7  and  C_8
REMARK    5  A    between atoms: C_8  and  N_9
REMARK    6  A    between atoms: N_9  and  C_10
REMARK    7  A    between atoms: C_10  and  C_11
REMARK    8  A    between atoms: C_11  and  O_12
REMARK    9  A    between atoms: O_12  and  C_13
REMARK   10  A    between atoms: N_21  and  S_22
REMARK   11  A    between atoms: S_22  and  C_25
REMARK                            x       y       z     vdW  Elec       q    Type
REMARK                         _______ _______ _______ _____ _____    ______ ____
ROOT
ATOM      1  C   UNL     1       2.794   6.157  18.513  0.00  0.00    +0.000 A 
ATOM      2  C   UNL     1       1.745   5.232  18.511  0.00  0.00    +0.000 A 
ATOM      3  C   UNL     1       1.897   3.968  17.922  0.00  0.00    +0.000 A 
ATOM      4  C   UNL     1       3.032   3.652  17.158  0.00  0.00    +0.000 A 
ATOM      5  C   UNL     1       4.080   4.585  17.194  0.00  0.00    +0.000 A 
ATOM      6  C   UNL     1       4.042   5.613  18.144  0.00  0.00    +0.000 A 
ATOM      7  C   UNL     1       5.204   5.231  18.938  0.00  0.00    +0.000 A 
ATOM      8  C   UNL     1       6.001   4.394  18.159  0.00  0.00    +0.000 A 
ATOM      9  N   UNL     1       5.441   4.507  16.891  0.00  0.00    +0.000 N 
ENDROOT
BRANCH   9  10
ATOM     10  S   UNL     1       6.187   5.749  15.850  0.00  0.00    +0.000 S 
ATOM     11  O   UNL     1       5.183   6.792  15.713  0.00  0.00    +0.000 OA
ATOM     12  O   UNL     1       7.509   6.009  16.377  0.00  0.00    +0.000 OA
BRANCH  10  13
ATOM     13  C   UNL     1       6.386   4.971  14.271  0.00  0.00    +0.000 A 
ATOM     14  C   UNL     1       7.536   5.239  13.523  0.00  0.00    +0.000 A 
ATOM     15  C   UNL     1       7.750   4.573  12.318  0.00  0.00    +0.000 A 
ATOM     16  C   UNL     1       6.828   3.627  11.871  0.00  0.00    +0.000 A 
ATOM     17  C   UNL     1       5.699   3.329  12.637  0.00  0.00    +0.000 A 
ATOM     18  C   UNL     1       5.478   3.991  13.848  0.00  0.00    +0.000 A 
ENDBRANCH  10  13
ENDBRANCH   9  10
BRANCH   1  19
ATOM     19  O   UNL     1       2.717   7.491  18.822  0.00  0.00    +0.000 OA
BRANCH  19  20
ATOM     20  C   UNL     1       2.446   8.395  17.746  0.00  0.00    +0.000 C 
BRANCH  20  21
ATOM     21  C   UNL     1       1.162   9.227  17.976  0.00  0.00    +0.000 C 
BRANCH  21  22
ATOM     22  N   UNL     1       1.057   9.605  19.402  0.00  0.00    +0.000 NA
ATOM     23  H   UNL     1       0.207   9.209  19.800  0.00  0.00    +0.000 HD
BRANCH  22  24
ATOM     24  C   UNL     1       1.033  11.053  19.617  0.00  0.00    +0.000 C 
BRANCH  24  28
ATOM     25  C   UNL     1      -2.946  12.473  20.873  0.00  0.00    +0.000 A 
ATOM     26  C   UNL     1      -1.898  12.262  21.786  0.00  0.00    +0.000 A 
ATOM     27  C   UNL     1      -0.628  11.790  21.388  0.00  0.00    +0.000 A 
ATOM     28  C   UNL     1      -0.341  11.511  20.054  0.00  0.00    +0.000 A 
ATOM     29  C   UNL     1      -1.374  11.764  19.124  0.00  0.00    +0.000 A 
ATOM     30  C   UNL     1      -2.632  12.224  19.535  0.00  0.00    +0.000 A 
BRANCH  25  32
ATOM     31  C   UNL     1      -4.443  13.324  22.654  0.00  0.00    +0.000 C 
ATOM     32  N   UNL     1      -4.202  12.942  21.264  0.00  0.00    +0.000 N 
ATOM     33  C   UNL     1      -5.374  12.514  20.500  0.00  0.00    +0.000 C 
ENDBRANCH  25  32
ENDBRANCH  24  28
ENDBRANCH  22  24
ENDBRANCH  21  22
ENDBRANCH  20  21
ENDBRANCH  19  20
ENDBRANCH   1  19
TORSDOF 9
ENDMDL
MODEL 6
REMARK VINA RESULT:      -8.1      2.055      2.471
REMARK  Name = 
REMARK  11 active torsions:
REMARK  status: ('A' for Active; 'I' for Inactive)
REMARK    1  A    between atoms: C_1  and  N_2
REMARK    2  A    between atoms: N_2  and  C_3
REMARK    3  A    between atoms: N_2  and  C_4
REMARK    4  A    between atoms: C_7  and  C_8
REMARK    5  A    between atoms: C_8  and  N_9
REMARK    6  A    between atoms: N_9  and  C_10
REMARK    7  A    between atoms: C_10  and  C_11
REMARK    8  A    between atoms: C_11  and  O_12
REMARK    9  A    between atoms: O_12  and  C_13
REMARK   10  A    between atoms: N_21  and  S_22
REMARK   11  A    between atoms: S_22  and  C_25
REMARK                            x       y       z     vdW  Elec       q    Type
REMARK                         _______ _______ _______ _____ _____    ______ ____
ROOT
ATOM      1  C   UNL     1       2.799   6.314  18.264  0.00  0.00    +0.000 A 
ATOM      2  C   UNL     1       1.723   5.422  18.215  0.00  0.00    +0.000 A 
ATOM      3  C   UNL     1       1.884   4.124  17.710  0.00  0.00    +0.000 A 
ATOM      4  C   UNL     1       3.072   3.731  17.073  0.00  0.00    +0.000 A 
ATOM      5  C   UNL     1       4.144   4.633  17.156  0.00  0.00    +0.000 A 
ATOM      6  C   UNL     1       4.056   5.714  18.042  0.00  0.00    +0.000 A 
ATOM      7  C   UNL     1       5.127   5.341  18.959  0.00  0.00    +0.000 A 
ATOM      8  C   UNL     1       5.961   4.439  18.303  0.00  0.00    +0.000 A 
ATOM      9  N   UNL     1       5.524   4.497  16.985  0.00  0.00    +0.000 N 
ENDROOT
BRANCH   9  10
ATOM     10  S   UNL     1       6.404   5.655  15.952  0.00  0.00    +0.000 S 
ATOM     11  O   UNL     1       5.496   6.776  15.769  0.00  0.00    +0.000 OA
ATOM     12  O   UNL     1       7.725   5.811  16.519  0.00  0.00    +0.000 OA
BRANCH  10  13
ATOM     13  C   UNL     1       6.586   4.838  14.391  0.00  0.00    +0.000 A 
ATOM     14  C   UNL     1       5.620   3.907  13.997  0.00  0.00    +0.000 A 
ATOM     15  C   UNL     1       5.700   3.318  12.736  0.00  0.00    +0.000 A 
ATOM     16  C   UNL     1       6.729   3.671  11.865  0.00  0.00    +0.000 A 
ATOM     17  C   UNL     1       7.672   4.631  12.242  0.00  0.00    +0.000 A 
ATOM     18  C   UNL     1       7.597   5.228  13.504  0.00  0.00    +0.000 A 
ENDBRANCH  10  13
ENDBRANCH   9  10
BRANCH   1  19
ATOM     19  O   UNL     1       2.742   7.665  18.493  0.00  0.00    +0.000 OA
BRANCH  19  20
ATOM     20  C   UNL     1       1.608   8.156  19.214  0.00  0.00    +0.000 C 
BRANCH  20  21
ATOM     21  C   UNL     1       1.681   7.841  20.727  0.00  0.00    +0.000 C 
BRANCH  21  22
ATOM     22  N   UNL     1       0.930   8.862  21.489  0.00  0.00    +0.000 NA
ATOM     23  H   UNL     1       0.053   8.464  21.824  0.00  0.00    +0.000 HD
BRANCH  22  24
ATOM     24  C   UNL     1       0.622  10.060  20.706  0.00  0.00    +0.000 C 
BRANCH  24  28
ATOM     25  C   UNL     1      -2.632  12.395  22.546  0.00  0.00    +0.000 A 
ATOM     26  C   UNL     1      -1.806  11.536  23.291  0.00  0.00    +0.000 A 
ATOM     27  C   UNL     1      -0.775  10.773  22.701  0.00  0.00    +0.000 A 
ATOM     28  C   UNL     1      -0.514  10.837  21.334  0.00  0.00    +0.000 A 
ATOM     29  C   UNL     1      -1.308  11.733  20.585  0.00  0.00    +0.000 A 
ATOM     30  C   UNL     1      -2.335  12.477  21.183  0.00  0.00    +0.000 A 
BRANCH  25  32
ATOM     31  C   UNL     1      -3.670  14.604  22.967  0.00  0.00    +0.000 C 
ATOM     32  N   UNL     1      -3.651  13.153  23.128  0.00  0.00    +0.000 N 
ATOM     33  C   UNL     1      -4.313  12.626  24.322  0.00  0.00    +0.000 C 
ENDBRANCH  25  32
ENDBRANCH  24  28
ENDBRANCH  22  24
ENDBRANCH  21  22
ENDBRANCH  20  21
ENDBRANCH  19  20
ENDBRANCH   1  19
TORSDOF 9
ENDMDL
MODEL 7
REMARK VINA RESULT:      -8.1      2.536      2.830
REMARK  Name = 
REMARK  11 active torsions:
REMARK  status: ('A' for Active; 'I' for Inactive)
REMARK    1  A    between atoms: C_1  and  N_2
REMARK    2  A    between atoms: N_2  and  C_3
REMARK    3  A    between atoms: N_2  and  C_4
REMARK    4  A    between atoms: C_7  and  C_8
REMARK    5  A    between atoms: C_8  and  N_9
REMARK    6  A    between atoms: N_9  and  C_10
REMARK    7  A    between atoms: C_10  and  C_11
REMARK    8  A    between atoms: C_11  and  O_12
REMARK    9  A    between atoms: O_12  and  C_13
REMARK   10  A    between atoms: N_21  and  S_22
REMARK   11  A    between atoms: S_22  and  C_25
REMARK                            x       y       z     vdW  Elec       q    Type
REMARK                         _______ _______ _______ _____ _____    ______ ____
ROOT
ATOM      1  C   UNL     1       2.577   4.725  18.134  0.00  0.00    +0.000 A 
ATOM      2  C   UNL     1       2.060   3.425  18.163  0.00  0.00    +0.000 A 
ATOM      3  C   UNL     1       2.854   2.324  17.812  0.00  0.00    +0.000 A 
ATOM      4  C   UNL     1       4.129   2.494  17.249  0.00  0.00    +0.000 A 
ATOM      5  C   UNL     1       4.636   3.803  17.253  0.00  0.00    +0.000 A 
ATOM      6  C   UNL     1       3.981   4.783  18.009  0.00  0.00    +0.000 A 
ATOM      7  C   UNL     1       5.030   5.053  18.986  0.00  0.00    +0.000 A 
ATOM      8  C   UNL     1       6.238   4.607  18.454  0.00  0.00    +0.000 A 
ATOM      9  N   UNL     1       5.923   4.330  17.128  0.00  0.00    +0.000 N 
ENDROOT
BRANCH   9  10
ATOM     10  S   UNL     1       6.222   5.671  15.991  0.00  0.00    +0.000 S 
ATOM     11  O   UNL     1       4.964   6.397  15.911  0.00  0.00    +0.000 OA
ATOM     12  O   UNL     1       7.458   6.304  16.394  0.00  0.00    +0.000 OA
BRANCH  10  13
ATOM     13  C   UNL     1       6.506   4.895  14.424  0.00  0.00    +0.000 A 
ATOM     14  C   UNL     1       5.565   3.982  13.940  0.00  0.00    +0.000 A 
ATOM     15  C   UNL     1       5.727   3.425  12.672  0.00  0.00    +0.000 A 
ATOM     16  C   UNL     1       6.816   3.795  11.884  0.00  0.00    +0.000 A 
ATOM     17  C   UNL     1       7.735   4.737  12.350  0.00  0.00    +0.000 A 
ATOM     18  C   UNL     1       7.578   5.301  13.619  0.00  0.00    +0.000 A 
ENDBRANCH  10  13
ENDBRANCH   9  10
BRANCH   1  19
ATOM     19  O   UNL     1       1.869   5.897  18.207  0.00  0.00    +0.000 OA
BRANCH  19  20
ATOM     20  C   UNL     1       2.366   6.903  19.095  0.00  0.00    +0.000 C 
BRANCH  20  21
ATOM     21  C   UNL     1       2.020   6.617  20.575  0.00  0.00    +0.000 C 
BRANCH  21  22
ATOM     22  N   UNL     1       1.680   7.879  21.265  0.00  0.00    +0.000 NA
ATOM     23  H   UNL     1       1.010   7.693  22.010  0.00  0.00    +0.000 HD
BRANCH  22  24
ATOM     24  C   UNL     1       1.106   8.890  20.374  0.00  0.00    +0.000 C 
BRANCH  24  28
ATOM     25  C   UNL     1      -0.890  12.103  22.637  0.00  0.00    +0.000 A 
ATOM     26  C   UNL     1      -0.083  12.360  21.515  0.00  0.00    +0.000 A 
ATOM     27  C   UNL     1       0.572  11.333  20.800  0.00  0.00    +0.000 A 
ATOM     28  C   UNL     1       0.447   9.996  21.168  0.00  0.00    +0.000 A 
ATOM     29  C   UNL     1      -0.399   9.724  22.266  0.00  0.00    +0.000 A 
ATOM     30  C   UNL     1      -1.035  10.755  22.972  0.00  0.00    +0.000 A 
BRANCH  25  32
ATOM     31  C   UNL     1      -2.985  13.054  23.553  0.00  0.00    +0.000 C 
ATOM     32  N   UNL     1      -1.541  13.116  23.345  0.00  0.00    +0.000 N 
ATOM     33  C   UNL     1      -0.943  14.451  23.355  0.00  0.00    +0.000 C 
ENDBRANCH  25  32
ENDBRANCH  24  28
ENDBRANCH  22  24
ENDBRANCH  21  22
ENDBRANCH  20  21
ENDBRANCH  19  20
ENDBRANCH   1  19
TORSDOF 9
ENDMDL
MODEL 8
REMARK VINA RESULT:      -8.1      2.468      3.116
REMARK  Name = 
REMARK  11 active torsions:
REMARK  status: ('A' for Active; 'I' for Inactive)
REMARK    1  A    between atoms: C_1  and  N_2
REMARK    2  A    between atoms: N_2  and  C_3
REMARK    3  A    between atoms: N_2  and  C_4
REMARK    4  A    between atoms: C_7  and  C_8
REMARK    5  A    between atoms: C_8  and  N_9
REMARK    6  A    between atoms: N_9  and  C_10
REMARK    7  A    between atoms: C_10  and  C_11
REMARK    8  A    between atoms: C_11  and  O_12
REMARK    9  A    between atoms: O_12  and  C_13
REMARK   10  A    between atoms: N_21  and  S_22
REMARK   11  A    between atoms: S_22  and  C_25
REMARK                            x       y       z     vdW  Elec       q    Type
REMARK                         _______ _______ _______ _____ _____    ______ ____
ROOT
ATOM      1  C   UNL     1       2.817   5.889  18.771  0.00  0.00    +0.000 A 
ATOM      2  C   UNL     1       1.848   4.881  18.811  0.00  0.00    +0.000 A 
ATOM      3  C   UNL     1       2.085   3.628  18.226  0.00  0.00    +0.000 A 
ATOM      4  C   UNL     1       3.216   3.399  17.427  0.00  0.00    +0.000 A 
ATOM      5  C   UNL     1       4.185   4.414  17.422  0.00  0.00    +0.000 A 
ATOM      6  C   UNL     1       4.093   5.445  18.365  0.00  0.00    +0.000 A 
ATOM      7  C   UNL     1       5.308   5.166  19.124  0.00  0.00    +0.000 A 
ATOM      8  C   UNL     1       6.145   4.390  18.325  0.00  0.00    +0.000 A 
ATOM      9  N   UNL     1       5.537   4.445  17.075  0.00  0.00    +0.000 N 
ENDROOT
BRANCH   9  10
ATOM     10  S   UNL     1       6.145   5.732  16.001  0.00  0.00    +0.000 S 
ATOM     11  O   UNL     1       5.028   6.647  15.824  0.00  0.00    +0.000 OA
ATOM     12  O   UNL     1       7.421   6.161  16.529  0.00  0.00    +0.000 OA
BRANCH  10  13
ATOM     13  C   UNL     1       6.450   4.936  14.449  0.00  0.00    +0.000 A 
ATOM     14  C   UNL     1       5.523   4.005  13.971  0.00  0.00    +0.000 A 
ATOM     15  C   UNL     1       5.701   3.431  12.714  0.00  0.00    +0.000 A 
ATOM     16  C   UNL     1       6.792   3.800  11.928  0.00  0.00    +0.000 A 
ATOM     17  C   UNL     1       7.698   4.759  12.387  0.00  0.00    +0.000 A 
ATOM     18  C   UNL     1       7.524   5.341  13.646  0.00  0.00    +0.000 A 
ENDBRANCH  10  13
ENDBRANCH   9  10
BRANCH   1  19
ATOM     19  O   UNL     1       2.642   7.215  19.073  0.00  0.00    +0.000 OA
BRANCH  19  20
ATOM     20  C   UNL     1       2.197   8.071  18.016  0.00  0.00    +0.000 C 
BRANCH  20  21
ATOM     21  C   UNL     1       1.494   9.347  18.537  0.00  0.00    +0.000 C 
BRANCH  21  22
ATOM     22  N   UNL     1       1.659  10.445  17.561  0.00  0.00    +0.000 NA
ATOM     23  H   UNL     1       1.892  10.059  16.647  0.00  0.00    +0.000 HD
BRANCH  22  24
ATOM     24  C   UNL     1       2.702  11.402  17.935  0.00  0.00    +0.000 C 
BRANCH  24  28
ATOM     25  C   UNL     1       0.987  15.350  18.884  0.00  0.00    +0.000 A 
ATOM     26  C   UNL     1       0.204  14.184  18.815  0.00  0.00    +0.000 A 
ATOM     27  C   UNL     1       0.748  12.921  18.493  0.00  0.00    +0.000 A 
ATOM     28  C   UNL     1       2.107  12.761  18.231  0.00  0.00    +0.000 A 
ATOM     29  C   UNL     1       2.909  13.918  18.344  0.00  0.00    +0.000 A 
ATOM     30  C   UNL     1       2.352  15.167  18.655  0.00  0.00    +0.000 A 
BRANCH  25  32
ATOM     31  C   UNL     1       0.830  17.262  20.450  0.00  0.00    +0.000 C 
ATOM     32  N   UNL     1       0.451  16.599  19.205  0.00  0.00    +0.000 N 
ATOM     33  C   UNL     1      -0.857  16.957  18.654  0.00  0.00    +0.000 C 
ENDBRANCH  25  32
ENDBRANCH  24  28
ENDBRANCH  22  24
ENDBRANCH  21  22
ENDBRANCH  20  21
ENDBRANCH  19  20
ENDBRANCH   1  19
TORSDOF 9
ENDMDL
MODEL 9
REMARK VINA RESULT:      -8.1      2.018      2.479
REMARK  Name = 
REMARK  11 active torsions:
REMARK  status: ('A' for Active; 'I' for Inactive)
REMARK    1  A    between atoms: C_1  and  N_2
REMARK    2  A    between atoms: N_2  and  C_3
REMARK    3  A    between atoms: N_2  and  C_4
REMARK    4  A    between atoms: C_7  and  C_8
REMARK    5  A    between atoms: C_8  and  N_9
REMARK    6  A    between atoms: N_9  and  C_10
REMARK    7  A    between atoms: C_10  and  C_11
REMARK    8  A    between atoms: C_11  and  O_12
REMARK    9  A    between atoms: O_12  and  C_13
REMARK   10  A    between atoms: N_21  and  S_22
REMARK   11  A    between atoms: S_22  and  C_25
REMARK                            x       y       z     vdW  Elec       q    Type
REMARK                         _______ _______ _______ _____ _____    ______ ____
ROOT
ATOM      1  C   UNL     1       2.648   5.348  18.451  0.00  0.00    +0.000 A 
ATOM      2  C   UNL     1       1.926   4.151  18.506  0.00  0.00    +0.000 A 
ATOM      3  C   UNL     1       2.496   2.943  18.078  0.00  0.00    +0.000 A 
ATOM      4  C   UNL     1       3.733   2.916  17.414  0.00  0.00    +0.000 A 
ATOM      5  C   UNL     1       4.449   4.123  17.392  0.00  0.00    +0.000 A 
ATOM      6  C   UNL     1       4.027   5.178  18.212  0.00  0.00    +0.000 A 
ATOM      7  C   UNL     1       5.180   5.247  19.102  0.00  0.00    +0.000 A 
ATOM      8  C   UNL     1       6.252   4.622  18.468  0.00  0.00    +0.000 A 
ATOM      9  N   UNL     1       5.792   4.435  17.169  0.00  0.00    +0.000 N 
ENDROOT
BRANCH   9  10
ATOM     10  S   UNL     1       6.218   5.738  16.028  0.00  0.00    +0.000 S 
ATOM     11  O   UNL     1       5.014   6.543  15.894  0.00  0.00    +0.000 OA
ATOM     12  O   UNL     1       7.479   6.294  16.467  0.00  0.00    +0.000 OA
BRANCH  10  13
ATOM     13  C   UNL     1       6.504   4.924  14.481  0.00  0.00    +0.000 A 
ATOM     14  C   UNL     1       5.587   3.964  14.040  0.00  0.00    +0.000 A 
ATOM     15  C   UNL     1       5.749   3.374  12.788  0.00  0.00    +0.000 A 
ATOM     16  C   UNL     1       6.812   3.756  11.970  0.00  0.00    +0.000 A 
ATOM     17  C   UNL     1       7.706   4.742  12.393  0.00  0.00    +0.000 A 
ATOM     18  C   UNL     1       7.549   5.340  13.646  0.00  0.00    +0.000 A 
ENDBRANCH  10  13
ENDBRANCH   9  10
BRANCH   1  19
ATOM     19  O   UNL     1       2.152   6.618  18.597  0.00  0.00    +0.000 OA
BRANCH  19  20
ATOM     20  C   UNL     1       2.909   7.684  18.015  0.00  0.00    +0.000 C 
BRANCH  20  21
ATOM     21  C   UNL     1       2.272   9.072  18.261  0.00  0.00    +0.000 C 
BRANCH  21  22
ATOM     22  N   UNL     1       0.989   8.915  18.979  0.00  0.00    +0.000 NA
ATOM     23  H   UNL     1       0.368   9.689  18.744  0.00  0.00    +0.000 HD
BRANCH  22  24
ATOM     24  C   UNL     1       1.139   8.873  20.435  0.00  0.00    +0.000 C 
BRANCH  24  28
ATOM     25  C   UNL     1      -1.378  11.916  22.391  0.00  0.00    +0.000 A 
ATOM     26  C   UNL     1      -0.901  10.781  23.071  0.00  0.00    +0.000 A 
ATOM     27  C   UNL     1      -0.109   9.796  22.441  0.00  0.00    +0.000 A 
ATOM     28  C   UNL     1       0.250   9.900  21.099  0.00  0.00    +0.000 A 
ATOM     29  C   UNL     1      -0.185  11.060  20.421  0.00  0.00    +0.000 A 
ATOM     30  C   UNL     1      -0.978  12.025  21.057  0.00  0.00    +0.000 A 
BRANCH  25  32
ATOM     31  C   UNL     1      -1.521  13.987  23.743  0.00  0.00    +0.000 C 
ATOM     32  N   UNL     1      -2.158  12.893  23.013  0.00  0.00    +0.000 N 
ATOM     33  C   UNL     1      -3.512  12.536  23.437  0.00  0.00    +0.000 C 
ENDBRANCH  25  32
ENDBRANCH  24  28
ENDBRANCH  22  24
ENDBRANCH  21  22
ENDBRANCH  20  21
ENDBRANCH  19  20
ENDBRANCH   1  19
TORSDOF 9
ENDMDL
