MODEL 1
REMARK VINA RESULT:      -9.2      0.000      0.000
REMARK  Name = 
REMARK  8 active torsions:
REMARK  status: ('A' for Active; 'I' for Inactive)
REMARK    1  A    between atoms: C_1  and  C_2
REMARK    2  A    between atoms: C_2  and  C_3
REMARK    3  A    between atoms: C_2  and  C_4
REMARK    4  A    between atoms: C_7  and  N_8
REMARK    5  A    between atoms: C_9  and  C_11
REMARK    6  A    between atoms: C_11  and  N_12
REMARK    7  A    between atoms: C_20  and  S_21
REMARK    8  A    between atoms: S_21  and  N_24
REMARK                            x       y       z     vdW  Elec       q    Type
REMARK                         _______ _______ _______ _____ _____    ______ ____
ROOT
ATOM      1  N   UNL     1       0.243   9.637  21.160  0.00  0.00    +0.000 N 
ATOM      2  C   UNL     1      -0.344  10.313  19.956  0.00  0.00    +0.000 C 
ATOM      3  O   UNL     1      -1.195  11.132  19.679  0.00  0.00    +0.000 OA
ATOM      4  C   UNL     1       0.452   9.664  19.066  0.00  0.00    +0.000 C 
ATOM      5  O   UNL     1       1.131   9.100  18.165  0.00  0.00    +0.000 OA
ATOM      6  C   UNL     1       1.862   8.348  19.250  0.00  0.00    +0.000 A 
ATOM      7  C   UNL     1       2.750   7.933  18.099  0.00  0.00    +0.000 A 
ATOM      8  C   UNL     1       3.324   6.752  18.037  0.00  0.00    +0.000 A 
ATOM      9  C   UNL     1       3.148   6.090  19.210  0.00  0.00    +0.000 A 
ATOM     10  C   UNL     1       2.167   6.792  20.468  0.00  0.00    +0.000 A 
ATOM     11  C   UNL     1       1.263   8.111  20.814  0.00  0.00    +0.000 A 
ENDROOT
BRANCH   9  12
ATOM     12  S   UNL     1       4.280   4.540  18.699  0.00  0.00    +0.000 S 
ATOM     13  O   UNL     1       5.302   4.378  19.726  0.00  0.00    +0.000 OA
ATOM     14  O   UNL     1       3.349   3.441  18.495  0.00  0.00    +0.000 OA
BRANCH  12  15
ATOM     15  N   UNL     1       5.091   4.779  17.266  0.00  0.00    +0.000 NA
ATOM     16  C   UNL     1       6.516   4.993  17.486  0.00  0.00    +0.000 C 
ATOM     17  C   UNL     1       7.231   5.811  16.437  0.00  0.00    +0.000 C 
ATOM     18  C   UNL     1       7.545   5.025  15.181  0.00  0.00    +0.000 C 
ATOM     19  C   UNL     1       6.308   4.547  14.433  0.00  0.00    +0.000 C 
ATOM     20  C   UNL     1       5.547   3.464  15.185  0.00  0.00    +0.000 C 
ATOM     21  C   UNL     1       4.529   4.001  16.152  0.00  0.00    +0.000 C 
ENDBRANCH  12  15
ENDBRANCH   9  12
BRANCH   1  22
ATOM     22  C   UNL     1      -0.812  10.639  22.156  0.00  0.00    +0.000 C 
BRANCH  22  24
ATOM     23  N   UNL     1      -3.058  12.206  23.493  0.00  0.00    +0.000 N 
ATOM     24  C   UNL     1      -1.768  12.111  22.654  0.00  0.00    +0.000 C 
ATOM     25  O   UNL     1      -1.247  13.142  22.206  0.00  0.00    +0.000 OA
ATOM     26  H   UNL     1      -3.622  11.400  23.779  0.00  0.00    +0.000 HD
BRANCH  23  30
ATOM     27  C   UNL     1      -4.712  16.300  24.670  0.00  0.00    +0.000 A 
ATOM     28  C   UNL     1      -5.532  15.456  23.905  0.00  0.00    +0.000 A 
ATOM     29  C   UNL     1      -5.090  14.095  23.498  0.00  0.00    +0.000 A 
ATOM     30  C   UNL     1      -3.781  13.566  23.830  0.00  0.00    +0.000 A 
ATOM     31  C   UNL     1      -3.079  14.449  24.628  0.00  0.00    +0.000 A 
ATOM     32  C   UNL     1      -3.504  15.726  25.035  0.00  0.00    +0.000 A 
BRANCH  27  34
ATOM     33  C   UNL     1      -3.696  18.490  25.535  0.00  0.00    +0.000 C 
ATOM     34  C   UNL     1      -5.000  17.719  25.197  0.00  0.00    +0.000 C 
ATOM     35  C   UNL     1      -5.845  18.628  24.298  0.00  0.00    +0.000 C 
ENDBRANCH  27  34
ENDBRANCH  23  30
ENDBRANCH  22  24
ENDBRANCH   1  22
TORSDOF 6
ENDMDL
MODEL 2
REMARK VINA RESULT:      -9.0      3.079     13.423
REMARK  Name = 
REMARK  8 active torsions:
REMARK  status: ('A' for Active; 'I' for Inactive)
REMARK    1  A    between atoms: C_1  and  C_2
REMARK    2  A    between atoms: C_2  and  C_3
REMARK    3  A    between atoms: C_2  and  C_4
REMARK    4  A    between atoms: C_7  and  N_8
REMARK    5  A    between atoms: C_9  and  C_11
REMARK    6  A    between atoms: C_11  and  N_12
REMARK    7  A    between atoms: C_20  and  S_21
REMARK    8  A    between atoms: S_21  and  N_24
REMARK                            x       y       z     vdW  Elec       q    Type
REMARK                         _______ _______ _______ _____ _____    ______ ____
ROOT
ATOM      1  N   UNL     1       0.353   9.961  20.420  0.00  0.00    +0.000 N 
ATOM      2  C   UNL     1       0.738  10.885  19.301  0.00  0.00    +0.000 C 
ATOM      3  O   UNL     1       1.533  10.948  18.386  0.00  0.00    +0.000 OA
ATOM      4  C   UNL     1      -0.190  11.827  19.613  0.00  0.00    +0.000 C 
ATOM      5  O   UNL     1      -1.005  12.765  19.833  0.00  0.00    +0.000 OA
ATOM      6  C   UNL     1      -1.551  11.958  20.985  0.00  0.00    +0.000 A 
ATOM      7  C   UNL     1      -2.612  13.034  20.986  0.00  0.00    +0.000 A 
ATOM      8  C   UNL     1      -3.188  13.460  22.089  0.00  0.00    +0.000 A 
ATOM      9  C   UNL     1      -2.825  12.674  23.134  0.00  0.00    +0.000 A 
ATOM     10  C   UNL     1      -1.654  11.403  22.903  0.00  0.00    +0.000 A 
ATOM     11  C   UNL     1      -0.707  10.713  21.761  0.00  0.00    +0.000 A 
ENDROOT
BRANCH   9  12
ATOM     12  S   UNL     1      -4.023  13.568  24.442  0.00  0.00    +0.000 S 
ATOM     13  O   UNL     1      -5.254  13.922  23.746  0.00  0.00    +0.000 OA
ATOM     14  O   UNL     1      -4.123  12.642  25.560  0.00  0.00    +0.000 OA
BRANCH  12  15
ATOM     15  N   UNL     1      -3.390  14.991  25.028  0.00  0.00    +0.000 NA
ATOM     16  C   UNL     1      -1.940  14.917  25.161  0.00  0.00    +0.000 C 
ATOM     17  C   UNL     1      -1.326  15.813  26.210  0.00  0.00    +0.000 C 
ATOM     18  C   UNL     1      -1.211  17.257  25.765  0.00  0.00    +0.000 C 
ATOM     19  C   UNL     1      -2.553  17.927  25.509  0.00  0.00    +0.000 C 
ATOM     20  C   UNL     1      -3.262  17.376  24.280  0.00  0.00    +0.000 C 
ATOM     21  C   UNL     1      -4.123  16.178  24.566  0.00  0.00    +0.000 C 
ENDBRANCH  12  15
ENDBRANCH   9  12
BRANCH   1  22
ATOM     22  C   UNL     1       1.555   8.826  19.808  0.00  0.00    +0.000 C 
BRANCH  22  24
ATOM     23  N   UNL     1       3.320   6.526  18.866  0.00  0.00    +0.000 N 
ATOM     24  C   UNL     1       2.388   7.728  18.612  0.00  0.00    +0.000 C 
ATOM     25  O   UNL     1       2.127   8.071  17.450  0.00  0.00    +0.000 OA
ATOM     26  H   UNL     1       3.693   6.268  19.784  0.00  0.00    +0.000 HD
BRANCH  23  30
ATOM     27  C   UNL     1       5.524   4.471  15.430  0.00  0.00    +0.000 A 
ATOM     28  C   UNL     1       4.640   3.698  16.198  0.00  0.00    +0.000 A 
ATOM     29  C   UNL     1       3.859   4.286  17.320  0.00  0.00    +0.000 A 
ATOM     30  C   UNL     1       3.981   5.677  17.714  0.00  0.00    +0.000 A 
ATOM     31  C   UNL     1       4.829   6.359  16.862  0.00  0.00    +0.000 A 
ATOM     32  C   UNL     1       5.550   5.811  15.787  0.00  0.00    +0.000 A 
BRANCH  27  34
ATOM     33  C   UNL     1       5.540   3.569  13.029  0.00  0.00    +0.000 C 
ATOM     34  C   UNL     1       6.396   4.050  14.232  0.00  0.00    +0.000 C 
ATOM     35  C   UNL     1       7.382   5.095  13.699  0.00  0.00    +0.000 C 
ENDBRANCH  27  34
ENDBRANCH  23  30
ENDBRANCH  22  24
ENDBRANCH   1  22
TORSDOF 6
ENDMDL
MODEL 3
REMARK VINA RESULT:      -9.0      1.299      1.808
REMARK  Name = 
REMARK  8 active torsions:
REMARK  status: ('A' for Active; 'I' for Inactive)
REMARK    1  A    between atoms: C_1  and  C_2
REMARK    2  A    between atoms: C_2  and  C_3
REMARK    3  A    between atoms: C_2  and  C_4
REMARK    4  A    between atoms: C_7  and  N_8
REMARK    5  A    between atoms: C_9  and  C_11
REMARK    6  A    between atoms: C_11  and  N_12
REMARK    7  A    between atoms: C_20  and  S_21
REMARK    8  A    between atoms: S_21  and  N_24
REMARK                            x       y       z     vdW  Elec       q    Type
REMARK                         _______ _______ _______ _____ _____    ______ ____
ROOT
ATOM      1  N   UNL     1       0.586   9.982  21.077  0.00  0.00    +0.000 N 
ATOM      2  C   UNL     1       0.281  10.797  19.855  0.00  0.00    +0.000 C 
ATOM      3  O   UNL     1      -0.287  11.825  19.547  0.00  0.00    +0.000 OA
ATOM      4  C   UNL     1       0.909   9.950  18.998  0.00  0.00    +0.000 C 
ATOM      5  O   UNL     1       1.449   9.218  18.124  0.00  0.00    +0.000 OA
ATOM      6  C   UNL     1       1.877   8.288  19.233  0.00  0.00    +0.000 A 
ATOM      7  C   UNL     1       2.673   7.641  18.125  0.00  0.00    +0.000 A 
ATOM      8  C   UNL     1       2.892   6.345  18.074  0.00  0.00    +0.000 A 
ATOM      9  C   UNL     1       2.472   5.759  19.224  0.00  0.00    +0.000 A 
ATOM     10  C   UNL     1       1.661   6.708  20.440  0.00  0.00    +0.000 A 
ATOM     11  C   UNL     1       1.149   8.229  20.760  0.00  0.00    +0.000 A 
ENDROOT
BRANCH   9  12
ATOM     12  S   UNL     1       3.146   3.952  18.748  0.00  0.00    +0.000 S 
ATOM     13  O   UNL     1       3.235   3.173  19.977  0.00  0.00    +0.000 OA
ATOM     14  O   UNL     1       2.246   3.472  17.710  0.00  0.00    +0.000 OA
BRANCH  12  15
ATOM     15  N   UNL     1       4.679   3.986  18.102  0.00  0.00    +0.000 NA
ATOM     16  C   UNL     1       4.651   4.258  16.670  0.00  0.00    +0.000 C 
ATOM     17  C   UNL     1       5.813   3.716  15.871  0.00  0.00    +0.000 C 
ATOM     18  C   UNL     1       7.068   4.554  16.005  0.00  0.00    +0.000 C 
ATOM     19  C   UNL     1       7.633   4.589  17.418  0.00  0.00    +0.000 C 
ATOM     20  C   UNL     1       6.749   5.363  18.386  0.00  0.00    +0.000 C 
ATOM     21  C   UNL     1       5.681   4.526  19.032  0.00  0.00    +0.000 C 
ENDBRANCH  12  15
ENDBRANCH   9  12
BRANCH   1  22
ATOM     22  C   UNL     1      -0.196  11.240  22.032  0.00  0.00    +0.000 C 
BRANCH  22  24
ATOM     23  N   UNL     1      -1.766  13.840  21.767  0.00  0.00    +0.000 N 
ATOM     24  C   UNL     1      -1.436  12.507  22.468  0.00  0.00    +0.000 C 
ATOM     25  O   UNL     1      -2.052  12.181  23.493  0.00  0.00    +0.000 OA
ATOM     26  H   UNL     1      -1.213  14.244  21.004  0.00  0.00    +0.000 HD
BRANCH  23  30
ATOM     27  C   UNL     1      -4.578  17.019  23.459  0.00  0.00    +0.000 A 
ATOM     28  C   UNL     1      -5.126  16.040  22.616  0.00  0.00    +0.000 A 
ATOM     29  C   UNL     1      -4.294  14.950  22.039  0.00  0.00    +0.000 A 
ATOM     30  C   UNL     1      -2.867  14.845  22.279  0.00  0.00    +0.000 A 
ATOM     31  C   UNL     1      -2.441  15.818  23.163  0.00  0.00    +0.000 A 
ATOM     32  C   UNL     1      -3.230  16.834  23.729  0.00  0.00    +0.000 A 
BRANCH  27  34
ATOM     33  C   UNL     1      -6.795  18.252  23.842  0.00  0.00    +0.000 C 
ATOM     34  C   UNL     1      -5.276  18.201  24.159  0.00  0.00    +0.000 C 
ATOM     35  C   UNL     1      -5.127  18.282  25.682  0.00  0.00    +0.000 C 
ENDBRANCH  27  34
ENDBRANCH  23  30
ENDBRANCH  22  24
ENDBRANCH   1  22
TORSDOF 6
ENDMDL
MODEL 4
REMARK VINA RESULT:      -8.8      3.186     13.666
REMARK  Name = 
REMARK  8 active torsions:
REMARK  status: ('A' for Active; 'I' for Inactive)
REMARK    1  A    between atoms: C_1  and  C_2
REMARK    2  A    between atoms: C_2  and  C_3
REMARK    3  A    between atoms: C_2  and  C_4
REMARK    4  A    between atoms: C_7  and  N_8
REMARK    5  A    between atoms: C_9  and  C_11
REMARK    6  A    between atoms: C_11  and  N_12
REMARK    7  A    between atoms: C_20  and  S_21
REMARK    8  A    between atoms: S_21  and  N_24
REMARK                            x       y       z     vdW  Elec       q    Type
REMARK                         _______ _______ _______ _____ _____    ______ ____
ROOT
ATOM      1  N   UNL     1       1.470   8.578  20.114  0.00  0.00    +0.000 N 
ATOM      2  C   UNL     1       1.120   7.413  20.994  0.00  0.00    +0.000 C 
ATOM      3  O   UNL     1       1.368   6.230  21.104  0.00  0.00    +0.000 OA
ATOM      4  C   UNL     1       0.290   8.129  21.798  0.00  0.00    +0.000 C 
ATOM      5  O   UNL     1      -0.510   8.702  22.586  0.00  0.00    +0.000 OA
ATOM      6  C   UNL     1      -0.254   9.988  21.839  0.00  0.00    +0.000 A 
ATOM      7  C   UNL     1      -1.038  10.586  22.983  0.00  0.00    +0.000 A 
ATOM      8  C   UNL     1      -1.833  11.623  22.832  0.00  0.00    +0.000 A 
ATOM      9  C   UNL     1      -1.681  12.145  21.588  0.00  0.00    +0.000 A 
ATOM     10  C   UNL     1      -0.636  11.359  20.435  0.00  0.00    +0.000 A 
ATOM     11  C   UNL     1       0.352  10.067  20.261  0.00  0.00    +0.000 A 
ENDROOT
BRANCH   9  12
ATOM     12  S   UNL     1      -2.887  13.691  21.906  0.00  0.00    +0.000 S 
ATOM     13  O   UNL     1      -2.429  14.372  23.110  0.00  0.00    +0.000 OA
ATOM     14  O   UNL     1      -2.876  14.443  20.661  0.00  0.00    +0.000 OA
BRANCH  12  15
ATOM     15  N   UNL     1      -4.460  13.231  22.197  0.00  0.00    +0.000 NA
ATOM     16  C   UNL     1      -4.865  13.546  23.562  0.00  0.00    +0.000 C 
ATOM     17  C   UNL     1      -5.951  12.674  24.146  0.00  0.00    +0.000 C 
ATOM     18  C   UNL     1      -7.336  13.038  23.651  0.00  0.00    +0.000 C 
ATOM     19  C   UNL     1      -7.525  12.834  22.155  0.00  0.00    +0.000 C 
ATOM     20  C   UNL     1      -6.727  13.826  21.320  0.00  0.00    +0.000 C 
ATOM     21  C   UNL     1      -5.326  13.373  21.019  0.00  0.00    +0.000 C 
ENDBRANCH  12  15
ENDBRANCH   9  12
BRANCH   1  22
ATOM     22  C   UNL     1       2.567   7.507  19.244  0.00  0.00    +0.000 C 
BRANCH  22  24
ATOM     23  N   UNL     1       4.260   5.523  17.666  0.00  0.00    +0.000 N 
ATOM     24  C   UNL     1       3.605   6.904  17.870  0.00  0.00    +0.000 C 
ATOM     25  O   UNL     1       3.771   7.795  17.025  0.00  0.00    +0.000 OA
ATOM     26  H   UNL     1       4.288   4.786  18.377  0.00  0.00    +0.000 HD
BRANCH  23  30
ATOM     27  C   UNL     1       6.437   4.223  13.864  0.00  0.00    +0.000 A 
ATOM     28  C   UNL     1       7.107   5.091  14.740  0.00  0.00    +0.000 A 
ATOM     29  C   UNL     1       6.489   5.547  16.014  0.00  0.00    +0.000 A 
ATOM     30  C   UNL     1       5.152   5.157  16.419  0.00  0.00    +0.000 A 
ATOM     31  C   UNL     1       4.605   4.261  15.520  0.00  0.00    +0.000 A 
ATOM     32  C   UNL     1       5.197   3.810  14.327  0.00  0.00    +0.000 A 
BRANCH  27  34
ATOM     33  C   UNL     1       5.834   2.738  11.862  0.00  0.00    +0.000 C 
ATOM     34  C   UNL     1       6.916   3.633  12.524  0.00  0.00    +0.000 C 
ATOM     35  C   UNL     1       7.387   4.633  11.463  0.00  0.00    +0.000 C 
ENDBRANCH  27  34
ENDBRANCH  23  30
ENDBRANCH  22  24
ENDBRANCH   1  22
TORSDOF 6
ENDMDL
MODEL 5
REMARK VINA RESULT:      -8.8      3.950     13.330
REMARK  Name = 
REMARK  8 active torsions:
REMARK  status: ('A' for Active; 'I' for Inactive)
REMARK    1  A    between atoms: C_1  and  C_2
REMARK    2  A    between atoms: C_2  and  C_3
REMARK    3  A    between atoms: C_2  and  C_4
REMARK    4  A    between atoms: C_7  and  N_8
REMARK    5  A    between atoms: C_9  and  C_11
REMARK    6  A    between atoms: C_11  and  N_12
REMARK    7  A    between atoms: C_20  and  S_21
REMARK    8  A    between atoms: S_21  and  N_24
REMARK                            x       y       z     vdW  Elec       q    Type
REMARK                         _______ _______ _______ _____ _____    ______ ____
ROOT
ATOM      1  N   UNL     1       0.264  10.205  20.569  0.00  0.00    +0.000 N 
ATOM      2  C   UNL     1       0.393   9.538  21.907  0.00  0.00    +0.000 C 
ATOM      3  O   UNL     1       0.965   8.598  22.420  0.00  0.00    +0.000 OA
ATOM      4  C   UNL     1      -0.451  10.395  22.540  0.00  0.00    +0.000 C 
ATOM      5  O   UNL     1      -1.232  11.125  23.209  0.00  0.00    +0.000 OA
ATOM      6  C   UNL     1      -1.461  11.944  21.961  0.00  0.00    +0.000 A 
ATOM      7  C   UNL     1      -2.172  12.863  22.926  0.00  0.00    +0.000 A 
ATOM      8  C   UNL     1      -3.231  13.565  22.585  0.00  0.00    +0.000 A 
ATOM      9  C   UNL     1      -3.436  13.473  21.246  0.00  0.00    +0.000 A 
ATOM     10  C   UNL     1      -2.428  12.429  20.280  0.00  0.00    +0.000 A 
ATOM     11  C   UNL     1      -1.173  11.386  20.390  0.00  0.00    +0.000 A 
ENDROOT
BRANCH   9  12
ATOM     12  S   UNL     1      -4.943  14.767  21.217  0.00  0.00    +0.000 S 
ATOM     13  O   UNL     1      -5.863  14.402  22.287  0.00  0.00    +0.000 OA
ATOM     14  O   UNL     1      -4.318  16.079  21.284  0.00  0.00    +0.000 OA
BRANCH  12  15
ATOM     15  N   UNL     1      -5.819  14.704  19.804  0.00  0.00    +0.000 NA
ATOM     16  C   UNL     1      -6.371  13.374  19.576  0.00  0.00    +0.000 C 
ATOM     17  C   UNL     1      -6.619  13.000  18.134  0.00  0.00    +0.000 C 
ATOM     18  C   UNL     1      -7.880  13.620  17.567  0.00  0.00    +0.000 C 
ATOM     19  C   UNL     1      -7.841  15.140  17.506  0.00  0.00    +0.000 C 
ATOM     20  C   UNL     1      -7.880  15.786  18.885  0.00  0.00    +0.000 C 
ATOM     21  C   UNL     1      -6.525  15.959  19.510  0.00  0.00    +0.000 C 
ENDBRANCH  12  15
ENDBRANCH   9  12
BRANCH   1  22
ATOM     22  C   UNL     1       1.446   9.052  19.953  0.00  0.00    +0.000 C 
BRANCH  22  24
ATOM     23  N   UNL     1       3.256   6.782  19.025  0.00  0.00    +0.000 N 
ATOM     24  C   UNL     1       2.232   7.906  18.770  0.00  0.00    +0.000 C 
ATOM     25  O   UNL     1       1.843   8.136  17.616  0.00  0.00    +0.000 OA
ATOM     26  H   UNL     1       3.728   6.622  19.920  0.00  0.00    +0.000 HD
BRANCH  23  30
ATOM     27  C   UNL     1       5.299   4.553  15.598  0.00  0.00    +0.000 A 
ATOM     28  C   UNL     1       4.419   3.831  16.418  0.00  0.00    +0.000 A 
ATOM     29  C   UNL     1       3.688   4.477  17.541  0.00  0.00    +0.000 A 
ATOM     30  C   UNL     1       3.859   5.877  17.884  0.00  0.00    +0.000 A 
ATOM     31  C   UNL     1       4.698   6.507  16.984  0.00  0.00    +0.000 A 
ATOM     32  C   UNL     1       5.371   5.904  15.907  0.00  0.00    +0.000 A 
BRANCH  27  34
ATOM     33  C   UNL     1       5.238   3.844  13.134  0.00  0.00    +0.000 C 
ATOM     34  C   UNL     1       6.122   4.068  14.389  0.00  0.00    +0.000 C 
ATOM     35  C   UNL     1       7.300   4.950  13.963  0.00  0.00    +0.000 C 
ENDBRANCH  27  34
ENDBRANCH  23  30
ENDBRANCH  22  24
ENDBRANCH   1  22
TORSDOF 6
ENDMDL
MODEL 6
REMARK VINA RESULT:      -8.8      3.621     13.664
REMARK  Name = 
REMARK  8 active torsions:
REMARK  status: ('A' for Active; 'I' for Inactive)
REMARK    1  A    between atoms: C_1  and  C_2
REMARK    2  A    between atoms: C_2  and  C_3
REMARK    3  A    between atoms: C_2  and  C_4
REMARK    4  A    between atoms: C_7  and  N_8
REMARK    5  A    between atoms: C_9  and  C_11
REMARK    6  A    between atoms: C_11  and  N_12
REMARK    7  A    between atoms: C_20  and  S_21
REMARK    8  A    between atoms: S_21  and  N_24
REMARK                            x       y       z     vdW  Elec       q    Type
REMARK                         _______ _______ _______ _____ _____    ______ ____
ROOT
ATOM      1  N   UNL     1      -0.200  11.121  20.269  0.00  0.00    +0.000 N 
ATOM      2  C   UNL     1       0.303  10.230  21.367  0.00  0.00    +0.000 C 
ATOM      3  O   UNL     1       1.072   9.305  21.528  0.00  0.00    +0.000 OA
ATOM      4  C   UNL     1      -0.456  10.809  22.334  0.00  0.00    +0.000 C 
ATOM      5  O   UNL     1      -1.132  11.268  23.295  0.00  0.00    +0.000 OA
ATOM      6  C   UNL     1      -1.726  12.272  22.338  0.00  0.00    +0.000 A 
ATOM      7  C   UNL     1      -2.286  12.866  23.610  0.00  0.00    +0.000 A 
ATOM      8  C   UNL     1      -3.462  13.454  23.659  0.00  0.00    +0.000 A 
ATOM      9  C   UNL     1      -3.960  13.598  22.404  0.00  0.00    +0.000 A 
ATOM     10  C   UNL     1      -3.101  12.928  21.043  0.00  0.00    +0.000 A 
ATOM     11  C   UNL     1      -1.753  12.084  20.657  0.00  0.00    +0.000 A 
ENDROOT
BRANCH   9  12
ATOM     12  S   UNL     1      -5.557  14.631  22.975  0.00  0.00    +0.000 S 
ATOM     13  O   UNL     1      -6.669  13.697  23.099  0.00  0.00    +0.000 OA
ATOM     14  O   UNL     1      -5.140  15.344  24.172  0.00  0.00    +0.000 OA
BRANCH  12  15
ATOM     15  N   UNL     1      -6.023  15.768  21.853  0.00  0.00    +0.000 NA
ATOM     16  C   UNL     1      -7.277  15.400  21.207  0.00  0.00    +0.000 C 
ATOM     17  C   UNL     1      -7.486  15.943  19.813  0.00  0.00    +0.000 C 
ATOM     18  C   UNL     1      -7.908  17.399  19.800  0.00  0.00    +0.000 C 
ATOM     19  C   UNL     1      -6.858  18.345  20.364  0.00  0.00    +0.000 C 
ATOM     20  C   UNL     1      -6.668  18.187  21.866  0.00  0.00    +0.000 C 
ATOM     21  C   UNL     1      -5.658  17.138  22.240  0.00  0.00    +0.000 C 
ENDBRANCH  12  15
ENDBRANCH   9  12
BRANCH   1  22
ATOM     22  C   UNL     1       0.920  10.303  19.181  0.00  0.00    +0.000 C 
BRANCH  22  24
ATOM     23  N   UNL     1       2.183   7.536  18.991  0.00  0.00    +0.000 N 
ATOM     24  C   UNL     1       1.810   8.912  18.404  0.00  0.00    +0.000 C 
ATOM     25  O   UNL     1       2.137   9.196  17.244  0.00  0.00    +0.000 OA
ATOM     26  H   UNL     1       2.074   7.279  19.977  0.00  0.00    +0.000 HD
BRANCH  23  30
ATOM     27  C   UNL     1       4.830   4.695  16.581  0.00  0.00    +0.000 A 
ATOM     28  C   UNL     1       3.707   4.156  17.226  0.00  0.00    +0.000 A 
ATOM     29  C   UNL     1       2.773   5.007  18.011  0.00  0.00    +0.000 A 
ATOM     30  C   UNL     1       2.976   6.433  18.190  0.00  0.00    +0.000 A 
ATOM     31  C   UNL     1       4.071   6.870  17.471  0.00  0.00    +0.000 A 
ATOM     32  C   UNL     1       4.942   6.071  16.708  0.00  0.00    +0.000 A 
BRANCH  27  34
ATOM     33  C   UNL     1       5.575   4.095  14.201  0.00  0.00    +0.000 C 
ATOM     34  C   UNL     1       5.889   3.984  15.717  0.00  0.00    +0.000 C 
ATOM     35  C   UNL     1       7.343   4.426  15.912  0.00  0.00    +0.000 C 
ENDBRANCH  27  34
ENDBRANCH  23  30
ENDBRANCH  22  24
ENDBRANCH   1  22
TORSDOF 6
ENDMDL
MODEL 7
REMARK VINA RESULT:      -8.7      3.172     13.757
REMARK  Name = 
REMARK  8 active torsions:
REMARK  status: ('A' for Active; 'I' for Inactive)
REMARK    1  A    between atoms: C_1  and  C_2
REMARK    2  A    between atoms: C_2  and  C_3
REMARK    3  A    between atoms: C_2  and  C_4
REMARK    4  A    between atoms: C_7  and  N_8
REMARK    5  A    between atoms: C_9  and  C_11
REMARK    6  A    between atoms: C_11  and  N_12
REMARK    7  A    between atoms: C_20  and  S_21
REMARK    8  A    between atoms: S_21  and  N_24
REMARK                            x       y       z     vdW  Elec       q    Type
REMARK                         _______ _______ _______ _____ _____    ______ ____
ROOT
ATOM      1  N   UNL     1       0.407  10.628  19.982  0.00  0.00    +0.000 N 
ATOM      2  C   UNL     1       0.955  11.756  19.157  0.00  0.00    +0.000 C 
ATOM      3  O   UNL     1       1.877  11.987  18.403  0.00  0.00    +0.000 OA
ATOM      4  C   UNL     1      -0.008  12.640  19.527  0.00  0.00    +0.000 C 
ATOM      5  O   UNL     1      -0.845  13.536  19.824  0.00  0.00    +0.000 OA
ATOM      6  C   UNL     1      -1.558  12.520  20.684  0.00  0.00    +0.000 A 
ATOM      7  C   UNL     1      -2.606  13.605  20.763  0.00  0.00    +0.000 A 
ATOM      8  C   UNL     1      -3.338  13.805  21.837  0.00  0.00    +0.000 A 
ATOM      9  C   UNL     1      -3.136  12.802  22.729  0.00  0.00    +0.000 A 
ATOM     10  C   UNL     1      -1.945  11.571  22.401  0.00  0.00    +0.000 A 
ATOM     11  C   UNL     1      -0.840  11.111  21.286  0.00  0.00    +0.000 A 
ENDROOT
BRANCH   9  12
ATOM     12  S   UNL     1      -4.514  13.435  24.011  0.00  0.00    +0.000 S 
ATOM     13  O   UNL     1      -5.662  12.544  23.906  0.00  0.00    +0.000 OA
ATOM     14  O   UNL     1      -3.833  13.509  25.295  0.00  0.00    +0.000 OA
BRANCH  12  15
ATOM     15  N   UNL     1      -5.072  14.962  23.655  0.00  0.00    +0.000 NA
ATOM     16  C   UNL     1      -6.500  14.955  23.360  0.00  0.00    +0.000 C 
ATOM     17  C   UNL     1      -6.993  16.055  22.450  0.00  0.00    +0.000 C 
ATOM     18  C   UNL     1      -7.146  17.387  23.156  0.00  0.00    +0.000 C 
ATOM     19  C   UNL     1      -5.835  17.958  23.677  0.00  0.00    +0.000 C 
ATOM     20  C   UNL     1      -5.264  17.158  24.840  0.00  0.00    +0.000 C 
ATOM     21  C   UNL     1      -4.385  16.016  24.414  0.00  0.00    +0.000 C 
ENDBRANCH  12  15
ENDBRANCH   9  12
BRANCH   1  22
ATOM     22  C   UNL     1       1.685   9.610  19.320  0.00  0.00    +0.000 C 
BRANCH  22  24
ATOM     23  N   UNL     1       3.245   7.076  18.660  0.00  0.00    +0.000 N 
ATOM     24  C   UNL     1       2.456   8.339  18.261  0.00  0.00    +0.000 C 
ATOM     25  O   UNL     1       2.286   8.607  17.063  0.00  0.00    +0.000 OA
ATOM     26  H   UNL     1       3.547   6.861  19.615  0.00  0.00    +0.000 HD
BRANCH  23  30
ATOM     27  C   UNL     1       5.354   4.546  15.492  0.00  0.00    +0.000 A 
ATOM     28  C   UNL     1       4.444   3.904  16.346  0.00  0.00    +0.000 A 
ATOM     29  C   UNL     1       3.691   4.650  17.390  0.00  0.00    +0.000 A 
ATOM     30  C   UNL     1       3.869   6.072  17.616  0.00  0.00    +0.000 A 
ATOM     31  C   UNL     1       4.738   6.615  16.690  0.00  0.00    +0.000 A 
ATOM     32  C   UNL     1       5.433   5.917  15.687  0.00  0.00    +0.000 A 
BRANCH  27  34
ATOM     33  C   UNL     1       5.346   3.608  13.105  0.00  0.00    +0.000 C 
ATOM     34  C   UNL     1       6.204   3.952  14.352  0.00  0.00    +0.000 C 
ATOM     35  C   UNL     1       7.389   4.795  13.869  0.00  0.00    +0.000 C 
ENDBRANCH  27  34
ENDBRANCH  23  30
ENDBRANCH  22  24
ENDBRANCH   1  22
TORSDOF 6
ENDMDL
MODEL 8
REMARK VINA RESULT:      -8.5      4.787     13.388
REMARK  Name = 
REMARK  8 active torsions:
REMARK  status: ('A' for Active; 'I' for Inactive)
REMARK    1  A    between atoms: C_1  and  C_2
REMARK    2  A    between atoms: C_2  and  C_3
REMARK    3  A    between atoms: C_2  and  C_4
REMARK    4  A    between atoms: C_7  and  N_8
REMARK    5  A    between atoms: C_9  and  C_11
REMARK    6  A    between atoms: C_11  and  N_12
REMARK    7  A    between atoms: C_20  and  S_21
REMARK    8  A    between atoms: S_21  and  N_24
REMARK                            x       y       z     vdW  Elec       q    Type
REMARK                         _______ _______ _______ _____ _____    ______ ____
ROOT
ATOM      1  N   UNL     1      -0.918  11.258  20.042  0.00  0.00    +0.000 N 
ATOM      2  C   UNL     1      -0.018  11.728  21.147  0.00  0.00    +0.000 C 
ATOM      3  O   UNL     1       1.005  11.397  21.711  0.00  0.00    +0.000 OA
ATOM      4  C   UNL     1      -0.762  12.828  21.435  0.00  0.00    +0.000 C 
ATOM      5  O   UNL     1      -1.394  13.861  21.787  0.00  0.00    +0.000 OA
ATOM      6  C   UNL     1      -2.392  13.567  20.694  0.00  0.00    +0.000 A 
ATOM      7  C   UNL     1      -2.909  14.939  21.060  0.00  0.00    +0.000 A 
ATOM      8  C   UNL     1      -4.185  15.253  21.006  0.00  0.00    +0.000 A 
ATOM      9  C   UNL     1      -4.883  14.253  20.411  0.00  0.00    +0.000 A 
ATOM     10  C   UNL     1      -4.075  12.775  19.960  0.00  0.00    +0.000 A 
ATOM     11  C   UNL     1      -2.611  12.045  19.987  0.00  0.00    +0.000 A 
ENDROOT
BRANCH   9  12
ATOM     12  S   UNL     1      -6.612  15.230  20.410  0.00  0.00    +0.000 S 
ATOM     13  O   UNL     1      -7.612  14.364  21.020  0.00  0.00    +0.000 OA
ATOM     14  O   UNL     1      -6.330  16.500  21.063  0.00  0.00    +0.000 OA
BRANCH  12  15
ATOM     15  N   UNL     1      -7.159  15.570  18.875  0.00  0.00    +0.000 NA
ATOM     16  C   UNL     1      -6.536  16.773  18.338  0.00  0.00    +0.000 C 
ATOM     17  C   UNL     1      -7.339  17.530  17.307  0.00  0.00    +0.000 C 
ATOM     18  C   UNL     1      -7.292  16.893  15.933  0.00  0.00    +0.000 C 
ATOM     19  C   UNL     1      -7.916  15.506  15.879  0.00  0.00    +0.000 C 
ATOM     20  C   UNL     1      -7.101  14.463  16.631  0.00  0.00    +0.000 C 
ATOM     21  C   UNL     1      -7.448  14.362  18.090  0.00  0.00    +0.000 C 
ENDBRANCH  12  15
ENDBRANCH   9  12
BRANCH   1  22
ATOM     22  C   UNL     1       0.220   9.941  19.764  0.00  0.00    +0.000 C 
BRANCH  22  24
ATOM     23  N   UNL     1       2.113   7.595  19.310  0.00  0.00    +0.000 N 
ATOM     24  C   UNL     1       1.302   8.812  18.822  0.00  0.00    +0.000 C 
ATOM     25  O   UNL     1       1.349   9.146  17.630  0.00  0.00    +0.000 OA
ATOM     26  H   UNL     1       2.237   7.340  20.295  0.00  0.00    +0.000 HD
BRANCH  23  30
ATOM     27  C   UNL     1       5.060   5.455  16.550  0.00  0.00    +0.000 A 
ATOM     28  C   UNL     1       4.000   4.707  17.084  0.00  0.00    +0.000 A 
ATOM     29  C   UNL     1       2.976   5.324  17.970  0.00  0.00    +0.000 A 
ATOM     30  C   UNL     1       3.023   6.718  18.367  0.00  0.00    +0.000 A 
ATOM     31  C   UNL     1       4.067   7.375  17.744  0.00  0.00    +0.000 A 
ATOM     32  C   UNL     1       5.021   6.800  16.887  0.00  0.00    +0.000 A 
BRANCH  27  34
ATOM     33  C   UNL     1       7.406   4.429  16.391  0.00  0.00    +0.000 C 
ATOM     34  C   UNL     1       6.193   5.002  15.609  0.00  0.00    +0.000 C 
ATOM     35  C   UNL     1       5.823   3.978  14.532  0.00  0.00    +0.000 C 
ENDBRANCH  27  34
ENDBRANCH  23  30
ENDBRANCH  22  24
ENDBRANCH   1  22
TORSDOF 6
ENDMDL
MODEL 9
REMARK VINA RESULT:      -8.4      1.035      1.771
REMARK  Name = 
REMARK  8 active torsions:
REMARK  status: ('A' for Active; 'I' for Inactive)
REMARK    1  A    between atoms: C_1  and  C_2
REMARK    2  A    between atoms: C_2  and  C_3
REMARK    3  A    between atoms: C_2  and  C_4
REMARK    4  A    between atoms: C_7  and  N_8
REMARK    5  A    between atoms: C_9  and  C_11
REMARK    6  A    between atoms: C_11  and  N_12
REMARK    7  A    between atoms: C_20  and  S_21
REMARK    8  A    between atoms: S_21  and  N_24
REMARK                            x       y       z     vdW  Elec       q    Type
REMARK                         _______ _______ _______ _____ _____    ______ ____
ROOT
ATOM      1  N   UNL     1       0.641   9.287  20.788  0.00  0.00    +0.000 N 
ATOM      2  C   UNL     1       0.248  10.068  19.569  0.00  0.00    +0.000 C 
ATOM      3  O   UNL     1      -0.470  10.995  19.256  0.00  0.00    +0.000 OA
ATOM      4  C   UNL     1       1.036   9.354  18.722  0.00  0.00    +0.000 C 
ATOM      5  O   UNL     1       1.719   8.740  17.858  0.00  0.00    +0.000 OA
ATOM      6  C   UNL     1       2.255   7.869  18.967  0.00  0.00    +0.000 A 
ATOM      7  C   UNL     1       3.185   7.385  17.878  0.00  0.00    +0.000 A 
ATOM      8  C   UNL     1       3.615   6.144  17.815  0.00  0.00    +0.000 A 
ATOM      9  C   UNL     1       3.258   5.472  18.939  0.00  0.00    +0.000 A 
ATOM     10  C   UNL     1       2.261   6.249  20.139  0.00  0.00    +0.000 A 
ATOM     11  C   UNL     1       1.495   7.658  20.464  0.00  0.00    +0.000 A 
ENDROOT
BRANCH   9  12
ATOM     12  S   UNL     1       4.236   3.811  18.459  0.00  0.00    +0.000 S 
ATOM     13  O   UNL     1       4.952   3.359  19.646  0.00  0.00    +0.000 OA
ATOM     14  O   UNL     1       3.227   2.923  17.902  0.00  0.00    +0.000 OA
BRANCH  12  15
ATOM     15  N   UNL     1       5.387   4.058  17.283  0.00  0.00    +0.000 NA
ATOM     16  C   UNL     1       4.786   4.171  15.961  0.00  0.00    +0.000 C 
ATOM     17  C   UNL     1       5.664   3.771  14.799  0.00  0.00    +0.000 C 
ATOM     18  C   UNL     1       6.678   4.834  14.427  0.00  0.00    +0.000 C 
ATOM     19  C   UNL     1       7.697   5.117  15.522  0.00  0.00    +0.000 C 
ATOM     20  C   UNL     1       7.085   5.812  16.730  0.00  0.00    +0.000 C 
ATOM     21  C   UNL     1       6.523   4.865  17.753  0.00  0.00    +0.000 C 
ENDBRANCH  12  15
ENDBRANCH   9  12
BRANCH   1  22
ATOM     22  C   UNL     1      -0.371  10.379  21.733  0.00  0.00    +0.000 C 
BRANCH  22  24
ATOM     23  N   UNL     1      -2.432  12.622  21.824  0.00  0.00    +0.000 N 
ATOM     24  C   UNL     1      -1.113  11.957  22.267  0.00  0.00    +0.000 C 
ATOM     25  O   UNL     1      -0.388  12.522  23.098  0.00  0.00    +0.000 OA
ATOM     26  H   UNL     1      -3.013  12.292  21.047  0.00  0.00    +0.000 HD
BRANCH  23  30
ATOM     27  C   UNL     1      -4.357  16.450  23.413  0.00  0.00    +0.000 A 
ATOM     28  C   UNL     1      -2.956  16.398  23.347  0.00  0.00    +0.000 A 
ATOM     29  C   UNL     1      -2.242  15.205  22.819  0.00  0.00    +0.000 A 
ATOM     30  C   UNL     1      -2.935  14.012  22.372  0.00  0.00    +0.000 A 
ATOM     31  C   UNL     1      -4.305  14.187  22.425  0.00  0.00    +0.000 A 
ATOM     32  C   UNL     1      -4.983  15.323  22.901  0.00  0.00    +0.000 A 
BRANCH  27  34
ATOM     33  C   UNL     1      -6.763  17.319  23.598  0.00  0.00    +0.000 C 
ATOM     34  C   UNL     1      -5.266  17.592  23.906  0.00  0.00    +0.000 C 
ATOM     35  C   UNL     1      -5.167  17.957  25.390  0.00  0.00    +0.000 C 
ENDBRANCH  27  34
ENDBRANCH  23  30
ENDBRANCH  22  24
ENDBRANCH   1  22
TORSDOF 6
ENDMDL
