MODEL 1
REMARK VINA RESULT:      -7.0      0.000      0.000
REMARK  Name = 
REMARK  5 active torsions:
REMARK  status: ('A' for Active; 'I' for Inactive)
REMARK    1  A    between atoms: C_1  and  N_2
REMARK    2  A    between atoms: N_2  and  C_3
REMARK    3  A    between atoms: N_2  and  C_4
REMARK    4  A    between atoms: C_4  and  C_5
REMARK    5  A    between atoms: C_5  and  N_6
REMARK                            x       y       z     vdW  Elec       q    Type
REMARK                         _______ _______ _______ _____ _____    ______ ____
ROOT
ATOM      1  N   UNL     1       6.230  15.852  20.650  0.00  0.00    +0.000 N 
ATOM      2  C   UNL     1       6.011  15.262  21.877  0.00  0.00    +0.000 C 
ATOM      3  O   UNL     1       5.110  15.605  22.640  0.00  0.00    +0.000 OA
ATOM      4  C   UNL     1       7.010  14.251  21.947  0.00  0.00    +0.000 A 
ATOM      5  C   UNL     1       7.760  14.255  20.730  0.00  0.00    +0.000 A 
ATOM      6  C   UNL     1       8.809  13.305  20.572  0.00  0.00    +0.000 A 
ATOM      7  C   UNL     1       9.654  13.113  19.476  0.00  0.00    +0.000 A 
ATOM      8  C   UNL     1       9.867  13.638  18.186  0.00  0.00    +0.000 A 
ATOM      9  C   UNL     1      10.884  13.113  17.374  0.00  0.00    +0.000 A 
ATOM     10  C   UNL     1      11.696  12.075  17.821  0.00  0.00    +0.000 A 
ATOM     11  C   UNL     1      11.516  11.527  19.090  0.00  0.00    +0.000 A 
ATOM     12  C   UNL     1      10.495  12.054  19.896  0.00  0.00    +0.000 A 
ATOM     13  N   UNL     1      10.124  11.683  21.180  0.00  0.00    +0.000 N 
ATOM     14  C   UNL     1       9.080  12.451  21.594  0.00  0.00    +0.000 A 
ATOM     15  C   UNL     1       8.369  12.466  22.769  0.00  0.00    +0.000 A 
ATOM     16  N   UNL     1       8.467  11.732  23.912  0.00  0.00    +0.000 N 
ATOM     17  C   UNL     1       7.502  12.154  24.822  0.00  0.00    +0.000 A 
ATOM     18  C   UNL     1       7.241  11.684  26.115  0.00  0.00    +0.000 A 
ATOM     19  C   UNL     1       6.205  12.284  26.835  0.00  0.00    +0.000 A 
ATOM     20  C   UNL     1       5.460  13.317  26.284  0.00  0.00    +0.000 A 
ATOM     21  C   UNL     1       5.728  13.782  24.992  0.00  0.00    +0.000 A 
ATOM     22  C   UNL     1       6.760  13.200  24.232  0.00  0.00    +0.000 A 
ATOM     23  C   UNL     1       7.345  13.331  22.973  0.00  0.00    +0.000 A 
ATOM     24  C   UNL     1       7.253  15.306  19.896  0.00  0.00    +0.000 C 
ATOM     25  O   UNL     1       7.567  15.697  18.771  0.00  0.00    +0.000 OA
ATOM     26  H   UNL     1      10.572  10.949  21.710  0.00  0.00    +0.000 HD
ATOM     27  H   UNL     1       9.135  10.998  24.093  0.00  0.00    +0.000 HD
ENDROOT
BRANCH   1  28
ATOM     28  C   UNL     1       5.448  17.007  20.234  0.00  0.00    +0.000 C 
BRANCH  28  29
ATOM     29  C   UNL     1       4.050  16.617  19.680  0.00  0.00    +0.000 C 
BRANCH  29  31
ATOM     30  C   UNL     1       4.264  15.327  17.651  0.00  0.00    +0.000 C 
ATOM     31  N   UNL     1       3.955  16.647  18.206  0.00  0.00    +0.000 NA
ATOM     32  C   UNL     1       2.608  17.047  17.776  0.00  0.00    +0.000 C 
ENDBRANCH  29  31
ENDBRANCH  28  29
ENDBRANCH   1  28
TORSDOF 3
ENDMDL
MODEL 2
REMARK VINA RESULT:      -7.0      0.529      5.614
REMARK  Name = 
REMARK  5 active torsions:
REMARK  status: ('A' for Active; 'I' for Inactive)
REMARK    1  A    between atoms: C_1  and  N_2
REMARK    2  A    between atoms: N_2  and  C_3
REMARK    3  A    between atoms: N_2  and  C_4
REMARK    4  A    between atoms: C_4  and  C_5
REMARK    5  A    between atoms: C_5  and  N_6
REMARK                            x       y       z     vdW  Elec       q    Type
REMARK                         _______ _______ _______ _____ _____    ______ ____
ROOT
ATOM      1  N   UNL     1       6.515  15.904  20.294  0.00  0.00    +0.000 N 
ATOM      2  C   UNL     1       7.584  15.327  19.641  0.00  0.00    +0.000 C 
ATOM      3  O   UNL     1       7.991  15.708  18.545  0.00  0.00    +0.000 OA
ATOM      4  C   UNL     1       8.017  14.310  20.537  0.00  0.00    +0.000 A 
ATOM      5  C   UNL     1       7.206  14.353  21.714  0.00  0.00    +0.000 A 
ATOM      6  C   UNL     1       7.476  13.429  22.763  0.00  0.00    +0.000 A 
ATOM      7  C   UNL     1       6.834  13.299  23.997  0.00  0.00    +0.000 A 
ATOM      8  C   UNL     1       5.794  13.904  24.730  0.00  0.00    +0.000 A 
ATOM      9  C   UNL     1       5.467  13.427  26.008  0.00  0.00    +0.000 A 
ATOM     10  C   UNL     1       6.153  12.355  26.572  0.00  0.00    +0.000 A 
ATOM     11  C   UNL     1       7.188  11.730  25.879  0.00  0.00    +0.000 A 
ATOM     12  C   UNL     1       7.513  12.214  24.604  0.00  0.00    +0.000 A 
ATOM     13  N   UNL     1       8.492  11.766  23.728  0.00  0.00    +0.000 N 
ATOM     14  C   UNL     1       8.471  12.520  22.595  0.00  0.00    +0.000 A 
ATOM     15  C   UNL     1       9.233  12.470  21.453  0.00  0.00    +0.000 A 
ATOM     16  N   UNL     1      10.252  11.655  21.064  0.00  0.00    +0.000 N 
ATOM     17  C   UNL     1      10.682  12.021  19.792  0.00  0.00    +0.000 A 
ATOM     18  C   UNL     1      11.699  11.461  19.006  0.00  0.00    +0.000 A 
ATOM     19  C   UNL     1      11.936  12.016  17.746  0.00  0.00    +0.000 A 
ATOM     20  C   UNL     1      11.184  13.088  17.287  0.00  0.00    +0.000 A 
ATOM     21  C   UNL     1      10.169  13.641  18.077  0.00  0.00    +0.000 A 
ATOM     22  C   UNL     1       9.903  13.113  19.355  0.00  0.00    +0.000 A 
ATOM     23  C   UNL     1       9.040  13.335  20.428  0.00  0.00    +0.000 A 
ATOM     24  C   UNL     1       6.225  15.386  21.543  0.00  0.00    +0.000 C 
ATOM     25  O   UNL     1       5.319  15.799  22.269  0.00  0.00    +0.000 OA
ATOM     26  H   UNL     1       9.116  10.996  23.921  0.00  0.00    +0.000 HD
ATOM     27  H   UNL     1      10.644  10.893  21.598  0.00  0.00    +0.000 HD
ENDROOT
BRANCH   1  28
ATOM     28  C   UNL     1       5.734  16.952  19.653  0.00  0.00    +0.000 C 
BRANCH  28  29
ATOM     29  C   UNL     1       4.553  16.392  18.813  0.00  0.00    +0.000 C 
BRANCH  29  31
ATOM     30  C   UNL     1       2.193  16.470  18.310  0.00  0.00    +0.000 C 
ATOM     31  N   UNL     1       3.321  17.205  18.888  0.00  0.00    +0.000 NA
ATOM     32  C   UNL     1       3.007  17.553  20.280  0.00  0.00    +0.000 C 
ENDBRANCH  29  31
ENDBRANCH  28  29
ENDBRANCH   1  28
TORSDOF 3
ENDMDL
MODEL 3
REMARK VINA RESULT:      -6.8      8.849     12.103
REMARK  Name = 
REMARK  5 active torsions:
REMARK  status: ('A' for Active; 'I' for Inactive)
REMARK    1  A    between atoms: C_1  and  N_2
REMARK    2  A    between atoms: N_2  and  C_3
REMARK    3  A    between atoms: N_2  and  C_4
REMARK    4  A    between atoms: C_4  and  C_5
REMARK    5  A    between atoms: C_5  and  N_6
REMARK                            x       y       z     vdW  Elec       q    Type
REMARK                         _______ _______ _______ _____ _____    ______ ____
ROOT
ATOM      1  N   UNL     1      -5.252  12.914  19.675  0.00  0.00    +0.000 N 
ATOM      2  C   UNL     1      -4.182  12.221  19.149  0.00  0.00    +0.000 C 
ATOM      3  O   UNL     1      -4.236  11.593  18.094  0.00  0.00    +0.000 OA
ATOM      4  C   UNL     1      -3.134  12.462  20.082  0.00  0.00    +0.000 A 
ATOM      5  C   UNL     1      -3.620  13.329  21.110  0.00  0.00    +0.000 A 
ATOM      6  C   UNL     1      -2.729  13.722  22.149  0.00  0.00    +0.000 A 
ATOM      7  C   UNL     1      -2.973  14.566  23.235  0.00  0.00    +0.000 A 
ATOM      8  C   UNL     1      -4.018  15.345  23.768  0.00  0.00    +0.000 A 
ATOM      9  C   UNL     1      -3.814  16.082  24.945  0.00  0.00    +0.000 A 
ATOM     10  C   UNL     1      -2.588  16.058  25.604  0.00  0.00    +0.000 A 
ATOM     11  C   UNL     1      -1.528  15.300  25.107  0.00  0.00    +0.000 A 
ATOM     12  C   UNL     1      -1.738  14.569  23.928  0.00  0.00    +0.000 A 
ATOM     13  N   UNL     1      -0.850  13.751  23.245  0.00  0.00    +0.000 N 
ATOM     14  C   UNL     1      -1.461  13.233  22.144  0.00  0.00    +0.000 A 
ATOM     15  C   UNL     1      -1.007  12.383  21.165  0.00  0.00    +0.000 A 
ATOM     16  N   UNL     1       0.192  11.768  20.966  0.00  0.00    +0.000 N 
ATOM     17  C   UNL     1       0.131  10.990  19.814  0.00  0.00    +0.000 A 
ATOM     18  C   UNL     1       1.124  10.190  19.234  0.00  0.00    +0.000 A 
ATOM     19  C   UNL     1       0.808   9.497  18.062  0.00  0.00    +0.000 A 
ATOM     20  C   UNL     1      -0.455   9.598  17.494  0.00  0.00    +0.000 A 
ATOM     21  C   UNL     1      -1.442  10.398  18.081  0.00  0.00    +0.000 A 
ATOM     22  C   UNL     1      -1.160  11.116  19.259  0.00  0.00    +0.000 A 
ATOM     23  C   UNL     1      -1.799  11.989  20.138  0.00  0.00    +0.000 A 
ATOM     24  C   UNL     1      -5.001  13.610  20.843  0.00  0.00    +0.000 C 
ATOM     25  O   UNL     1      -5.837  14.297  21.431  0.00  0.00    +0.000 OA
ATOM     26  H   UNL     1       0.101  13.579  23.535  0.00  0.00    +0.000 HD
ATOM     27  H   UNL     1       1.007  11.845  21.556  0.00  0.00    +0.000 HD
ENDROOT
BRANCH   1  28
ATOM     28  C   UNL     1      -6.560  12.847  19.039  0.00  0.00    +0.000 C 
BRANCH  28  29
ATOM     29  C   UNL     1      -7.219  11.447  19.167  0.00  0.00    +0.000 C 
BRANCH  29  31
ATOM     30  C   UNL     1      -7.913  11.448  21.480  0.00  0.00    +0.000 C 
ATOM     31  N   UNL     1      -7.038  10.813  20.490  0.00  0.00    +0.000 NA
ATOM     32  C   UNL     1      -7.343   9.378  20.429  0.00  0.00    +0.000 C 
ENDBRANCH  29  31
ENDBRANCH  28  29
ENDBRANCH   1  28
TORSDOF 3
ENDMDL
MODEL 4
REMARK VINA RESULT:      -6.8      1.746      5.677
REMARK  Name = 
REMARK  5 active torsions:
REMARK  status: ('A' for Active; 'I' for Inactive)
REMARK    1  A    between atoms: C_1  and  N_2
REMARK    2  A    between atoms: N_2  and  C_3
REMARK    3  A    between atoms: N_2  and  C_4
REMARK    4  A    between atoms: C_4  and  C_5
REMARK    5  A    between atoms: C_5  and  N_6
REMARK                            x       y       z     vdW  Elec       q    Type
REMARK                         _______ _______ _______ _____ _____    ______ ____
ROOT
ATOM      1  N   UNL     1       7.163  14.852  22.981  0.00  0.00    +0.000 N 
ATOM      2  C   UNL     1       6.157  15.340  22.174  0.00  0.00    +0.000 C 
ATOM      3  O   UNL     1       5.198  15.979  22.601  0.00  0.00    +0.000 OA
ATOM      4  C   UNL     1       6.552  14.941  20.866  0.00  0.00    +0.000 A 
ATOM      5  C   UNL     1       7.809  14.264  20.948  0.00  0.00    +0.000 A 
ATOM      6  C   UNL     1       8.408  13.790  19.747  0.00  0.00    +0.000 A 
ATOM      7  C   UNL     1       9.626  13.124  19.583  0.00  0.00    +0.000 A 
ATOM      8  C   UNL     1      10.709  12.672  20.361  0.00  0.00    +0.000 A 
ATOM      9  C   UNL     1      11.788  12.016  19.748  0.00  0.00    +0.000 A 
ATOM     10  C   UNL     1      11.809  11.799  18.374  0.00  0.00    +0.000 A 
ATOM     11  C   UNL     1      10.757  12.233  17.569  0.00  0.00    +0.000 A 
ATOM     12  C   UNL     1       9.683  12.890  18.187  0.00  0.00    +0.000 A 
ATOM     13  N   UNL     1       8.533  13.409  17.609  0.00  0.00    +0.000 N 
ATOM     14  C   UNL     1       7.750  13.969  18.571  0.00  0.00    +0.000 A 
ATOM     15  C   UNL     1       6.533  14.601  18.502  0.00  0.00    +0.000 A 
ATOM     16  N   UNL     1       5.698  14.876  17.461  0.00  0.00    +0.000 N 
ATOM     17  C   UNL     1       4.568  15.536  17.933  0.00  0.00    +0.000 A 
ATOM     18  C   UNL     1       3.456  16.004  17.220  0.00  0.00    +0.000 A 
ATOM     19  C   UNL     1       2.438  16.641  17.935  0.00  0.00    +0.000 A 
ATOM     20  C   UNL     1       2.526  16.800  19.311  0.00  0.00    +0.000 A 
ATOM     21  C   UNL     1       3.640  16.328  20.016  0.00  0.00    +0.000 A 
ATOM     22  C   UNL     1       4.689  15.686  19.330  0.00  0.00    +0.000 A 
ATOM     23  C   UNL     1       5.921  15.094  19.606  0.00  0.00    +0.000 A 
ATOM     24  C   UNL     1       8.194  14.202  22.328  0.00  0.00    +0.000 C 
ATOM     25  O   UNL     1       9.180  13.727  22.895  0.00  0.00    +0.000 OA
ATOM     26  H   UNL     1       8.327  13.369  16.621  0.00  0.00    +0.000 HD
ATOM     27  H   UNL     1       5.855  14.639  16.493  0.00  0.00    +0.000 HD
ENDROOT
BRANCH   1  28
ATOM     28  C   UNL     1       7.082  14.988  24.429  0.00  0.00    +0.000 C 
BRANCH  28  29
ATOM     29  C   UNL     1       6.176  13.910  25.083  0.00  0.00    +0.000 C 
BRANCH  29  31
ATOM     30  C   UNL     1       7.107  11.687  24.942  0.00  0.00    +0.000 C 
ATOM     31  N   UNL     1       6.917  12.855  25.805  0.00  0.00    +0.000 NA
ATOM     32  C   UNL     1       8.229  13.347  26.246  0.00  0.00    +0.000 C 
ENDBRANCH  29  31
ENDBRANCH  28  29
ENDBRANCH   1  28
TORSDOF 3
ENDMDL
MODEL 5
REMARK VINA RESULT:      -6.7      8.792     10.984
REMARK  Name = 
REMARK  5 active torsions:
REMARK  status: ('A' for Active; 'I' for Inactive)
REMARK    1  A    between atoms: C_1  and  N_2
REMARK    2  A    between atoms: N_2  and  C_3
REMARK    3  A    between atoms: N_2  and  C_4
REMARK    4  A    between atoms: C_4  and  C_5
REMARK    5  A    between atoms: C_5  and  N_6
REMARK                            x       y       z     vdW  Elec       q    Type
REMARK                         _______ _______ _______ _____ _____    ______ ____
ROOT
ATOM      1  N   UNL     1      -5.108  12.876  19.364  0.00  0.00    +0.000 N 
ATOM      2  C   UNL     1      -4.909  13.531  20.561  0.00  0.00    +0.000 C 
ATOM      3  O   UNL     1      -5.779  14.194  21.121  0.00  0.00    +0.000 OA
ATOM      4  C   UNL     1      -3.565  13.208  20.902  0.00  0.00    +0.000 A 
ATOM      5  C   UNL     1      -3.032  12.333  19.904  0.00  0.00    +0.000 A 
ATOM      6  C   UNL     1      -1.696  11.863  20.053  0.00  0.00    +0.000 A 
ATOM      7  C   UNL     1      -0.979  10.997  19.224  0.00  0.00    +0.000 A 
ATOM      8  C   UNL     1      -1.161  10.255  18.040  0.00  0.00    +0.000 A 
ATOM      9  C   UNL     1      -0.113   9.471  17.535  0.00  0.00    +0.000 A 
ATOM     10  C   UNL     1       1.117   9.413  18.183  0.00  0.00    +0.000 A 
ATOM     11  C   UNL     1       1.337  10.132  19.357  0.00  0.00    +0.000 A 
ATOM     12  C   UNL     1       0.284  10.910  19.859  0.00  0.00    +0.000 A 
ATOM     13  N   UNL     1       0.257  11.705  20.997  0.00  0.00    +0.000 N 
ATOM     14  C   UNL     1      -0.967  12.288  21.118  0.00  0.00    +0.000 A 
ATOM     15  C   UNL     1      -1.478  13.145  22.062  0.00  0.00    +0.000 A 
ATOM     16  N   UNL     1      -0.942  13.706  23.181  0.00  0.00    +0.000 N 
ATOM     17  C   UNL     1      -1.888  14.522  23.793  0.00  0.00    +0.000 A 
ATOM     18  C   UNL     1      -1.771  15.290  24.959  0.00  0.00    +0.000 A 
ATOM     19  C   UNL     1      -2.880  16.034  25.369  0.00  0.00    +0.000 A 
ATOM     20  C   UNL     1      -4.060  16.016  24.637  0.00  0.00    +0.000 A 
ATOM     21  C   UNL     1      -4.168  15.248  23.472  0.00  0.00    +0.000 A 
ATOM     22  C   UNL     1      -3.074  14.479  23.030  0.00  0.00    +0.000 A 
ATOM     23  C   UNL     1      -2.749  13.611  21.988  0.00  0.00    +0.000 A 
ATOM     24  C   UNL     1      -4.038  12.130  18.903  0.00  0.00    +0.000 C 
ATOM     25  O   UNL     1      -4.054  11.468  17.864  0.00  0.00    +0.000 OA
ATOM     26  H   UNL     1       1.038  11.819  21.627  0.00  0.00    +0.000 HD
ATOM     27  H   UNL     1      -0.003  13.568  23.525  0.00  0.00    +0.000 HD
ENDROOT
BRANCH   1  28
ATOM     28  C   UNL     1      -6.360  13.028  18.636  0.00  0.00    +0.000 C 
BRANCH  28  29
ATOM     29  C   UNL     1      -7.485  12.105  19.178  0.00  0.00    +0.000 C 
BRANCH  29  31
ATOM     30  C   UNL     1      -7.868  10.800  21.173  0.00  0.00    +0.000 C 
ATOM     31  N   UNL     1      -6.998  10.983  20.009  0.00  0.00    +0.000 NA
ATOM     32  C   UNL     1      -6.961   9.736  19.234  0.00  0.00    +0.000 C 
ENDBRANCH  29  31
ENDBRANCH  28  29
ENDBRANCH   1  28
TORSDOF 3
ENDMDL
MODEL 6
REMARK VINA RESULT:      -6.7      1.703      6.800
REMARK  Name = 
REMARK  5 active torsions:
REMARK  status: ('A' for Active; 'I' for Inactive)
REMARK    1  A    between atoms: C_1  and  N_2
REMARK    2  A    between atoms: N_2  and  C_3
REMARK    3  A    between atoms: N_2  and  C_4
REMARK    4  A    between atoms: C_4  and  C_5
REMARK    5  A    between atoms: C_5  and  N_6
REMARK                            x       y       z     vdW  Elec       q    Type
REMARK                         _______ _______ _______ _____ _____    ______ ____
ROOT
ATOM      1  N   UNL     1       7.279  14.743  23.042  0.00  0.00    +0.000 N 
ATOM      2  C   UNL     1       8.260  14.092  22.325  0.00  0.00    +0.000 C 
ATOM      3  O   UNL     1       9.237  13.558  22.846  0.00  0.00    +0.000 OA
ATOM      4  C   UNL     1       7.818  14.200  20.976  0.00  0.00    +0.000 A 
ATOM      5  C   UNL     1       6.561  14.881  20.954  0.00  0.00    +0.000 A 
ATOM      6  C   UNL     1       5.918  15.085  19.700  0.00  0.00    +0.000 A 
ATOM      7  C   UNL     1       4.692  15.702  19.438  0.00  0.00    +0.000 A 
ATOM      8  C   UNL     1       3.633  16.313  20.138  0.00  0.00    +0.000 A 
ATOM      9  C   UNL     1       2.529  16.822  19.435  0.00  0.00    +0.000 A 
ATOM     10  C   UNL     1       2.461  16.738  18.048  0.00  0.00    +0.000 A 
ATOM     11  C   UNL     1       3.488  16.140  17.320  0.00  0.00    +0.000 A 
ATOM     12  C   UNL     1       4.586  15.629  18.028  0.00  0.00    +0.000 A 
ATOM     13  N   UNL     1       5.718  14.997  17.536  0.00  0.00    +0.000 N 
ATOM     14  C   UNL     1       6.537  14.657  18.568  0.00  0.00    +0.000 A 
ATOM     15  C   UNL     1       7.755  14.022  18.595  0.00  0.00    +0.000 A 
ATOM     16  N   UNL     1       8.555  13.528  17.610  0.00  0.00    +0.000 N 
ATOM     17  C   UNL     1       9.705  12.983  18.173  0.00  0.00    +0.000 A 
ATOM     18  C   UNL     1      10.795  12.371  17.540  0.00  0.00    +0.000 A 
ATOM     19  C   UNL     1      11.841  11.902  18.340  0.00  0.00    +0.000 A 
ATOM     20  C   UNL     1      11.800  12.044  19.720  0.00  0.00    +0.000 A 
ATOM     21  C   UNL     1      10.708  12.658  20.345  0.00  0.00    +0.000 A 
ATOM     22  C   UNL     1       9.632  13.138  19.574  0.00  0.00    +0.000 A 
ATOM     23  C   UNL     1       8.407  13.778  19.758  0.00  0.00    +0.000 A 
ATOM     24  C   UNL     1       6.222  15.239  22.300  0.00  0.00    +0.000 C 
ATOM     25  O   UNL     1       5.254  15.826  22.785  0.00  0.00    +0.000 OA
ATOM     26  H   UNL     1       5.890  14.823  16.556  0.00  0.00    +0.000 HD
ATOM     27  H   UNL     1       8.365  13.551  16.619  0.00  0.00    +0.000 HD
ENDROOT
BRANCH   1  28
ATOM     28  C   UNL     1       7.410  14.922  24.481  0.00  0.00    +0.000 C 
BRANCH  28  29
ATOM     29  C   UNL     1       6.582  13.889  25.293  0.00  0.00    +0.000 C 
BRANCH  29  31
ATOM     30  C   UNL     1       7.166  12.173  26.888  0.00  0.00    +0.000 C 
ATOM     31  N   UNL     1       7.259  12.590  25.486  0.00  0.00    +0.000 NA
ATOM     32  C   UNL     1       6.659  11.555  24.634  0.00  0.00    +0.000 C 
ENDBRANCH  29  31
ENDBRANCH  28  29
ENDBRANCH   1  28
TORSDOF 3
ENDMDL
MODEL 7
REMARK VINA RESULT:      -6.7      7.603     10.745
REMARK  Name = 
REMARK  5 active torsions:
REMARK  status: ('A' for Active; 'I' for Inactive)
REMARK    1  A    between atoms: C_1  and  N_2
REMARK    2  A    between atoms: N_2  and  C_3
REMARK    3  A    between atoms: N_2  and  C_4
REMARK    4  A    between atoms: C_4  and  C_5
REMARK    5  A    between atoms: C_5  and  N_6
REMARK                            x       y       z     vdW  Elec       q    Type
REMARK                         _______ _______ _______ _____ _____    ______ ____
ROOT
ATOM      1  N   UNL     1      -2.475  14.087  23.241  0.00  0.00    +0.000 N 
ATOM      2  C   UNL     1      -3.506  13.586  22.475  0.00  0.00    +0.000 C 
ATOM      3  O   UNL     1      -4.668  13.516  22.869  0.00  0.00    +0.000 OA
ATOM      4  C   UNL     1      -2.878  13.251  21.242  0.00  0.00    +0.000 A 
ATOM      5  C   UNL     1      -1.495  13.609  21.315  0.00  0.00    +0.000 A 
ATOM      6  C   UNL     1      -0.670  13.379  20.178  0.00  0.00    +0.000 A 
ATOM      7  C   UNL     1       0.688  13.662  20.014  0.00  0.00    +0.000 A 
ATOM      8  C   UNL     1       1.755  14.233  20.735  0.00  0.00    +0.000 A 
ATOM      9  C   UNL     1       3.027  14.327  20.149  0.00  0.00    +0.000 A 
ATOM     10  C   UNL     1       3.260  13.860  18.859  0.00  0.00    +0.000 A 
ATOM     11  C   UNL     1       2.230  13.290  18.112  0.00  0.00    +0.000 A 
ATOM     12  C   UNL     1       0.960  13.203  18.702  0.00  0.00    +0.000 A 
ATOM     13  N   UNL     1      -0.211  12.684  18.168  0.00  0.00    +0.000 N 
ATOM     14  C   UNL     1      -1.217  12.798  19.078  0.00  0.00    +0.000 A 
ATOM     15  C   UNL     1      -2.541  12.436  19.022  0.00  0.00    +0.000 A 
ATOM     16  N   UNL     1      -3.291  11.840  18.054  0.00  0.00    +0.000 N 
ATOM     17  C   UNL     1      -4.598  11.682  18.507  0.00  0.00    +0.000 A 
ATOM     18  C   UNL     1      -5.700  11.120  17.849  0.00  0.00    +0.000 A 
ATOM     19  C   UNL     1      -6.919  11.077  18.531  0.00  0.00    +0.000 A 
ATOM     20  C   UNL     1      -7.031  11.574  19.822  0.00  0.00    +0.000 A 
ATOM     21  C   UNL     1      -5.925  12.132  20.473  0.00  0.00    +0.000 A 
ATOM     22  C   UNL     1      -4.680  12.199  19.818  0.00  0.00    +0.000 A 
ATOM     23  C   UNL     1      -3.384  12.648  20.063  0.00  0.00    +0.000 A 
ATOM     24  C   UNL     1      -1.240  14.143  22.621  0.00  0.00    +0.000 C 
ATOM     25  O   UNL     1      -0.219  14.583  23.153  0.00  0.00    +0.000 OA
ATOM     26  H   UNL     1      -0.286  12.287  17.243  0.00  0.00    +0.000 HD
ATOM     27  H   UNL     1      -2.966  11.544  17.146  0.00  0.00    +0.000 HD
ENDROOT
BRANCH   1  28
ATOM     28  C   UNL     1      -2.702  14.473  24.626  0.00  0.00    +0.000 C 
BRANCH  28  29
ATOM     29  C   UNL     1      -3.072  15.974  24.778  0.00  0.00    +0.000 C 
BRANCH  29  31
ATOM     30  C   UNL     1      -1.181  15.868  26.277  0.00  0.00    +0.000 C 
ATOM     31  N   UNL     1      -2.090  16.761  25.554  0.00  0.00    +0.000 NA
ATOM     32  C   UNL     1      -1.306  17.635  24.671  0.00  0.00    +0.000 C 
ENDBRANCH  29  31
ENDBRANCH  28  29
ENDBRANCH   1  28
TORSDOF 3
ENDMDL
MODEL 8
REMARK VINA RESULT:      -6.6      7.624     11.400
REMARK  Name = 
REMARK  5 active torsions:
REMARK  status: ('A' for Active; 'I' for Inactive)
REMARK    1  A    between atoms: C_1  and  N_2
REMARK    2  A    between atoms: N_2  and  C_3
REMARK    3  A    between atoms: N_2  and  C_4
REMARK    4  A    between atoms: C_4  and  C_5
REMARK    5  A    between atoms: C_5  and  N_6
REMARK                            x       y       z     vdW  Elec       q    Type
REMARK                         _______ _______ _______ _____ _____    ______ ____
ROOT
ATOM      1  N   UNL     1      -2.508  14.012  23.315  0.00  0.00    +0.000 N 
ATOM      2  C   UNL     1      -1.278  14.030  22.692  0.00  0.00    +0.000 C 
ATOM      3  O   UNL     1      -0.247  14.411  23.243  0.00  0.00    +0.000 OA
ATOM      4  C   UNL     1      -1.549  13.509  21.396  0.00  0.00    +0.000 A 
ATOM      5  C   UNL     1      -2.934  13.162  21.317  0.00  0.00    +0.000 A 
ATOM      6  C   UNL     1      -3.428  12.599  20.106  0.00  0.00    +0.000 A 
ATOM      7  C   UNL     1      -4.725  12.172  19.808  0.00  0.00    +0.000 A 
ATOM      8  C   UNL     1      -5.985  12.069  20.430  0.00  0.00    +0.000 A 
ATOM      9  C   UNL     1      -7.077  11.546  19.719  0.00  0.00    +0.000 A 
ATOM     10  C   UNL     1      -6.940  11.125  18.400  0.00  0.00    +0.000 A 
ATOM     11  C   UNL     1      -5.709  11.209  17.750  0.00  0.00    +0.000 A 
ATOM     12  C   UNL     1      -4.621  11.729  18.467  0.00  0.00    +0.000 A 
ATOM     13  N   UNL     1      -3.312  11.912  18.046  0.00  0.00    +0.000 N 
ATOM     14  C   UNL     1      -2.576  12.443  19.059  0.00  0.00    +0.000 A 
ATOM     15  C   UNL     1      -1.251  12.799  19.134  0.00  0.00    +0.000 A 
ATOM     16  N   UNL     1      -0.234  12.750  18.230  0.00  0.00    +0.000 N 
ATOM     17  C   UNL     1       0.930  13.247  18.810  0.00  0.00    +0.000 A 
ATOM     18  C   UNL     1       2.207  13.384  18.251  0.00  0.00    +0.000 A 
ATOM     19  C   UNL     1       3.220  13.920  19.050  0.00  0.00    +0.000 A 
ATOM     20  C   UNL     1       2.964  14.309  20.359  0.00  0.00    +0.000 A 
ATOM     21  C   UNL     1       1.685  14.170  20.909  0.00  0.00    +0.000 A 
ATOM     22  C   UNL     1       0.639  13.628  20.137  0.00  0.00    +0.000 A 
ATOM     23  C   UNL     1      -0.715  13.319  20.265  0.00  0.00    +0.000 A 
ATOM     24  C   UNL     1      -3.552  13.501  22.566  0.00  0.00    +0.000 C 
ATOM     25  O   UNL     1      -4.708  13.392  22.977  0.00  0.00    +0.000 OA
ATOM     26  H   UNL     1      -2.975  11.678  17.123  0.00  0.00    +0.000 HD
ATOM     27  H   UNL     1      -0.296  12.415  17.280  0.00  0.00    +0.000 HD
ENDROOT
BRANCH   1  28
ATOM     28  C   UNL     1      -2.665  14.554  24.657  0.00  0.00    +0.000 C 
BRANCH  28  29
ATOM     29  C   UNL     1      -3.000  16.071  24.656  0.00  0.00    +0.000 C 
BRANCH  29  31
ATOM     30  C   UNL     1      -1.191  16.061  26.255  0.00  0.00    +0.000 C 
ATOM     31  N   UNL     1      -2.031  16.903  25.399  0.00  0.00    +0.000 NA
ATOM     32  C   UNL     1      -1.174  17.658  24.476  0.00  0.00    +0.000 C 
ENDBRANCH  29  31
ENDBRANCH  28  29
ENDBRANCH   1  28
TORSDOF 3
ENDMDL
MODEL 9
REMARK VINA RESULT:      -6.5      1.839      6.794
REMARK  Name = 
REMARK  5 active torsions:
REMARK  status: ('A' for Active; 'I' for Inactive)
REMARK    1  A    between atoms: C_1  and  N_2
REMARK    2  A    between atoms: N_2  and  C_3
REMARK    3  A    between atoms: N_2  and  C_4
REMARK    4  A    between atoms: C_4  and  C_5
REMARK    5  A    between atoms: C_5  and  N_6
REMARK                            x       y       z     vdW  Elec       q    Type
REMARK                         _______ _______ _______ _____ _____    ______ ____
ROOT
ATOM      1  N   UNL     1       7.118  14.468  23.109  0.00  0.00    +0.000 N 
ATOM      2  C   UNL     1       8.131  13.906  22.360  0.00  0.00    +0.000 C 
ATOM      3  O   UNL     1       9.108  13.349  22.855  0.00  0.00    +0.000 OA
ATOM      4  C   UNL     1       7.717  14.126  21.016  0.00  0.00    +0.000 A 
ATOM      5  C   UNL     1       6.444  14.778  21.024  0.00  0.00    +0.000 A 
ATOM      6  C   UNL     1       5.825  15.081  19.778  0.00  0.00    +0.000 A 
ATOM      7  C   UNL     1       4.591  15.691  19.543  0.00  0.00    +0.000 A 
ATOM      8  C   UNL     1       3.501  16.212  20.268  0.00  0.00    +0.000 A 
ATOM      9  C   UNL     1       2.402  16.759  19.587  0.00  0.00    +0.000 A 
ATOM     10  C   UNL     1       2.367  16.799  18.196  0.00  0.00    +0.000 A 
ATOM     11  C   UNL     1       3.425  16.292  17.443  0.00  0.00    +0.000 A 
ATOM     12  C   UNL     1       4.518  15.744  18.129  0.00  0.00    +0.000 A 
ATOM     13  N   UNL     1       5.677  15.183  17.610  0.00  0.00    +0.000 N 
ATOM     14  C   UNL     1       6.480  14.770  18.628  0.00  0.00    +0.000 A 
ATOM     15  C   UNL     1       7.712  14.163  18.627  0.00  0.00    +0.000 A 
ATOM     16  N   UNL     1       8.546  13.778  17.622  0.00  0.00    +0.000 N 
ATOM     17  C   UNL     1       9.696  13.210  18.163  0.00  0.00    +0.000 A 
ATOM     18  C   UNL     1      10.815  12.682  17.504  0.00  0.00    +0.000 A 
ATOM     19  C   UNL     1      11.853  12.166  18.284  0.00  0.00    +0.000 A 
ATOM     20  C   UNL     1      11.778  12.181  19.670  0.00  0.00    +0.000 A 
ATOM     21  C   UNL     1      10.658  12.712  20.320  0.00  0.00    +0.000 A 
ATOM     22  C   UNL     1       9.588  13.236  19.569  0.00  0.00    +0.000 A 
ATOM     23  C   UNL     1       8.344  13.829  19.780  0.00  0.00    +0.000 A 
ATOM     24  C   UNL     1       6.067  15.006  22.388  0.00  0.00    +0.000 C 
ATOM     25  O   UNL     1       5.074  15.525  22.899  0.00  0.00    +0.000 OA
ATOM     26  H   UNL     1       5.875  15.103  16.623  0.00  0.00    +0.000 HD
ATOM     27  H   UNL     1       8.378  13.886  16.633  0.00  0.00    +0.000 HD
ENDROOT
BRANCH   1  28
ATOM     28  C   UNL     1       7.213  14.519  24.561  0.00  0.00    +0.000 C 
BRANCH  28  29
ATOM     29  C   UNL     1       6.443  13.362  25.253  0.00  0.00    +0.000 C 
BRANCH  29  31
ATOM     30  C   UNL     1       5.018  12.941  27.156  0.00  0.00    +0.000 C 
ATOM     31  N   UNL     1       5.233  13.794  25.985  0.00  0.00    +0.000 NA
ATOM     32  C   UNL     1       5.357  15.190  26.422  0.00  0.00    +0.000 C 
ENDBRANCH  29  31
ENDBRANCH  28  29
ENDBRANCH   1  28
TORSDOF 3
ENDMDL
