MODEL 1
REMARK VINA RESULT:      -7.5      0.000      0.000
REMARK  Name = 
REMARK  3 active torsions:
REMARK  status: ('A' for Active; 'I' for Inactive)
REMARK    1  A    between atoms: C_6  and  C_7
REMARK    2  A    between atoms: N_9  and  C_10
REMARK    3  A    between atoms: C_10  and  C_11
REMARK                            x       y       z     vdW  Elec       q    Type
REMARK                         _______ _______ _______ _____ _____    ______ ____
ROOT
ATOM      1  C   UNL     1       3.246   6.360  18.120  0.00  0.00    +0.000 A 
ATOM      2  C   UNL     1       4.585   6.290  17.786  0.00  0.00    +0.000 A 
ATOM      3  N   UNL     1       4.881   4.988  17.485  0.00  0.00    +0.000 N 
ATOM      4  C   UNL     1       3.767   4.194  17.706  0.00  0.00    +0.000 A 
ATOM      5  C   UNL     1       3.584   2.813  17.521  0.00  0.00    +0.000 A 
ATOM      6  C   UNL     1       2.359   2.252  17.885  0.00  0.00    +0.000 A 
ATOM      7  C   UNL     1       1.368   3.034  18.462  0.00  0.00    +0.000 A 
ATOM      8  C   UNL     1       1.559   4.410  18.635  0.00  0.00    +0.000 A 
ATOM      9  C   UNL     1       2.753   5.025  18.197  0.00  0.00    +0.000 A 
ENDROOT
BRANCH   1  15
ATOM     10 CL   UNL     1       1.457   7.410  20.889  0.00  0.00    +0.000 Cl
ATOM     11  C   UNL     1       1.855   8.158  19.410  0.00  0.00    +0.000 A 
ATOM     12  N   UNL     1       1.336   9.400  19.117  0.00  0.00    +0.000 NA
ATOM     13  C   UNL     1       1.682   9.595  17.871  0.00  0.00    +0.000 A 
ATOM     14  O   UNL     1       2.403   8.594  17.308  0.00  0.00    +0.000 OA
ATOM     15  C   UNL     1       2.552   7.665  18.316  0.00  0.00    +0.000 A 
ENDBRANCH   1  15
BRANCH   3  16
ATOM     16  C   UNL     1       6.164   4.435  17.042  0.00  0.00    +0.000 C 
BRANCH  16  17
ATOM     17  C   UNL     1       6.246   3.944  15.628  0.00  0.00    +0.000 C 
ATOM     18  C   UNL     1       5.503   4.578  14.478  0.00  0.00    +0.000 C 
ATOM     19  C   UNL     1       6.978   4.808  14.626  0.00  0.00    +0.000 C 
ENDBRANCH  16  17
ENDBRANCH   3  16
TORSDOF 3
ENDMDL
MODEL 2
REMARK VINA RESULT:      -7.5      2.410      5.216
REMARK  Name = 
REMARK  3 active torsions:
REMARK  status: ('A' for Active; 'I' for Inactive)
REMARK    1  A    between atoms: C_6  and  C_7
REMARK    2  A    between atoms: N_9  and  C_10
REMARK    3  A    between atoms: C_10  and  C_11
REMARK                            x       y       z     vdW  Elec       q    Type
REMARK                         _______ _______ _______ _____ _____    ______ ____
ROOT
ATOM      1  C   UNL     1       4.301   5.385  17.042  0.00  0.00    +0.000 A 
ATOM      2  C   UNL     1       3.930   6.620  17.538  0.00  0.00    +0.000 A 
ATOM      3  N   UNL     1       2.916   6.428  18.438  0.00  0.00    +0.000 N 
ATOM      4  C   UNL     1       2.564   5.089  18.466  0.00  0.00    +0.000 A 
ATOM      5  C   UNL     1       1.602   4.417  19.239  0.00  0.00    +0.000 A 
ATOM      6  C   UNL     1       1.409   3.053  19.020  0.00  0.00    +0.000 A 
ATOM      7  C   UNL     1       2.119   2.390  18.027  0.00  0.00    +0.000 A 
ATOM      8  C   UNL     1       3.080   3.068  17.269  0.00  0.00    +0.000 A 
ATOM      9  C   UNL     1       3.362   4.428  17.524  0.00  0.00    +0.000 A 
ENDROOT
BRANCH   1  15
ATOM     10 CL   UNL     1       7.449   6.738  17.521  0.00  0.00    +0.000 Cl
ATOM     11  C   UNL     1       6.800   5.696  16.340  0.00  0.00    +0.000 A 
ATOM     12  N   UNL     1       7.574   5.327  15.261  0.00  0.00    +0.000 NA
ATOM     13  C   UNL     1       6.738   4.693  14.482  0.00  0.00    +0.000 A 
ATOM     14  O   UNL     1       5.471   4.592  14.952  0.00  0.00    +0.000 OA
ATOM     15  C   UNL     1       5.508   5.214  16.183  0.00  0.00    +0.000 A 
ENDBRANCH   1  15
BRANCH   3  16
ATOM     16  C   UNL     1       2.226   7.439  19.245  0.00  0.00    +0.000 C 
BRANCH  16  17
ATOM     17  C   UNL     1       2.138   8.824  18.679  0.00  0.00    +0.000 C 
ATOM     18  C   UNL     1       1.003   9.298  17.805  0.00  0.00    +0.000 C 
ATOM     19  C   UNL     1       1.073   9.743  19.236  0.00  0.00    +0.000 C 
ENDBRANCH  16  17
ENDBRANCH   3  16
TORSDOF 3
ENDMDL
MODEL 3
REMARK VINA RESULT:      -7.3      2.682      5.674
REMARK  Name = 
REMARK  3 active torsions:
REMARK  status: ('A' for Active; 'I' for Inactive)
REMARK    1  A    between atoms: C_6  and  C_7
REMARK    2  A    between atoms: N_9  and  C_10
REMARK    3  A    between atoms: C_10  and  C_11
REMARK                            x       y       z     vdW  Elec       q    Type
REMARK                         _______ _______ _______ _____ _____    ______ ____
ROOT
ATOM      1  C   UNL     1       4.471   5.765  17.972  0.00  0.00    +0.000 A 
ATOM      2  C   UNL     1       4.266   4.936  19.058  0.00  0.00    +0.000 A 
ATOM      3  N   UNL     1       3.193   5.415  19.761  0.00  0.00    +0.000 N 
ATOM      4  C   UNL     1       2.753   6.598  19.192  0.00  0.00    +0.000 A 
ATOM      5  C   UNL     1       1.682   7.436  19.547  0.00  0.00    +0.000 A 
ATOM      6  C   UNL     1       1.497   8.617  18.829  0.00  0.00    +0.000 A 
ATOM      7  C   UNL     1       2.381   8.977  17.820  0.00  0.00    +0.000 A 
ATOM      8  C   UNL     1       3.440   8.131  17.470  0.00  0.00    +0.000 A 
ATOM      9  C   UNL     1       3.604   6.887  18.118  0.00  0.00    +0.000 A 
ENDROOT
BRANCH   1  15
ATOM     10 CL   UNL     1       7.564   7.196  17.373  0.00  0.00    +0.000 Cl
ATOM     11  C   UNL     1       6.706   5.928  16.624  0.00  0.00    +0.000 A 
ATOM     12  N   UNL     1       7.215   5.343  15.486  0.00  0.00    +0.000 NA
ATOM     13  C   UNL     1       6.251   4.558  15.082  0.00  0.00    +0.000 A 
ATOM     14  O   UNL     1       5.142   4.555  15.862  0.00  0.00    +0.000 OA
ATOM     15  C   UNL     1       5.441   5.421  16.893  0.00  0.00    +0.000 A 
ENDBRANCH   1  15
BRANCH   3  16
ATOM     16  C   UNL     1       2.580   4.847  20.965  0.00  0.00    +0.000 C 
BRANCH  16  17
ATOM     17  C   UNL     1       1.349   4.012  20.780  0.00  0.00    +0.000 C 
ATOM     18  C   UNL     1       1.308   2.761  19.936  0.00  0.00    +0.000 C 
ATOM     19  C   UNL     1       1.321   2.648  21.433  0.00  0.00    +0.000 C 
ENDBRANCH  16  17
ENDBRANCH   3  16
TORSDOF 3
ENDMDL
MODEL 4
REMARK VINA RESULT:      -7.3      2.790      5.695
REMARK  Name = 
REMARK  3 active torsions:
REMARK  status: ('A' for Active; 'I' for Inactive)
REMARK    1  A    between atoms: C_6  and  C_7
REMARK    2  A    between atoms: N_9  and  C_10
REMARK    3  A    between atoms: C_10  and  C_11
REMARK                            x       y       z     vdW  Elec       q    Type
REMARK                         _______ _______ _______ _____ _____    ______ ____
ROOT
ATOM      1  C   UNL     1       4.609   4.763  16.973  0.00  0.00    +0.000 A 
ATOM      2  C   UNL     1       4.157   3.600  17.568  0.00  0.00    +0.000 A 
ATOM      3  N   UNL     1       3.041   3.904  18.301  0.00  0.00    +0.000 N 
ATOM      4  C   UNL     1       2.814   5.270  18.260  0.00  0.00    +0.000 A 
ATOM      5  C   UNL     1       1.790   6.039  18.837  0.00  0.00    +0.000 A 
ATOM      6  C   UNL     1       1.836   7.425  18.687  0.00  0.00    +0.000 A 
ATOM      7  C   UNL     1       2.896   8.029  18.024  0.00  0.00    +0.000 A 
ATOM      8  C   UNL     1       3.907   7.252  17.448  0.00  0.00    +0.000 A 
ATOM      9  C   UNL     1       3.846   5.842  17.506  0.00  0.00    +0.000 A 
ENDROOT
BRANCH   1  15
ATOM     10 CL   UNL     1       7.540   6.602  16.982  0.00  0.00    +0.000 Cl
ATOM     11  C   UNL     1       6.905   5.433  15.917  0.00  0.00    +0.000 A 
ATOM     12  N   UNL     1       7.569   5.151  14.743  0.00  0.00    +0.000 NA
ATOM     13  C   UNL     1       6.743   4.370  14.099  0.00  0.00    +0.000 A 
ATOM     14  O   UNL     1       5.586   4.091  14.747  0.00  0.00    +0.000 OA
ATOM     15  C   UNL     1       5.695   4.752  15.952  0.00  0.00    +0.000 A 
ENDBRANCH   1  15
BRANCH   3  16
ATOM     16  C   UNL     1       2.197   2.990  19.075  0.00  0.00    +0.000 C 
BRANCH  16  17
ATOM     17  C   UNL     1       2.556   2.779  20.515  0.00  0.00    +0.000 C 
ATOM     18  C   UNL     1       2.302   3.800  21.597  0.00  0.00    +0.000 C 
ATOM     19  C   UNL     1       1.424   2.586  21.499  0.00  0.00    +0.000 C 
ENDBRANCH  16  17
ENDBRANCH   3  16
TORSDOF 3
ENDMDL
MODEL 5
REMARK VINA RESULT:      -7.3      2.506      5.333
REMARK  Name = 
REMARK  3 active torsions:
REMARK  status: ('A' for Active; 'I' for Inactive)
REMARK    1  A    between atoms: C_6  and  C_7
REMARK    2  A    between atoms: N_9  and  C_10
REMARK    3  A    between atoms: C_10  and  C_11
REMARK                            x       y       z     vdW  Elec       q    Type
REMARK                         _______ _______ _______ _____ _____    ______ ____
ROOT
ATOM      1  C   UNL     1       4.264   5.372  17.726  0.00  0.00    +0.000 A 
ATOM      2  C   UNL     1       3.802   6.675  17.730  0.00  0.00    +0.000 A 
ATOM      3  N   UNL     1       2.867   6.791  18.724  0.00  0.00    +0.000 N 
ATOM      4  C   UNL     1       2.653   5.554  19.309  0.00  0.00    +0.000 A 
ATOM      5  C   UNL     1       1.810   5.184  20.371  0.00  0.00    +0.000 A 
ATOM      6  C   UNL     1       1.742   3.836  20.725  0.00  0.00    +0.000 A 
ATOM      7  C   UNL     1       2.453   2.881  20.011  0.00  0.00    +0.000 A 
ATOM      8  C   UNL     1       3.295   3.262  18.960  0.00  0.00    +0.000 A 
ATOM      9  C   UNL     1       3.455   4.627  18.632  0.00  0.00    +0.000 A 
ENDROOT
BRANCH   1  15
ATOM     10 CL   UNL     1       7.477   6.654  17.784  0.00  0.00    +0.000 Cl
ATOM     11  C   UNL     1       6.743   5.400  16.895  0.00  0.00    +0.000 A 
ATOM     12  N   UNL     1       7.458   4.758  15.908  0.00  0.00    +0.000 NA
ATOM     13  C   UNL     1       6.569   4.001  15.322  0.00  0.00    +0.000 A 
ATOM     14  O   UNL     1       5.318   4.069  15.841  0.00  0.00    +0.000 OA
ATOM     15  C   UNL     1       5.427   4.955  16.893  0.00  0.00    +0.000 A 
ENDBRANCH   1  15
BRANCH   3  16
ATOM     16  C   UNL     1       2.130   7.991  19.130  0.00  0.00    +0.000 C 
BRANCH  16  17
ATOM     17  C   UNL     1       1.614   8.880  18.039  0.00  0.00    +0.000 C 
ATOM     18  C   UNL     1       0.426   9.797  18.201  0.00  0.00    +0.000 C 
ATOM     19  C   UNL     1       1.812  10.370  18.196  0.00  0.00    +0.000 C 
ENDBRANCH  16  17
ENDBRANCH   3  16
TORSDOF 3
ENDMDL
MODEL 6
REMARK VINA RESULT:      -7.3      3.422      4.597
REMARK  Name = 
REMARK  3 active torsions:
REMARK  status: ('A' for Active; 'I' for Inactive)
REMARK    1  A    between atoms: C_6  and  C_7
REMARK    2  A    between atoms: N_9  and  C_10
REMARK    3  A    between atoms: C_10  and  C_11
REMARK                            x       y       z     vdW  Elec       q    Type
REMARK                         _______ _______ _______ _____ _____    ______ ____
ROOT
ATOM      1  C   UNL     1       4.116   3.971  17.501  0.00  0.00    +0.000 A 
ATOM      2  C   UNL     1       4.201   4.006  16.122  0.00  0.00    +0.000 A 
ATOM      3  N   UNL     1       5.425   4.518  15.785  0.00  0.00    +0.000 N 
ATOM      4  C   UNL     1       6.103   4.898  16.931  0.00  0.00    +0.000 A 
ATOM      5  C   UNL     1       7.386   5.450  17.089  0.00  0.00    +0.000 A 
ATOM      6  C   UNL     1       7.804   5.801  18.372  0.00  0.00    +0.000 A 
ATOM      7  C   UNL     1       6.951   5.653  19.458  0.00  0.00    +0.000 A 
ATOM      8  C   UNL     1       5.679   5.096  19.291  0.00  0.00    +0.000 A 
ATOM      9  C   UNL     1       5.257   4.649  18.019  0.00  0.00    +0.000 A 
ENDROOT
BRANCH   1  15
ATOM     10 CL   UNL     1       4.255   2.081  20.395  0.00  0.00    +0.000 Cl
ATOM     11  C   UNL     1       2.973   2.555  19.378  0.00  0.00    +0.000 A 
ATOM     12  N   UNL     1       1.705   2.070  19.613  0.00  0.00    +0.000 NA
ATOM     13  C   UNL     1       1.021   2.474  18.575  0.00  0.00    +0.000 A 
ATOM     14  O   UNL     1       1.719   3.202  17.669  0.00  0.00    +0.000 OA
ATOM     15  C   UNL     1       2.989   3.291  18.201  0.00  0.00    +0.000 A 
ENDBRANCH   1  15
BRANCH   3  16
ATOM     16  C   UNL     1       5.982   4.710  14.442  0.00  0.00    +0.000 C 
BRANCH  16  17
ATOM     17  C   UNL     1       5.980   3.527  13.524  0.00  0.00    +0.000 C 
ATOM     18  C   UNL     1       5.172   3.458  12.251  0.00  0.00    +0.000 C 
ATOM     19  C   UNL     1       6.654   3.681  12.179  0.00  0.00    +0.000 C 
ENDBRANCH  16  17
ENDBRANCH   3  16
TORSDOF 3
ENDMDL
MODEL 7
REMARK VINA RESULT:      -7.3      2.753      5.497
REMARK  Name = 
REMARK  3 active torsions:
REMARK  status: ('A' for Active; 'I' for Inactive)
REMARK    1  A    between atoms: C_6  and  C_7
REMARK    2  A    between atoms: N_9  and  C_10
REMARK    3  A    between atoms: C_10  and  C_11
REMARK                            x       y       z     vdW  Elec       q    Type
REMARK                         _______ _______ _______ _____ _____    ______ ____
ROOT
ATOM      1  C   UNL     1       4.130   5.107  18.568  0.00  0.00    +0.000 A 
ATOM      2  C   UNL     1       3.616   6.181  19.270  0.00  0.00    +0.000 A 
ATOM      3  N   UNL     1       2.421   5.797  19.818  0.00  0.00    +0.000 N 
ATOM      4  C   UNL     1       2.111   4.512  19.405  0.00  0.00    +0.000 A 
ATOM      5  C   UNL     1       1.010   3.697  19.719  0.00  0.00    +0.000 A 
ATOM      6  C   UNL     1       0.914   2.446  19.108  0.00  0.00    +0.000 A 
ATOM      7  C   UNL     1       1.859   2.043  18.174  0.00  0.00    +0.000 A 
ATOM      8  C   UNL     1       2.955   2.859  17.874  0.00  0.00    +0.000 A 
ATOM      9  C   UNL     1       3.129   4.093  18.540  0.00  0.00    +0.000 A 
ENDROOT
BRANCH   1  15
ATOM     10 CL   UNL     1       5.180   6.471  15.566  0.00  0.00    +0.000 Cl
ATOM     11  C   UNL     1       6.001   5.685  16.835  0.00  0.00    +0.000 A 
ATOM     12  N   UNL     1       7.343   5.404  16.704  0.00  0.00    +0.000 NA
ATOM     13  C   UNL     1       7.608   4.660  17.745  0.00  0.00    +0.000 A 
ATOM     14  O   UNL     1       6.560   4.430  18.573  0.00  0.00    +0.000 OA
ATOM     15  C   UNL     1       5.511   5.124  18.007  0.00  0.00    +0.000 A 
ENDBRANCH   1  15
BRANCH   3  16
ATOM     16  C   UNL     1       1.530   6.584  20.675  0.00  0.00    +0.000 C 
BRANCH  16  17
ATOM     17  C   UNL     1       1.700   8.073  20.656  0.00  0.00    +0.000 C 
ATOM     18  C   UNL     1       0.549   9.045  20.568  0.00  0.00    +0.000 C 
ATOM     19  C   UNL     1       1.255   8.846  21.877  0.00  0.00    +0.000 C 
ENDBRANCH  16  17
ENDBRANCH   3  16
TORSDOF 3
ENDMDL
MODEL 8
REMARK VINA RESULT:      -7.2      0.888      1.446
REMARK  Name = 
REMARK  3 active torsions:
REMARK  status: ('A' for Active; 'I' for Inactive)
REMARK    1  A    between atoms: C_6  and  C_7
REMARK    2  A    between atoms: N_9  and  C_10
REMARK    3  A    between atoms: C_10  and  C_11
REMARK                            x       y       z     vdW  Elec       q    Type
REMARK                         _______ _______ _______ _____ _____    ______ ____
ROOT
ATOM      1  C   UNL     1       3.005   6.775  17.969  0.00  0.00    +0.000 A 
ATOM      2  C   UNL     1       4.264   6.792  17.399  0.00  0.00    +0.000 A 
ATOM      3  N   UNL     1       4.571   5.516  17.009  0.00  0.00    +0.000 N 
ATOM      4  C   UNL     1       3.560   4.653  17.400  0.00  0.00    +0.000 A 
ATOM      5  C   UNL     1       3.421   3.268  17.208  0.00  0.00    +0.000 A 
ATOM      6  C   UNL     1       2.315   2.628  17.766  0.00  0.00    +0.000 A 
ATOM      7  C   UNL     1       1.402   3.338  18.535  0.00  0.00    +0.000 A 
ATOM      8  C   UNL     1       1.546   4.718  18.714  0.00  0.00    +0.000 A 
ATOM      9  C   UNL     1       2.606   5.412  18.090  0.00  0.00    +0.000 A 
ENDROOT
BRANCH   1  15
ATOM     10 CL   UNL     1       1.405   7.526  20.943  0.00  0.00    +0.000 Cl
ATOM     11  C   UNL     1       1.662   8.407  19.508  0.00  0.00    +0.000 A 
ATOM     12  N   UNL     1       1.083   9.649  19.360  0.00  0.00    +0.000 NA
ATOM     13  C   UNL     1       1.325   9.958  18.114  0.00  0.00    +0.000 A 
ATOM     14  O   UNL     1       2.031   9.035  17.415  0.00  0.00    +0.000 OA
ATOM     15  C   UNL     1       2.288   8.032  18.326  0.00  0.00    +0.000 A 
ENDBRANCH   1  15
BRANCH   3  16
ATOM     16  C   UNL     1       5.782   5.050  16.327  0.00  0.00    +0.000 C 
BRANCH  16  17
ATOM     17  C   UNL     1       7.098   5.491  16.891  0.00  0.00    +0.000 C 
ATOM     18  C   UNL     1       7.340   5.728  18.362  0.00  0.00    +0.000 C 
ATOM     19  C   UNL     1       7.882   4.490  17.710  0.00  0.00    +0.000 C 
ENDBRANCH  16  17
ENDBRANCH   3  16
TORSDOF 3
ENDMDL
MODEL 9
REMARK VINA RESULT:      -7.2      2.796      5.438
REMARK  Name = 
REMARK  3 active torsions:
REMARK  status: ('A' for Active; 'I' for Inactive)
REMARK    1  A    between atoms: C_6  and  C_7
REMARK    2  A    between atoms: N_9  and  C_10
REMARK    3  A    between atoms: C_10  and  C_11
REMARK                            x       y       z     vdW  Elec       q    Type
REMARK                         _______ _______ _______ _____ _____    ______ ____
ROOT
ATOM      1  C   UNL     1       4.560   5.354  18.427  0.00  0.00    +0.000 A 
ATOM      2  C   UNL     1       4.014   6.613  18.265  0.00  0.00    +0.000 A 
ATOM      3  N   UNL     1       2.894   6.694  19.049  0.00  0.00    +0.000 N 
ATOM      4  C   UNL     1       2.657   5.469  19.651  0.00  0.00    +0.000 A 
ATOM      5  C   UNL     1       1.648   5.076  20.546  0.00  0.00    +0.000 A 
ATOM      6  C   UNL     1       1.607   3.743  20.957  0.00  0.00    +0.000 A 
ATOM      7  C   UNL     1       2.513   2.821  20.451  0.00  0.00    +0.000 A 
ATOM      8  C   UNL     1       3.518   3.225  19.566  0.00  0.00    +0.000 A 
ATOM      9  C   UNL     1       3.642   4.583  19.198  0.00  0.00    +0.000 A 
ENDROOT
BRANCH   1  15
ATOM     10 CL   UNL     1       5.329   4.567  15.147  0.00  0.00    +0.000 Cl
ATOM     11  C   UNL     1       6.272   4.711  16.558  0.00  0.00    +0.000 A 
ATOM     12  N   UNL     1       7.610   4.384  16.517  0.00  0.00    +0.000 NA
ATOM     13  C   UNL     1       7.979   4.432  17.770  0.00  0.00    +0.000 A 
ATOM     14  O   UNL     1       7.006   4.779  18.648  0.00  0.00    +0.000 OA
ATOM     15  C   UNL     1       5.893   4.998  17.863  0.00  0.00    +0.000 A 
ENDBRANCH   1  15
BRANCH   3  16
ATOM     16  C   UNL     1       2.006   7.845  19.233  0.00  0.00    +0.000 C 
BRANCH  16  17
ATOM     17  C   UNL     1       1.630   8.623  18.009  0.00  0.00    +0.000 C 
ATOM     18  C   UNL     1       0.543   9.671  17.986  0.00  0.00    +0.000 C 
ATOM     19  C   UNL     1       1.983  10.093  17.976  0.00  0.00    +0.000 C 
ENDBRANCH  16  17
ENDBRANCH   3  16
TORSDOF 3
ENDMDL
