MODEL 1
REMARK VINA RESULT:      -7.6      0.000      0.000
REMARK  Name = 
REMARK  12 active torsions:
REMARK  status: ('A' for Active; 'I' for Inactive)
REMARK    1  A    between atoms: C_1  and  S_2
REMARK    2  A    between atoms: S_2  and  C_5
REMARK    3  A    between atoms: C_8  and  C_9
REMARK    4  A    between atoms: C_11  and  C_12
REMARK    5  A    between atoms: C_12  and  C_13
REMARK    6  A    between atoms: C_13  and  C_14
REMARK    7  A    between atoms: C_14  and  C_15
REMARK    8  A    between atoms: C_15  and  O_16
REMARK    9  A    between atoms: O_16  and  N_17
REMARK   10  A    between atoms: N_20  and  O_21
REMARK   11  A    between atoms: N_23  and  C_24
REMARK   12  A    between atoms: C_27  and  C_28
REMARK                            x       y       z     vdW  Elec       q    Type
REMARK                         _______ _______ _______ _____ _____    ______ ____
ROOT
ATOM      1  C   UNL     1       3.809   6.417  17.590  0.00  0.00    +0.000 A 
ATOM      2  C   UNL     1       4.608   6.573  16.469  0.00  0.00    +0.000 A 
ATOM      3  C   UNL     1       5.368   5.385  16.323  0.00  0.00    +0.000 A 
ATOM      4  N   UNL     1       5.046   4.514  17.295  0.00  0.00    +0.000 NA
ATOM      5  N   UNL     1       4.015   5.090  17.974  0.00  0.00    +0.000 N 
ENDROOT
BRANCH   1   9
ATOM      6  C   UNL     1       1.197   9.235  19.486  0.00  0.00    +0.000 A 
ATOM      7  C   UNL     1       1.664   9.485  18.195  0.00  0.00    +0.000 A 
ATOM      8  C   UNL     1       2.529   8.569  17.585  0.00  0.00    +0.000 A 
ATOM      9  C   UNL     1       2.962   7.420  18.267  0.00  0.00    +0.000 A 
ATOM     10  C   UNL     1       2.574   7.268  19.609  0.00  0.00    +0.000 A 
ATOM     11  C   UNL     1       1.663   8.139  20.207  0.00  0.00    +0.000 A 
BRANCH   6  13
ATOM     12  C   UNL     1      -1.260  10.408  18.988  0.00  0.00    +0.000 C 
ATOM     13  S   UNL     1       0.003  10.317  20.231  0.00  0.00    +0.000 S 
ATOM     14  O   UNL     1       0.618  11.625  20.354  0.00  0.00    +0.000 OA
ATOM     15  O   UNL     1      -0.546   9.637  21.385  0.00  0.00    +0.000 OA
ENDBRANCH   6  13
ENDBRANCH   1   9
BRANCH   5  16
ATOM     16  C   UNL     1       3.299   4.315  18.936  0.00  0.00    +0.000 A 
ATOM     17  C   UNL     1       4.006   3.647  19.944  0.00  0.00    +0.000 A 
ATOM     18  C   UNL     1       3.310   2.992  20.968  0.00  0.00    +0.000 A 
ATOM     19  C   UNL     1       1.910   2.975  20.974  0.00  0.00    +0.000 A 
ATOM     20  C   UNL     1       1.206   3.599  19.940  0.00  0.00    +0.000 A 
ATOM     21  C   UNL     1       1.897   4.252  18.914  0.00  0.00    +0.000 A 
BRANCH  19  22
ATOM     22  C   UNL     1       1.198   2.320  22.035  0.00  0.00    +0.000 C 
ATOM     23  N   UNL     1       0.618   1.787  22.885  0.00  0.00    +0.000 NA
ENDBRANCH  19  22
ENDBRANCH   5  16
BRANCH   3  24
ATOM     24  C   UNL     1       6.362   5.039  15.286  0.00  0.00    +0.000 C 
ATOM     25  N   UNL     1       7.607   4.717  15.520  0.00  0.00    +0.000 NA
BRANCH  25  26
ATOM     26  O   UNL     1       7.936   4.609  16.872  0.00  0.00    +0.000 OA
ATOM     27  H   UNL     1       8.614   3.907  16.871  0.00  0.00    +0.000 HD
ENDBRANCH  25  26
BRANCH  24  28
ATOM     28  C   UNL     1       5.958   5.101  13.810  0.00  0.00    +0.000 C 
BRANCH  28  29
ATOM     29  C   UNL     1       5.453   3.747  13.315  0.00  0.00    +0.000 C 
BRANCH  29  30
ATOM     30  C   UNL     1       6.375   3.103  12.280  0.00  0.00    +0.000 C 
BRANCH  30  31
ATOM     31  O   UNL     1       5.640   2.041  11.671  0.00  0.00    +0.000 OA
BRANCH  31  32
ATOM     32  N   UNL     1       6.465   1.073  11.059  0.00  0.00    +0.000 N 
ATOM     33  O   UNL     1       5.983  -0.050  10.879  0.00  0.00    +0.000 OA
ATOM     34  O   UNL     1       7.583   1.503  10.785  0.00  0.00    +0.000 OA
ENDBRANCH  31  32
ENDBRANCH  30  31
ENDBRANCH  29  30
ENDBRANCH  28  29
ENDBRANCH  24  28
ENDBRANCH   3  24
TORSDOF 11
ENDMDL
MODEL 2
REMARK VINA RESULT:      -7.5      0.944      1.219
REMARK  Name = 
REMARK  12 active torsions:
REMARK  status: ('A' for Active; 'I' for Inactive)
REMARK    1  A    between atoms: C_1  and  S_2
REMARK    2  A    between atoms: S_2  and  C_5
REMARK    3  A    between atoms: C_8  and  C_9
REMARK    4  A    between atoms: C_11  and  C_12
REMARK    5  A    between atoms: C_12  and  C_13
REMARK    6  A    between atoms: C_13  and  C_14
REMARK    7  A    between atoms: C_14  and  C_15
REMARK    8  A    between atoms: C_15  and  O_16
REMARK    9  A    between atoms: O_16  and  N_17
REMARK   10  A    between atoms: N_20  and  O_21
REMARK   11  A    between atoms: N_23  and  C_24
REMARK   12  A    between atoms: C_27  and  C_28
REMARK                            x       y       z     vdW  Elec       q    Type
REMARK                         _______ _______ _______ _____ _____    ______ ____
ROOT
ATOM      1  C   UNL     1       3.822   6.413  17.670  0.00  0.00    +0.000 A 
ATOM      2  C   UNL     1       4.660   6.566  16.578  0.00  0.00    +0.000 A 
ATOM      3  C   UNL     1       5.444   5.388  16.480  0.00  0.00    +0.000 A 
ATOM      4  N   UNL     1       5.100   4.527  17.452  0.00  0.00    +0.000 NA
ATOM      5  N   UNL     1       4.035   5.096  18.083  0.00  0.00    +0.000 N 
ENDROOT
BRANCH   1   9
ATOM      6  C   UNL     1       1.095   9.209  19.432  0.00  0.00    +0.000 A 
ATOM      7  C   UNL     1       1.552   9.416  18.130  0.00  0.00    +0.000 A 
ATOM      8  C   UNL     1       2.455   8.508  17.564  0.00  0.00    +0.000 A 
ATOM      9  C   UNL     1       2.934   7.412  18.299  0.00  0.00    +0.000 A 
ATOM     10  C   UNL     1       2.552   7.309  19.648  0.00  0.00    +0.000 A 
ATOM     11  C   UNL     1       1.606   8.169  20.204  0.00  0.00    +0.000 A 
BRANCH   6  13
ATOM     12  C   UNL     1       0.705  11.833  20.225  0.00  0.00    +0.000 C 
ATOM     13  S   UNL     1      -0.142  10.276  20.126  0.00  0.00    +0.000 S 
ATOM     14  O   UNL     1      -0.410   9.815  21.474  0.00  0.00    +0.000 OA
ATOM     15  O   UNL     1      -1.207  10.403  19.153  0.00  0.00    +0.000 OA
ENDBRANCH   6  13
ENDBRANCH   1   9
BRANCH   5  16
ATOM     16  C   UNL     1       3.295   4.323  19.028  0.00  0.00    +0.000 A 
ATOM     17  C   UNL     1       3.980   3.628  20.034  0.00  0.00    +0.000 A 
ATOM     18  C   UNL     1       3.263   2.975  21.044  0.00  0.00    +0.000 A 
ATOM     19  C   UNL     1       1.863   2.986  21.038  0.00  0.00    +0.000 A 
ATOM     20  C   UNL     1       1.180   3.636  20.006  0.00  0.00    +0.000 A 
ATOM     21  C   UNL     1       1.893   4.288  18.995  0.00  0.00    +0.000 A 
BRANCH  19  22
ATOM     22  C   UNL     1       1.130   2.332  22.085  0.00  0.00    +0.000 C 
ATOM     23  N   UNL     1       0.546   1.805  22.936  0.00  0.00    +0.000 NA
ENDBRANCH  19  22
ENDBRANCH   5  16
BRANCH   3  24
ATOM     24  C   UNL     1       6.483   5.044  15.486  0.00  0.00    +0.000 C 
ATOM     25  N   UNL     1       7.695   4.650  15.775  0.00  0.00    +0.000 NA
BRANCH  25  26
ATOM     26  O   UNL     1       7.935   4.461  17.137  0.00  0.00    +0.000 OA
ATOM     27  H   UNL     1       8.815   4.869  17.257  0.00  0.00    +0.000 HD
ENDBRANCH  25  26
BRANCH  24  28
ATOM     28  C   UNL     1       6.172   5.196  13.994  0.00  0.00    +0.000 C 
BRANCH  28  29
ATOM     29  C   UNL     1       7.305   4.644  13.130  0.00  0.00    +0.000 C 
BRANCH  29  30
ATOM     30  C   UNL     1       6.824   3.657  12.066  0.00  0.00    +0.000 C 
BRANCH  30  31
ATOM     31  O   UNL     1       5.439   3.419  12.316  0.00  0.00    +0.000 OA
BRANCH  31  32
ATOM     32  N   UNL     1       4.859   2.505  11.410  0.00  0.00    +0.000 N 
ATOM     33  O   UNL     1       3.785   2.825  10.892  0.00  0.00    +0.000 OA
ATOM     34  O   UNL     1       5.532   1.487  11.263  0.00  0.00    +0.000 OA
ENDBRANCH  31  32
ENDBRANCH  30  31
ENDBRANCH  29  30
ENDBRANCH  28  29
ENDBRANCH  24  28
ENDBRANCH   3  24
TORSDOF 11
ENDMDL
MODEL 3
REMARK VINA RESULT:      -7.5      5.929     12.061
REMARK  Name = 
REMARK  12 active torsions:
REMARK  status: ('A' for Active; 'I' for Inactive)
REMARK    1  A    between atoms: C_1  and  S_2
REMARK    2  A    between atoms: S_2  and  C_5
REMARK    3  A    between atoms: C_8  and  C_9
REMARK    4  A    between atoms: C_11  and  C_12
REMARK    5  A    between atoms: C_12  and  C_13
REMARK    6  A    between atoms: C_13  and  C_14
REMARK    7  A    between atoms: C_14  and  C_15
REMARK    8  A    between atoms: C_15  and  O_16
REMARK    9  A    between atoms: O_16  and  N_17
REMARK   10  A    between atoms: N_20  and  O_21
REMARK   11  A    between atoms: N_23  and  C_24
REMARK   12  A    between atoms: C_27  and  C_28
REMARK                            x       y       z     vdW  Elec       q    Type
REMARK                         _______ _______ _______ _____ _____    ______ ____
ROOT
ATOM      1  C   UNL     1      -0.331  10.378  20.742  0.00  0.00    +0.000 A 
ATOM      2  C   UNL     1      -0.497  10.832  22.039  0.00  0.00    +0.000 A 
ATOM      3  C   UNL     1      -1.431  11.899  21.997  0.00  0.00    +0.000 A 
ATOM      4  N   UNL     1      -1.848  12.092  20.735  0.00  0.00    +0.000 NA
ATOM      5  N   UNL     1      -1.282  11.089  20.007  0.00  0.00    +0.000 N 
ENDROOT
BRANCH   1   9
ATOM      6  C   UNL     1       2.366   7.444  19.169  0.00  0.00    +0.000 A 
ATOM      7  C   UNL     1       1.886   7.313  20.472  0.00  0.00    +0.000 A 
ATOM      8  C   UNL     1       1.017   8.282  20.987  0.00  0.00    +0.000 A 
ATOM      9  C   UNL     1       0.649   9.402  20.224  0.00  0.00    +0.000 A 
ATOM     10  C   UNL     1       1.254   9.566  18.966  0.00  0.00    +0.000 A 
ATOM     11  C   UNL     1       2.071   8.577  18.417  0.00  0.00    +0.000 A 
BRANCH   6  13
ATOM     12  C   UNL     1       2.161   4.966  17.952  0.00  0.00    +0.000 C 
ATOM     13  S   UNL     1       3.369   6.166  18.453  0.00  0.00    +0.000 S 
ATOM     14  O   UNL     1       4.170   5.593  19.517  0.00  0.00    +0.000 OA
ATOM     15  O   UNL     1       3.987   6.710  17.260  0.00  0.00    +0.000 OA
ENDBRANCH   6  13
ENDBRANCH   1   9
BRANCH   5  16
ATOM     16  C   UNL     1      -1.708  10.885  18.659  0.00  0.00    +0.000 A 
ATOM     17  C   UNL     1      -2.276   9.657  18.297  0.00  0.00    +0.000 A 
ATOM     18  C   UNL     1      -2.816   9.489  17.016  0.00  0.00    +0.000 A 
ATOM     19  C   UNL     1      -2.764  10.532  16.083  0.00  0.00    +0.000 A 
ATOM     20  C   UNL     1      -2.151  11.739  16.429  0.00  0.00    +0.000 A 
ATOM     21  C   UNL     1      -1.609  11.911  17.707  0.00  0.00    +0.000 A 
BRANCH  19  22
ATOM     22  C   UNL     1      -3.336  10.364  14.777  0.00  0.00    +0.000 C 
ATOM     23  N   UNL     1      -3.799  10.239  13.722  0.00  0.00    +0.000 NA
ENDBRANCH  19  22
ENDBRANCH   5  16
BRANCH   3  24
ATOM     24  C   UNL     1      -1.958  12.717  23.110  0.00  0.00    +0.000 C 
ATOM     25  N   UNL     1      -1.402  13.811  23.563  0.00  0.00    +0.000 NA
BRANCH  25  26
ATOM     26  O   UNL     1      -0.291  14.242  22.837  0.00  0.00    +0.000 OA
ATOM     27  H   UNL     1      -0.619  14.229  21.918  0.00  0.00    +0.000 HD
ENDBRANCH  25  26
BRANCH  24  28
ATOM     28  C   UNL     1      -3.218  12.257  23.848  0.00  0.00    +0.000 C 
BRANCH  28  29
ATOM     29  C   UNL     1      -4.140  13.434  24.161  0.00  0.00    +0.000 C 
BRANCH  29  30
ATOM     30  C   UNL     1      -5.241  13.630  23.119  0.00  0.00    +0.000 C 
BRANCH  30  31
ATOM     31  O   UNL     1      -5.809  12.344  22.868  0.00  0.00    +0.000 OA
BRANCH  31  32
ATOM     32  N   UNL     1      -7.194  12.286  23.135  0.00  0.00    +0.000 N 
ATOM     33  O   UNL     1      -7.605  11.327  23.795  0.00  0.00    +0.000 OA
ATOM     34  O   UNL     1      -7.813  13.234  22.654  0.00  0.00    +0.000 OA
ENDBRANCH  31  32
ENDBRANCH  30  31
ENDBRANCH  29  30
ENDBRANCH  28  29
ENDBRANCH  24  28
ENDBRANCH   3  24
TORSDOF 11
ENDMDL
MODEL 4
REMARK VINA RESULT:      -7.3      0.619      1.142
REMARK  Name = 
REMARK  12 active torsions:
REMARK  status: ('A' for Active; 'I' for Inactive)
REMARK    1  A    between atoms: C_1  and  S_2
REMARK    2  A    between atoms: S_2  and  C_5
REMARK    3  A    between atoms: C_8  and  C_9
REMARK    4  A    between atoms: C_11  and  C_12
REMARK    5  A    between atoms: C_12  and  C_13
REMARK    6  A    between atoms: C_13  and  C_14
REMARK    7  A    between atoms: C_14  and  C_15
REMARK    8  A    between atoms: C_15  and  O_16
REMARK    9  A    between atoms: O_16  and  N_17
REMARK   10  A    between atoms: N_20  and  O_21
REMARK   11  A    between atoms: N_23  and  C_24
REMARK   12  A    between atoms: C_27  and  C_28
REMARK                            x       y       z     vdW  Elec       q    Type
REMARK                         _______ _______ _______ _____ _____    ______ ____
ROOT
ATOM      1  C   UNL     1       3.812   6.289  17.853  0.00  0.00    +0.000 A 
ATOM      2  C   UNL     1       4.724   6.429  16.821  0.00  0.00    +0.000 A 
ATOM      3  C   UNL     1       5.554   5.279  16.833  0.00  0.00    +0.000 A 
ATOM      4  N   UNL     1       5.168   4.446  17.813  0.00  0.00    +0.000 NA
ATOM      5  N   UNL     1       4.038   4.999  18.337  0.00  0.00    +0.000 N 
ENDROOT
BRANCH   1   9
ATOM      6  C   UNL     1       1.154   9.272  19.403  0.00  0.00    +0.000 A 
ATOM      7  C   UNL     1       1.600   8.244  20.234  0.00  0.00    +0.000 A 
ATOM      8  C   UNL     1       2.456   7.263  19.720  0.00  0.00    +0.000 A 
ATOM      9  C   UNL     1       2.844   7.278  18.370  0.00  0.00    +0.000 A 
ATOM     10  C   UNL     1       2.273   8.254  17.534  0.00  0.00    +0.000 A 
ATOM     11  C   UNL     1       1.470   9.272  18.048  0.00  0.00    +0.000 A 
BRANCH   6  13
ATOM     12  C   UNL     1      -1.205  10.646  18.941  0.00  0.00    +0.000 C 
ATOM     13  S   UNL     1       0.170  10.593  20.063  0.00  0.00    +0.000 S 
ATOM     14  O   UNL     1       0.929  11.819  19.914  0.00  0.00    +0.000 OA
ATOM     15  O   UNL     1      -0.321  10.169  21.358  0.00  0.00    +0.000 OA
ENDBRANCH   6  13
ENDBRANCH   1   9
BRANCH   5  16
ATOM     16  C   UNL     1       3.256   4.238  19.259  0.00  0.00    +0.000 A 
ATOM     17  C   UNL     1       3.901   3.413  20.190  0.00  0.00    +0.000 A 
ATOM     18  C   UNL     1       3.155   2.765  21.181  0.00  0.00    +0.000 A 
ATOM     19  C   UNL     1       1.763   2.910  21.230  0.00  0.00    +0.000 A 
ATOM     20  C   UNL     1       1.116   3.692  20.270  0.00  0.00    +0.000 A 
ATOM     21  C   UNL     1       1.857   4.341  19.276  0.00  0.00    +0.000 A 
BRANCH  19  22
ATOM     22  C   UNL     1       1.002   2.260  22.259  0.00  0.00    +0.000 C 
ATOM     23  N   UNL     1       0.393   1.741  23.097  0.00  0.00    +0.000 NA
ENDBRANCH  19  22
ENDBRANCH   5  16
BRANCH   3  24
ATOM     24  C   UNL     1       6.676   4.934  15.935  0.00  0.00    +0.000 C 
ATOM     25  N   UNL     1       7.851   4.520  16.330  0.00  0.00    +0.000 NA
BRANCH  25  26
ATOM     26  O   UNL     1       7.962   4.310  17.706  0.00  0.00    +0.000 OA
ATOM     27  H   UNL     1       8.883   4.002  17.801  0.00  0.00    +0.000 HD
ENDBRANCH  25  26
BRANCH  24  28
ATOM     28  C   UNL     1       6.508   5.110  14.423  0.00  0.00    +0.000 C 
BRANCH  28  29
ATOM     29  C   UNL     1       6.117   3.795  13.749  0.00  0.00    +0.000 C 
BRANCH  29  30
ATOM     30  C   UNL     1       6.328   3.809  12.236  0.00  0.00    +0.000 C 
BRANCH  30  31
ATOM     31  O   UNL     1       6.754   2.499  11.863  0.00  0.00    +0.000 OA
BRANCH  31  32
ATOM     32  N   UNL     1       5.720   1.712  11.315  0.00  0.00    +0.000 N 
ATOM     33  O   UNL     1       4.631   2.262  11.120  0.00  0.00    +0.000 OA
ATOM     34  O   UNL     1       6.064   0.551  11.101  0.00  0.00    +0.000 OA
ENDBRANCH  31  32
ENDBRANCH  30  31
ENDBRANCH  29  30
ENDBRANCH  28  29
ENDBRANCH  24  28
ENDBRANCH   3  24
TORSDOF 11
ENDMDL
MODEL 5
REMARK VINA RESULT:      -7.3      6.386     10.543
REMARK  Name = 
REMARK  12 active torsions:
REMARK  status: ('A' for Active; 'I' for Inactive)
REMARK    1  A    between atoms: C_1  and  S_2
REMARK    2  A    between atoms: S_2  and  C_5
REMARK    3  A    between atoms: C_8  and  C_9
REMARK    4  A    between atoms: C_11  and  C_12
REMARK    5  A    between atoms: C_12  and  C_13
REMARK    6  A    between atoms: C_13  and  C_14
REMARK    7  A    between atoms: C_14  and  C_15
REMARK    8  A    between atoms: C_15  and  O_16
REMARK    9  A    between atoms: O_16  and  N_17
REMARK   10  A    between atoms: N_20  and  O_21
REMARK   11  A    between atoms: N_23  and  C_24
REMARK   12  A    between atoms: C_27  and  C_28
REMARK                            x       y       z     vdW  Elec       q    Type
REMARK                         _______ _______ _______ _____ _____    ______ ____
ROOT
ATOM      1  C   UNL     1      -0.048  11.987  18.755  0.00  0.00    +0.000 A 
ATOM      2  C   UNL     1      -1.318  12.485  18.516  0.00  0.00    +0.000 A 
ATOM      3  C   UNL     1      -2.087  11.432  17.959  0.00  0.00    +0.000 A 
ATOM      4  N   UNL     1      -1.341  10.318  17.872  0.00  0.00    +0.000 NA
ATOM      5  N   UNL     1      -0.158  10.624  18.473  0.00  0.00    +0.000 N 
ENDROOT
BRANCH   1   9
ATOM      6  C   UNL     1       3.385  14.271  19.921  0.00  0.00    +0.000 A 
ATOM      7  C   UNL     1       3.237  13.875  18.591  0.00  0.00    +0.000 A 
ATOM      8  C   UNL     1       2.122  13.115  18.218  0.00  0.00    +0.000 A 
ATOM      9  C   UNL     1       1.168  12.717  19.168  0.00  0.00    +0.000 A 
ATOM     10  C   UNL     1       1.417  13.026  20.517  0.00  0.00    +0.000 A 
ATOM     11  C   UNL     1       2.490  13.834  20.892  0.00  0.00    +0.000 A 
BRANCH   6  13
ATOM     12  C   UNL     1       3.910  16.554  21.396  0.00  0.00    +0.000 C 
ATOM     13  S   UNL     1       4.724  15.337  20.393  0.00  0.00    +0.000 S 
ATOM     14  O   UNL     1       5.209  15.986  19.190  0.00  0.00    +0.000 OA
ATOM     15  O   UNL     1       5.614  14.573  21.243  0.00  0.00    +0.000 OA
ENDBRANCH   6  13
ENDBRANCH   1   9
BRANCH   5  16
ATOM     16  C   UNL     1       0.776   9.576  18.740  0.00  0.00    +0.000 A 
ATOM     17  C   UNL     1       0.895   9.078  20.044  0.00  0.00    +0.000 A 
ATOM     18  C   UNL     1       1.708   7.966  20.294  0.00  0.00    +0.000 A 
ATOM     19  C   UNL     1       2.428   7.366  19.253  0.00  0.00    +0.000 A 
ATOM     20  C   UNL     1       2.348   7.896  17.962  0.00  0.00    +0.000 A 
ATOM     21  C   UNL     1       1.539   9.008  17.708  0.00  0.00    +0.000 A 
BRANCH  19  22
ATOM     22  C   UNL     1       3.246   6.215  19.508  0.00  0.00    +0.000 C 
ATOM     23  N   UNL     1       3.914   5.290  19.712  0.00  0.00    +0.000 NA
ENDBRANCH  19  22
ENDBRANCH   5  16
BRANCH   3  24
ATOM     24  C   UNL     1      -3.503  11.440  17.536  0.00  0.00    +0.000 C 
ATOM     25  N   UNL     1      -3.913  11.395  16.295  0.00  0.00    +0.000 NA
BRANCH  25  26
ATOM     26  O   UNL     1      -2.898  11.226  15.352  0.00  0.00    +0.000 OA
ATOM     27  H   UNL     1      -3.178  10.419  14.880  0.00  0.00    +0.000 HD
ENDBRANCH  25  26
BRANCH  24  28
ATOM     28  C   UNL     1      -4.602  11.559  18.595  0.00  0.00    +0.000 C 
BRANCH  28  29
ATOM     29  C   UNL     1      -5.920  12.026  17.980  0.00  0.00    +0.000 C 
BRANCH  29  30
ATOM     30  C   UNL     1      -7.063  12.101  18.992  0.00  0.00    +0.000 C 
BRANCH  30  31
ATOM     31  O   UNL     1      -6.500  11.835  20.276  0.00  0.00    +0.000 OA
BRANCH  31  32
ATOM     32  N   UNL     1      -7.194  10.837  20.992  0.00  0.00    +0.000 N 
ATOM     33  O   UNL     1      -7.225   9.703  20.503  0.00  0.00    +0.000 OA
ATOM     34  O   UNL     1      -7.686  11.256  22.039  0.00  0.00    +0.000 OA
ENDBRANCH  31  32
ENDBRANCH  30  31
ENDBRANCH  29  30
ENDBRANCH  28  29
ENDBRANCH  24  28
ENDBRANCH   3  24
TORSDOF 11
ENDMDL
MODEL 6
REMARK VINA RESULT:      -7.2      5.970     10.967
REMARK  Name = 
REMARK  12 active torsions:
REMARK  status: ('A' for Active; 'I' for Inactive)
REMARK    1  A    between atoms: C_1  and  S_2
REMARK    2  A    between atoms: S_2  and  C_5
REMARK    3  A    between atoms: C_8  and  C_9
REMARK    4  A    between atoms: C_11  and  C_12
REMARK    5  A    between atoms: C_12  and  C_13
REMARK    6  A    between atoms: C_13  and  C_14
REMARK    7  A    between atoms: C_14  and  C_15
REMARK    8  A    between atoms: C_15  and  O_16
REMARK    9  A    between atoms: O_16  and  N_17
REMARK   10  A    between atoms: N_20  and  O_21
REMARK   11  A    between atoms: N_23  and  C_24
REMARK   12  A    between atoms: C_27  and  C_28
REMARK                            x       y       z     vdW  Elec       q    Type
REMARK                         _______ _______ _______ _____ _____    ______ ____
ROOT
ATOM      1  C   UNL     1      -0.437  10.688  20.818  0.00  0.00    +0.000 A 
ATOM      2  C   UNL     1      -0.519  11.239  22.085  0.00  0.00    +0.000 A 
ATOM      3  C   UNL     1      -1.432  12.322  22.017  0.00  0.00    +0.000 A 
ATOM      4  N   UNL     1      -1.916  12.433  20.769  0.00  0.00    +0.000 NA
ATOM      5  N   UNL     1      -1.414  11.367  20.086  0.00  0.00    +0.000 N 
ENDROOT
BRANCH   1   9
ATOM      6  C   UNL     1       2.106   7.592  19.298  0.00  0.00    +0.000 A 
ATOM      7  C   UNL     1       1.600   7.497  20.595  0.00  0.00    +0.000 A 
ATOM      8  C   UNL     1       0.782   8.518  21.093  0.00  0.00    +0.000 A 
ATOM      9  C   UNL     1       0.492   9.653  20.319  0.00  0.00    +0.000 A 
ATOM     10  C   UNL     1       1.123   9.774  19.069  0.00  0.00    +0.000 A 
ATOM     11  C   UNL     1       1.889   8.736  18.537  0.00  0.00    +0.000 A 
BRANCH   6  13
ATOM     12  C   UNL     1       4.107   7.087  17.453  0.00  0.00    +0.000 C 
ATOM     13  S   UNL     1       3.043   6.254  18.603  0.00  0.00    +0.000 S 
ATOM     14  O   UNL     1       2.122   5.421  17.854  0.00  0.00    +0.000 OA
ATOM     15  O   UNL     1       3.864   5.699  19.659  0.00  0.00    +0.000 OA
ENDBRANCH   6  13
ENDBRANCH   1   9
BRANCH   5  16
ATOM     16  C   UNL     1      -1.921  11.076  18.783  0.00  0.00    +0.000 A 
ATOM     17  C   UNL     1      -1.781  12.027  17.764  0.00  0.00    +0.000 A 
ATOM     18  C   UNL     1      -2.155  11.704  16.454  0.00  0.00    +0.000 A 
ATOM     19  C   UNL     1      -2.696  10.447  16.160  0.00  0.00    +0.000 A 
ATOM     20  C   UNL     1      -2.881   9.517  17.187  0.00  0.00    +0.000 A 
ATOM     21  C   UNL     1      -2.511   9.835  18.498  0.00  0.00    +0.000 A 
BRANCH  19  22
ATOM     22  C   UNL     1      -3.059  10.111  14.813  0.00  0.00    +0.000 C 
ATOM     23  N   UNL     1      -3.362   9.843  13.727  0.00  0.00    +0.000 NA
ENDBRANCH  19  22
ENDBRANCH   5  16
BRANCH   3  24
ATOM     24  C   UNL     1      -1.876  13.231  23.094  0.00  0.00    +0.000 C 
ATOM     25  N   UNL     1      -3.063  13.219  23.642  0.00  0.00    +0.000 NA
BRANCH  25  26
ATOM     26  O   UNL     1      -3.893  12.183  23.210  0.00  0.00    +0.000 OA
ATOM     27  H   UNL     1      -4.735  12.383  23.661  0.00  0.00    +0.000 HD
ENDBRANCH  25  26
BRANCH  24  28
ATOM     28  C   UNL     1      -0.922  14.319  23.598  0.00  0.00    +0.000 C 
BRANCH  28  29
ATOM     29  C   UNL     1      -0.452  15.219  22.457  0.00  0.00    +0.000 C 
BRANCH  29  30
ATOM     30  C   UNL     1       1.011  14.992  22.077  0.00  0.00    +0.000 C 
BRANCH  30  31
ATOM     31  O   UNL     1       1.048  14.794  20.663  0.00  0.00    +0.000 OA
BRANCH  31  32
ATOM     32  N   UNL     1       1.687  13.594  20.286  0.00  0.00    +0.000 N 
ATOM     33  O   UNL     1       2.456  13.079  21.105  0.00  0.00    +0.000 OA
ATOM     34  O   UNL     1       1.375  13.221  19.157  0.00  0.00    +0.000 OA
ENDBRANCH  31  32
ENDBRANCH  30  31
ENDBRANCH  29  30
ENDBRANCH  28  29
ENDBRANCH  24  28
ENDBRANCH   3  24
TORSDOF 11
ENDMDL
MODEL 7
REMARK VINA RESULT:      -7.2      1.095      1.456
REMARK  Name = 
REMARK  12 active torsions:
REMARK  status: ('A' for Active; 'I' for Inactive)
REMARK    1  A    between atoms: C_1  and  S_2
REMARK    2  A    between atoms: S_2  and  C_5
REMARK    3  A    between atoms: C_8  and  C_9
REMARK    4  A    between atoms: C_11  and  C_12
REMARK    5  A    between atoms: C_12  and  C_13
REMARK    6  A    between atoms: C_13  and  C_14
REMARK    7  A    between atoms: C_14  and  C_15
REMARK    8  A    between atoms: C_15  and  O_16
REMARK    9  A    between atoms: O_16  and  N_17
REMARK   10  A    between atoms: N_20  and  O_21
REMARK   11  A    between atoms: N_23  and  C_24
REMARK   12  A    between atoms: C_27  and  C_28
REMARK                            x       y       z     vdW  Elec       q    Type
REMARK                         _______ _______ _______ _____ _____    ______ ____
ROOT
ATOM      1  C   UNL     1       3.418   6.877  17.686  0.00  0.00    +0.000 A 
ATOM      2  C   UNL     1       4.213   6.980  16.558  0.00  0.00    +0.000 A 
ATOM      3  C   UNL     1       5.001   5.802  16.487  0.00  0.00    +0.000 A 
ATOM      4  N   UNL     1       4.699   4.989  17.513  0.00  0.00    +0.000 NA
ATOM      5  N   UNL     1       3.654   5.583  18.154  0.00  0.00    +0.000 N 
ENDROOT
BRANCH   1   9
ATOM      6  C   UNL     1       0.740   9.752  19.396  0.00  0.00    +0.000 A 
ATOM      7  C   UNL     1       1.224   9.943  18.101  0.00  0.00    +0.000 A 
ATOM      8  C   UNL     1       2.111   9.009  17.553  0.00  0.00    +0.000 A 
ATOM      9  C   UNL     1       2.547   7.902  18.298  0.00  0.00    +0.000 A 
ATOM     10  C   UNL     1       2.140   7.813  19.641  0.00  0.00    +0.000 A 
ATOM     11  C   UNL     1       1.208   8.701  20.179  0.00  0.00    +0.000 A 
BRANCH   6  13
ATOM     12  C   UNL     1       0.350  12.423  20.010  0.00  0.00    +0.000 C 
ATOM     13  S   UNL     1      -0.479  10.855  20.067  0.00  0.00    +0.000 S 
ATOM     14  O   UNL     1      -0.677  10.492  21.457  0.00  0.00    +0.000 OA
ATOM     15  O   UNL     1      -1.590  10.897  19.139  0.00  0.00    +0.000 OA
ENDBRANCH   6  13
ENDBRANCH   1   9
BRANCH   5  16
ATOM     16  C   UNL     1       2.955   4.854  19.164  0.00  0.00    +0.000 A 
ATOM     17  C   UNL     1       1.931   3.974  18.791  0.00  0.00    +0.000 A 
ATOM     18  C   UNL     1       1.327   3.157  19.755  0.00  0.00    +0.000 A 
ATOM     19  C   UNL     1       1.719   3.237  21.097  0.00  0.00    +0.000 A 
ATOM     20  C   UNL     1       2.705   4.152  21.476  0.00  0.00    +0.000 A 
ATOM     21  C   UNL     1       3.310   4.971  20.516  0.00  0.00    +0.000 A 
BRANCH  19  22
ATOM     22  C   UNL     1       1.113   2.386  22.081  0.00  0.00    +0.000 C 
ATOM     23  N   UNL     1       0.617   1.706  22.877  0.00  0.00    +0.000 NA
ENDBRANCH  19  22
ENDBRANCH   5  16
BRANCH   3  24
ATOM     24  C   UNL     1       6.004   5.415  15.474  0.00  0.00    +0.000 C 
ATOM     25  N   UNL     1       7.250   5.808  15.465  0.00  0.00    +0.000 NA
BRANCH  25  26
ATOM     26  O   UNL     1       7.629   6.565  16.575  0.00  0.00    +0.000 OA
ATOM     27  H   UNL     1       8.461   6.980  16.275  0.00  0.00    +0.000 HD
ENDBRANCH  25  26
BRANCH  24  28
ATOM     28  C   UNL     1       5.578   4.528  14.300  0.00  0.00    +0.000 C 
BRANCH  28  29
ATOM     29  C   UNL     1       6.790   3.927  13.589  0.00  0.00    +0.000 C 
BRANCH  29  30
ATOM     30  C   UNL     1       6.633   3.878  12.069  0.00  0.00    +0.000 C 
BRANCH  30  31
ATOM     31  O   UNL     1       6.899   2.535  11.666  0.00  0.00    +0.000 OA
BRANCH  31  32
ATOM     32  N   UNL     1       5.733   1.808  11.346  0.00  0.00    +0.000 N 
ATOM     33  O   UNL     1       4.665   2.429  11.327  0.00  0.00    +0.000 OA
ATOM     34  O   UNL     1       5.957   0.620  11.123  0.00  0.00    +0.000 OA
ENDBRANCH  31  32
ENDBRANCH  30  31
ENDBRANCH  29  30
ENDBRANCH  28  29
ENDBRANCH  24  28
ENDBRANCH   3  24
TORSDOF 11
ENDMDL
MODEL 8
REMARK VINA RESULT:      -7.2      5.922     11.746
REMARK  Name = 
REMARK  12 active torsions:
REMARK  status: ('A' for Active; 'I' for Inactive)
REMARK    1  A    between atoms: C_1  and  S_2
REMARK    2  A    between atoms: S_2  and  C_5
REMARK    3  A    between atoms: C_8  and  C_9
REMARK    4  A    between atoms: C_11  and  C_12
REMARK    5  A    between atoms: C_12  and  C_13
REMARK    6  A    between atoms: C_13  and  C_14
REMARK    7  A    between atoms: C_14  and  C_15
REMARK    8  A    between atoms: C_15  and  O_16
REMARK    9  A    between atoms: O_16  and  N_17
REMARK   10  A    between atoms: N_20  and  O_21
REMARK   11  A    between atoms: N_23  and  C_24
REMARK   12  A    between atoms: C_27  and  C_28
REMARK                            x       y       z     vdW  Elec       q    Type
REMARK                         _______ _______ _______ _____ _____    ______ ____
ROOT
ATOM      1  C   UNL     1      -0.196  10.562  20.683  0.00  0.00    +0.000 A 
ATOM      2  C   UNL     1      -0.154  11.113  21.953  0.00  0.00    +0.000 A 
ATOM      3  C   UNL     1      -0.978  12.267  21.941  0.00  0.00    +0.000 A 
ATOM      4  N   UNL     1      -1.529  12.422  20.725  0.00  0.00    +0.000 NA
ATOM      5  N   UNL     1      -1.158  11.321  20.013  0.00  0.00    +0.000 N 
ENDROOT
BRANCH   1   9
ATOM      6  C   UNL     1       2.309   7.449  19.137  0.00  0.00    +0.000 A 
ATOM      7  C   UNL     1       1.955   8.522  18.318  0.00  0.00    +0.000 A 
ATOM      8  C   UNL     1       1.124   9.529  18.823  0.00  0.00    +0.000 A 
ATOM      9  C   UNL     1       0.613   9.457  20.129  0.00  0.00    +0.000 A 
ATOM     10  C   UNL     1       0.887   8.300  20.878  0.00  0.00    +0.000 A 
ATOM     11  C   UNL     1       1.763   7.321  20.410  0.00  0.00    +0.000 A 
BRANCH   6  13
ATOM     12  C   UNL     1       2.389   4.973  17.901  0.00  0.00    +0.000 C 
ATOM     13  S   UNL     1       3.460   6.226  18.560  0.00  0.00    +0.000 S 
ATOM     14  O   UNL     1       4.138   5.684  19.721  0.00  0.00    +0.000 OA
ATOM     15  O   UNL     1       4.204   6.807  17.462  0.00  0.00    +0.000 OA
ENDBRANCH   6  13
ENDBRANCH   1   9
BRANCH   5  16
ATOM     16  C   UNL     1      -1.767  11.077  18.745  0.00  0.00    +0.000 A 
ATOM     17  C   UNL     1      -1.616  12.018  17.718  0.00  0.00    +0.000 A 
ATOM     18  C   UNL     1      -2.094  11.732  16.434  0.00  0.00    +0.000 A 
ATOM     19  C   UNL     1      -2.752  10.523  16.175  0.00  0.00    +0.000 A 
ATOM     20  C   UNL     1      -2.947   9.607  17.213  0.00  0.00    +0.000 A 
ATOM     21  C   UNL     1      -2.472   9.889  18.498  0.00  0.00    +0.000 A 
BRANCH  19  22
ATOM     22  C   UNL     1      -3.225  10.224  14.854  0.00  0.00    +0.000 C 
ATOM     23  N   UNL     1      -3.597   9.981  13.783  0.00  0.00    +0.000 NA
ENDBRANCH  19  22
ENDBRANCH   5  16
BRANCH   3  24
ATOM     24  C   UNL     1      -1.279  13.205  23.042  0.00  0.00    +0.000 C 
ATOM     25  N   UNL     1      -0.571  14.263  23.339  0.00  0.00    +0.000 NA
BRANCH  25  26
ATOM     26  O   UNL     1       0.474  14.531  22.453  0.00  0.00    +0.000 OA
ATOM     27  H   UNL     1       0.039  14.455  21.582  0.00  0.00    +0.000 HD
ENDBRANCH  25  26
BRANCH  24  28
ATOM     28  C   UNL     1      -2.473  12.925  23.960  0.00  0.00    +0.000 C 
BRANCH  28  29
ATOM     29  C   UNL     1      -3.717  12.549  23.156  0.00  0.00    +0.000 C 
BRANCH  29  30
ATOM     30  C   UNL     1      -4.986  13.239  23.654  0.00  0.00    +0.000 C 
BRANCH  30  31
ATOM     31  O   UNL     1      -6.083  12.397  23.301  0.00  0.00    +0.000 OA
BRANCH  31  32
ATOM     32  N   UNL     1      -6.482  12.537  21.955  0.00  0.00    +0.000 N 
ATOM     33  O   UNL     1      -6.545  11.510  21.272  0.00  0.00    +0.000 OA
ATOM     34  O   UNL     1      -6.719  13.704  21.646  0.00  0.00    +0.000 OA
ENDBRANCH  31  32
ENDBRANCH  30  31
ENDBRANCH  29  30
ENDBRANCH  28  29
ENDBRANCH  24  28
ENDBRANCH   3  24
TORSDOF 11
ENDMDL
MODEL 9
REMARK VINA RESULT:      -7.1      6.441     10.678
REMARK  Name = 
REMARK  12 active torsions:
REMARK  status: ('A' for Active; 'I' for Inactive)
REMARK    1  A    between atoms: C_1  and  S_2
REMARK    2  A    between atoms: S_2  and  C_5
REMARK    3  A    between atoms: C_8  and  C_9
REMARK    4  A    between atoms: C_11  and  C_12
REMARK    5  A    between atoms: C_12  and  C_13
REMARK    6  A    between atoms: C_13  and  C_14
REMARK    7  A    between atoms: C_14  and  C_15
REMARK    8  A    between atoms: C_15  and  O_16
REMARK    9  A    between atoms: O_16  and  N_17
REMARK   10  A    between atoms: N_20  and  O_21
REMARK   11  A    between atoms: N_23  and  C_24
REMARK   12  A    between atoms: C_27  and  C_28
REMARK                            x       y       z     vdW  Elec       q    Type
REMARK                         _______ _______ _______ _____ _____    ______ ____
ROOT
ATOM      1  C   UNL     1      -0.588  11.874  18.978  0.00  0.00    +0.000 A 
ATOM      2  C   UNL     1      -1.883  12.260  18.675  0.00  0.00    +0.000 A 
ATOM      3  C   UNL     1      -2.473  11.209  17.927  0.00  0.00    +0.000 A 
ATOM      4  N   UNL     1      -1.596  10.202  17.785  0.00  0.00    +0.000 NA
ATOM      5  N   UNL     1      -0.511  10.553  18.531  0.00  0.00    +0.000 N 
ENDROOT
BRANCH   1   9
ATOM      6  C   UNL     1       2.616  14.028  20.836  0.00  0.00    +0.000 A 
ATOM      7  C   UNL     1       1.392  13.904  21.496  0.00  0.00    +0.000 A 
ATOM      8  C   UNL     1       0.343  13.213  20.878  0.00  0.00    +0.000 A 
ATOM      9  C   UNL     1       0.493  12.672  19.591  0.00  0.00    +0.000 A 
ATOM     10  C   UNL     1       1.695  12.928  18.908  0.00  0.00    +0.000 A 
ATOM     11  C   UNL     1       2.768  13.560  19.535  0.00  0.00    +0.000 A 
BRANCH   6  13
ATOM     12  C   UNL     1       5.132  15.057  20.311  0.00  0.00    +0.000 C 
ATOM     13  S   UNL     1       3.997  14.792  21.650  0.00  0.00    +0.000 S 
ATOM     14  O   UNL     1       4.571  13.810  22.549  0.00  0.00    +0.000 OA
ATOM     15  O   UNL     1       3.560  16.085  22.134  0.00  0.00    +0.000 OA
ENDBRANCH   6  13
ENDBRANCH   1   9
BRANCH   5  16
ATOM     16  C   UNL     1       0.513   9.587  18.765  0.00  0.00    +0.000 A 
ATOM     17  C   UNL     1       0.685   9.066  20.054  0.00  0.00    +0.000 A 
ATOM     18  C   UNL     1       1.596   8.025  20.270  0.00  0.00    +0.000 A 
ATOM     19  C   UNL     1       2.360   7.520  19.211  0.00  0.00    +0.000 A 
ATOM     20  C   UNL     1       2.224   8.075  17.935  0.00  0.00    +0.000 A 
ATOM     21  C   UNL     1       1.317   9.116  17.715  0.00  0.00    +0.000 A 
BRANCH  19  22
ATOM     22  C   UNL     1       3.278   6.440  19.431  0.00  0.00    +0.000 C 
ATOM     23  N   UNL     1       4.013   5.562  19.613  0.00  0.00    +0.000 NA
ENDBRANCH  19  22
ENDBRANCH   5  16
BRANCH   3  24
ATOM     24  C   UNL     1      -3.838  11.119  17.370  0.00  0.00    +0.000 C 
ATOM     25  N   UNL     1      -4.147  11.295  16.112  0.00  0.00    +0.000 NA
BRANCH  25  26
ATOM     26  O   UNL     1      -3.053  11.479  15.265  0.00  0.00    +0.000 OA
ATOM     27  H   UNL     1      -3.440  11.980  14.522  0.00  0.00    +0.000 HD
ENDBRANCH  25  26
BRANCH  24  28
ATOM     28  C   UNL     1      -5.016  10.850  18.311  0.00  0.00    +0.000 C 
BRANCH  28  29
ATOM     29  C   UNL     1      -5.688  12.151  18.746  0.00  0.00    +0.000 C 
BRANCH  29  30
ATOM     30  C   UNL     1      -7.207  12.030  18.875  0.00  0.00    +0.000 C 
BRANCH  30  31
ATOM     31  O   UNL     1      -7.545  12.431  20.203  0.00  0.00    +0.000 OA
BRANCH  31  32
ATOM     32  N   UNL     1      -7.146  11.498  21.184  0.00  0.00    +0.000 N 
ATOM     33  O   UNL     1      -7.503  10.326  21.031  0.00  0.00    +0.000 OA
ATOM     34  O   UNL     1      -6.477  12.006  22.082  0.00  0.00    +0.000 OA
ENDBRANCH  31  32
ENDBRANCH  30  31
ENDBRANCH  29  30
ENDBRANCH  28  29
ENDBRANCH  24  28
ENDBRANCH   3  24
TORSDOF 11
ENDMDL
