MODEL 1
REMARK VINA RESULT:      -5.9      0.000      0.000
REMARK  Name = 
REMARK  2 active torsions:
REMARK  status: ('A' for Active; 'I' for Inactive)
REMARK    1  A    between atoms: C_1  and  O_2
REMARK    2  A    between atoms: O_2  and  C_3
REMARK                            x       y       z     vdW  Elec       q    Type
REMARK                         _______ _______ _______ _____ _____    ______ ____
ROOT
ATOM      1  C   UNL     1       4.782   4.644  17.284  0.00  0.00    +0.000 C 
ATOM      2  C   UNL     1       5.615   4.335  18.530  0.00  0.00    +0.000 C 
ATOM      3  N   UNL     1       5.072   3.245  19.341  0.00  0.00    +0.000 N 
ATOM      4  C   UNL     1       3.707   3.363  19.645  0.00  0.00    +0.000 A 
ATOM      5  C   UNL     1       3.200   2.636  20.729  0.00  0.00    +0.000 A 
ATOM      6  C   UNL     1       1.862   2.742  21.106  0.00  0.00    +0.000 A 
ATOM      7  C   UNL     1       1.005   3.570  20.382  0.00  0.00    +0.000 A 
ATOM      8  C   UNL     1       1.484   4.248  19.263  0.00  0.00    +0.000 A 
ATOM      9  C   UNL     1       2.828   4.130  18.865  0.00  0.00    +0.000 A 
ATOM     10  C   UNL     1       3.292   4.843  17.625  0.00  0.00    +0.000 C 
ATOM     11  H   UNL     1       5.263   2.325  18.950  0.00  0.00    +0.000 HD
ENDROOT
BRANCH   1  13
ATOM     12  C   UNL     1       6.162   4.017  15.361  0.00  0.00    +0.000 C 
ATOM     13  O   UNL     1       5.004   3.799  16.146  0.00  0.00    +0.000 OA
ENDBRANCH   1  13
TORSDOF 1
ENDMDL
MODEL 2
REMARK VINA RESULT:      -5.9      1.708      2.436
REMARK  Name = 
REMARK  2 active torsions:
REMARK  status: ('A' for Active; 'I' for Inactive)
REMARK    1  A    between atoms: C_1  and  O_2
REMARK    2  A    between atoms: O_2  and  C_3
REMARK                            x       y       z     vdW  Elec       q    Type
REMARK                         _______ _______ _______ _____ _____    ______ ____
ROOT
ATOM      1  C   UNL     1       6.957   6.132  16.824  0.00  0.00    +0.000 C 
ATOM      2  C   UNL     1       7.416   5.417  18.097  0.00  0.00    +0.000 C 
ATOM      3  N   UNL     1       6.647   4.210  18.400  0.00  0.00    +0.000 N 
ATOM      4  C   UNL     1       5.253   4.380  18.372  0.00  0.00    +0.000 A 
ATOM      5  C   UNL     1       4.454   3.443  19.040  0.00  0.00    +0.000 A 
ATOM      6  C   UNL     1       3.068   3.579  19.083  0.00  0.00    +0.000 A 
ATOM      7  C   UNL     1       2.460   4.653  18.435  0.00  0.00    +0.000 A 
ATOM      8  C   UNL     1       3.240   5.555  17.714  0.00  0.00    +0.000 A 
ATOM      9  C   UNL     1       4.637   5.412  17.649  0.00  0.00    +0.000 A 
ATOM     10  C   UNL     1       5.437   6.382  16.823  0.00  0.00    +0.000 C 
ATOM     11  H   UNL     1       6.911   3.414  17.823  0.00  0.00    +0.000 HD
ENDROOT
BRANCH   1  13
ATOM     12  C   UNL     1       6.653   4.684  14.873  0.00  0.00    +0.000 C 
ATOM     13  O   UNL     1       7.456   5.605  15.586  0.00  0.00    +0.000 OA
ENDBRANCH   1  13
TORSDOF 1
ENDMDL
MODEL 3
REMARK VINA RESULT:      -5.8      1.740      1.930
REMARK  Name = 
REMARK  2 active torsions:
REMARK  status: ('A' for Active; 'I' for Inactive)
REMARK    1  A    between atoms: C_1  and  O_2
REMARK    2  A    between atoms: O_2  and  C_3
REMARK                            x       y       z     vdW  Elec       q    Type
REMARK                         _______ _______ _______ _____ _____    ______ ____
ROOT
ATOM      1  C   UNL     1       6.192   5.399  17.030  0.00  0.00    +0.000 C 
ATOM      2  C   UNL     1       6.354   5.280  18.548  0.00  0.00    +0.000 C 
ATOM      3  N   UNL     1       5.953   3.977  19.078  0.00  0.00    +0.000 N 
ATOM      4  C   UNL     1       4.690   3.534  18.654  0.00  0.00    +0.000 A 
ATOM      5  C   UNL     1       4.043   2.545  19.405  0.00  0.00    +0.000 A 
ATOM      6  C   UNL     1       2.771   2.093  19.059  0.00  0.00    +0.000 A 
ATOM      7  C   UNL     1       2.135   2.618  17.934  0.00  0.00    +0.000 A 
ATOM      8  C   UNL     1       2.796   3.555  17.142  0.00  0.00    +0.000 A 
ATOM      9  C   UNL     1       4.088   4.000  17.475  0.00  0.00    +0.000 A 
ATOM     10  C   UNL     1       4.783   4.980  16.569  0.00  0.00    +0.000 C 
ATOM     11  H   UNL     1       6.647   3.251  18.918  0.00  0.00    +0.000 HD
ENDROOT
BRANCH   1  13
ATOM     12  C   UNL     1       7.030   4.679  14.845  0.00  0.00    +0.000 C 
ATOM     13  O   UNL     1       7.249   4.844  16.234  0.00  0.00    +0.000 OA
ENDBRANCH   1  13
TORSDOF 1
ENDMDL
MODEL 4
REMARK VINA RESULT:      -5.8      1.567      1.623
REMARK  Name = 
REMARK  2 active torsions:
REMARK  status: ('A' for Active; 'I' for Inactive)
REMARK    1  A    between atoms: C_1  and  O_2
REMARK    2  A    between atoms: O_2  and  C_3
REMARK                            x       y       z     vdW  Elec       q    Type
REMARK                         _______ _______ _______ _____ _____    ______ ____
ROOT
ATOM      1  C   UNL     1       5.592   5.902  17.730  0.00  0.00    +0.000 C 
ATOM      2  C   UNL     1       6.020   5.069  18.941  0.00  0.00    +0.000 C 
ATOM      3  N   UNL     1       5.530   3.691  18.906  0.00  0.00    +0.000 N 
ATOM      4  C   UNL     1       4.156   3.563  18.648  0.00  0.00    +0.000 A 
ATOM      5  C   UNL     1       3.519   2.367  19.003  0.00  0.00    +0.000 A 
ATOM      6  C   UNL     1       2.150   2.195  18.809  0.00  0.00    +0.000 A 
ATOM      7  C   UNL     1       1.401   3.220  18.233  0.00  0.00    +0.000 A 
ATOM      8  C   UNL     1       2.035   4.389  17.816  0.00  0.00    +0.000 A 
ATOM      9  C   UNL     1       3.420   4.561  17.991  0.00  0.00    +0.000 A 
ATOM     10  C   UNL     1       4.073   5.819  17.486  0.00  0.00    +0.000 C 
ATOM     11  H   UNL     1       6.060   3.096  18.273  0.00  0.00    +0.000 HD
ENDROOT
BRANCH   1  13
ATOM     12  C   UNL     1       5.745   5.237  15.379  0.00  0.00    +0.000 C 
ATOM     13  O   UNL     1       6.377   5.743  16.540  0.00  0.00    +0.000 OA
ENDBRANCH   1  13
TORSDOF 1
ENDMDL
MODEL 5
REMARK VINA RESULT:      -5.7      1.529      1.585
REMARK  Name = 
REMARK  2 active torsions:
REMARK  status: ('A' for Active; 'I' for Inactive)
REMARK    1  A    between atoms: C_1  and  O_2
REMARK    2  A    between atoms: O_2  and  C_3
REMARK                            x       y       z     vdW  Elec       q    Type
REMARK                         _______ _______ _______ _____ _____    ______ ____
ROOT
ATOM      1  C   UNL     1       4.748   4.821  17.139  0.00  0.00    +0.000 C 
ATOM      2  C   UNL     1       4.590   5.950  18.162  0.00  0.00    +0.000 C 
ATOM      3  N   UNL     1       4.178   5.485  19.486  0.00  0.00    +0.000 N 
ATOM      4  C   UNL     1       3.069   4.624  19.487  0.00  0.00    +0.000 A 
ATOM      5  C   UNL     1       2.348   4.466  20.678  0.00  0.00    +0.000 A 
ATOM      6  C   UNL     1       1.215   3.657  20.732  0.00  0.00    +0.000 A 
ATOM      7  C   UNL     1       0.798   2.975  19.589  0.00  0.00    +0.000 A 
ATOM      8  C   UNL     1       1.545   3.073  18.417  0.00  0.00    +0.000 A 
ATOM      9  C   UNL     1       2.701   3.872  18.361  0.00  0.00    +0.000 A 
ATOM     10  C   UNL     1       3.503   3.915  17.089  0.00  0.00    +0.000 C 
ATOM     11  H   UNL     1       4.940   5.070  20.018  0.00  0.00    +0.000 HD
ENDROOT
BRANCH   1  13
ATOM     12  C   UNL     1       7.171   4.805  17.496  0.00  0.00    +0.000 C 
ATOM     13  O   UNL     1       5.987   4.098  17.179  0.00  0.00    +0.000 OA
ENDBRANCH   1  13
TORSDOF 1
ENDMDL
MODEL 6
REMARK VINA RESULT:      -5.7      2.121      4.254
REMARK  Name = 
REMARK  2 active torsions:
REMARK  status: ('A' for Active; 'I' for Inactive)
REMARK    1  A    between atoms: C_1  and  O_2
REMARK    2  A    between atoms: O_2  and  C_3
REMARK                            x       y       z     vdW  Elec       q    Type
REMARK                         _______ _______ _______ _____ _____    ______ ____
ROOT
ATOM      1  C   UNL     1       1.744   2.529  18.757  0.00  0.00    +0.000 C 
ATOM      2  C   UNL     1       2.860   2.066  17.817  0.00  0.00    +0.000 C 
ATOM      3  N   UNL     1       4.087   2.854  17.935  0.00  0.00    +0.000 N 
ATOM      4  C   UNL     1       3.901   4.244  17.875  0.00  0.00    +0.000 A 
ATOM      5  C   UNL     1       5.000   5.051  17.556  0.00  0.00    +0.000 A 
ATOM      6  C   UNL     1       4.870   6.434  17.442  0.00  0.00    +0.000 A 
ATOM      7  C   UNL     1       3.630   7.031  17.668  0.00  0.00    +0.000 A 
ATOM      8  C   UNL     1       2.545   6.245  18.050  0.00  0.00    +0.000 A 
ATOM      9  C   UNL     1       2.675   4.851  18.186  0.00  0.00    +0.000 A 
ATOM     10  C   UNL     1       1.489   4.044  18.643  0.00  0.00    +0.000 C 
ATOM     11  H   UNL     1       4.638   2.612  18.755  0.00  0.00    +0.000 HD
ENDROOT
BRANCH   1  13
ATOM     12  C   UNL     1       1.329   2.893  21.142  0.00  0.00    +0.000 C 
ATOM     13  O   UNL     1       1.817   2.057  20.110  0.00  0.00    +0.000 OA
ENDBRANCH   1  13
TORSDOF 1
ENDMDL
MODEL 7
REMARK VINA RESULT:      -5.7      1.999      2.184
REMARK  Name = 
REMARK  2 active torsions:
REMARK  status: ('A' for Active; 'I' for Inactive)
REMARK    1  A    between atoms: C_1  and  O_2
REMARK    2  A    between atoms: O_2  and  C_3
REMARK                            x       y       z     vdW  Elec       q    Type
REMARK                         _______ _______ _______ _____ _____    ______ ____
ROOT
ATOM      1  C   UNL     1       5.833   5.771  16.549  0.00  0.00    +0.000 C 
ATOM      2  C   UNL     1       6.320   4.449  17.147  0.00  0.00    +0.000 C 
ATOM      3  N   UNL     1       5.360   3.354  17.003  0.00  0.00    +0.000 N 
ATOM      4  C   UNL     1       4.054   3.660  17.416  0.00  0.00    +0.000 A 
ATOM      5  C   UNL     1       3.184   2.604  17.717  0.00  0.00    +0.000 A 
ATOM      6  C   UNL     1       1.889   2.844  18.170  0.00  0.00    +0.000 A 
ATOM      7  C   UNL     1       1.438   4.156  18.308  0.00  0.00    +0.000 A 
ATOM      8  C   UNL     1       2.273   5.214  17.949  0.00  0.00    +0.000 A 
ATOM      9  C   UNL     1       3.574   4.977  17.473  0.00  0.00    +0.000 A 
ATOM     10  C   UNL     1       4.427   6.145  17.055  0.00  0.00    +0.000 C 
ATOM     11  H   UNL     1       5.345   2.958  16.066  0.00  0.00    +0.000 HD
ENDROOT
BRANCH   1  13
ATOM     12  C   UNL     1       6.835   5.014  14.448  0.00  0.00    +0.000 C 
ATOM     13  O   UNL     1       5.997   5.926  15.132  0.00  0.00    +0.000 OA
ENDBRANCH   1  13
TORSDOF 1
ENDMDL
MODEL 8
REMARK VINA RESULT:      -5.7      2.410      4.528
REMARK  Name = 
REMARK  2 active torsions:
REMARK  status: ('A' for Active; 'I' for Inactive)
REMARK    1  A    between atoms: C_1  and  O_2
REMARK    2  A    between atoms: O_2  and  C_3
REMARK                            x       y       z     vdW  Elec       q    Type
REMARK                         _______ _______ _______ _____ _____    ______ ____
ROOT
ATOM      1  C   UNL     1       0.806   3.168  19.925  0.00  0.00    +0.000 C 
ATOM      2  C   UNL     1       0.869   2.265  18.691  0.00  0.00    +0.000 C 
ATOM      3  N   UNL     1       2.210   2.149  18.119  0.00  0.00    +0.000 N 
ATOM      4  C   UNL     1       2.863   3.373  17.900  0.00  0.00    +0.000 A 
ATOM      5  C   UNL     1       3.931   3.407  16.995  0.00  0.00    +0.000 A 
ATOM      6  C   UNL     1       4.592   4.599  16.706  0.00  0.00    +0.000 A 
ATOM      7  C   UNL     1       4.200   5.777  17.340  0.00  0.00    +0.000 A 
ATOM      8  C   UNL     1       3.181   5.743  18.290  0.00  0.00    +0.000 A 
ATOM      9  C   UNL     1       2.524   4.540  18.602  0.00  0.00    +0.000 A 
ATOM     10  C   UNL     1       1.460   4.539  19.666  0.00  0.00    +0.000 C 
ATOM     11  H   UNL     1       2.815   1.523  18.645  0.00  0.00    +0.000 HD
ENDROOT
BRANCH   1  13
ATOM     12  C   UNL     1       2.495   2.827  21.664  0.00  0.00    +0.000 C 
ATOM     13  O   UNL     1       1.194   2.571  21.171  0.00  0.00    +0.000 OA
ENDBRANCH   1  13
TORSDOF 1
ENDMDL
MODEL 9
REMARK VINA RESULT:      -5.7      2.145      4.122
REMARK  Name = 
REMARK  2 active torsions:
REMARK  status: ('A' for Active; 'I' for Inactive)
REMARK    1  A    between atoms: C_1  and  O_2
REMARK    2  A    between atoms: O_2  and  C_3
REMARK                            x       y       z     vdW  Elec       q    Type
REMARK                         _______ _______ _______ _____ _____    ______ ____
ROOT
ATOM      1  C   UNL     1       1.988   2.494  18.379  0.00  0.00    +0.000 C 
ATOM      2  C   UNL     1       3.331   1.766  18.274  0.00  0.00    +0.000 C 
ATOM      3  N   UNL     1       4.448   2.513  18.853  0.00  0.00    +0.000 N 
ATOM      4  C   UNL     1       4.546   3.847  18.426  0.00  0.00    +0.000 A 
ATOM      5  C   UNL     1       5.773   4.506  18.572  0.00  0.00    +0.000 A 
ATOM      6  C   UNL     1       5.944   5.816  18.131  0.00  0.00    +0.000 A 
ATOM      7  C   UNL     1       4.873   6.495  17.552  0.00  0.00    +0.000 A 
ATOM      8  C   UNL     1       3.629   5.872  17.461  0.00  0.00    +0.000 A 
ATOM      9  C   UNL     1       3.445   4.557  17.923  0.00  0.00    +0.000 A 
ATOM     10  C   UNL     1       2.076   3.937  17.846  0.00  0.00    +0.000 C 
ATOM     11  H   UNL     1       4.471   2.471  19.869  0.00  0.00    +0.000 HD
ENDROOT
BRANCH   1  13
ATOM     12  C   UNL     1       1.053   3.564  20.372  0.00  0.00    +0.000 C 
ATOM     13  O   UNL     1       1.302   2.383  19.634  0.00  0.00    +0.000 OA
ENDBRANCH   1  13
TORSDOF 1
ENDMDL
