MODEL 1
REMARK VINA RESULT:      -6.9      0.000      0.000
REMARK  Name = 
REMARK  7 active torsions:
REMARK  status: ('A' for Active; 'I' for Inactive)
REMARK    1  A    between atoms: C_1  and  C_2
REMARK    2  A    between atoms: N_4  and  C_5
REMARK    3  A    between atoms: N_10  and  C_11
REMARK    4  A    between atoms: C_11  and  C_12
REMARK    5  A    between atoms: C_11  and  C_18
REMARK    6  A    between atoms: C_24  and  N_25
REMARK    7  A    between atoms: C_29  and  C_30
REMARK                            x       y       z     vdW  Elec       q    Type
REMARK                         _______ _______ _______ _____ _____    ______ ____
ROOT
ATOM      1  C   UNL     1      -4.293  12.265  19.314  0.00  0.00    +0.000 A 
ATOM      2  N   UNL     1      -4.517  11.744  18.091  0.00  0.00    +0.000 NA
ATOM      3  C   UNL     1      -3.478  11.166  17.471  0.00  0.00    +0.000 A 
ATOM      4  N   UNL     1      -2.233  11.039  17.954  0.00  0.00    +0.000 NA
ATOM      5  C   UNL     1      -1.989  11.556  19.168  0.00  0.00    +0.000 A 
ATOM      6  N   UNL     1      -0.712  11.433  19.680  0.00  0.00    +0.000 N 
ATOM      7  C   UNL     1      -3.013  12.201  19.852  0.00  0.00    +0.000 A 
ATOM      8  H   UNL     1      -0.547  11.574  20.669  0.00  0.00    +0.000 HD
ENDROOT
BRANCH   1  12
ATOM      9  C   UNL     1      -5.380  15.806  20.646  0.00  0.00    +0.000 C 
ATOM     10  C   UNL     1      -6.578  14.971  20.188  0.00  0.00    +0.000 C 
ATOM     11  C   UNL     1      -6.149  13.876  19.185  0.00  0.00    +0.000 C 
ATOM     12  N   UNL     1      -5.355  12.892  19.931  0.00  0.00    +0.000 N 
ATOM     13  C   UNL     1      -6.140  12.245  20.992  0.00  0.00    +0.000 C 
ATOM     14  C   UNL     1      -6.599  13.343  21.980  0.00  0.00    +0.000 C 
ATOM     15  C   UNL     1      -7.536  12.764  23.033  0.00  0.00    +0.000 C 
ATOM     16  O   UNL     1      -7.303  14.410  21.306  0.00  0.00    +0.000 OA
ENDBRANCH   1  12
BRANCH   7  17
ATOM     17  N   UNL     1      -2.691  12.935  21.036  0.00  0.00    +0.000 N 
ATOM     18  O   UNL     1      -2.808  12.366  22.129  0.00  0.00    +0.000 OA
ATOM     19  O   UNL     1      -2.343  14.113  20.888  0.00  0.00    +0.000 OA
ENDBRANCH   7  17
BRANCH   6  20
ATOM     20  C   UNL     1       0.462  11.256  18.838  0.00  0.00    +0.000 C 
BRANCH  20  21
ATOM     21  C   UNL     1       1.424  12.403  19.162  0.00  0.00    +0.000 A 
ATOM     22  C   UNL     1       2.295  12.927  18.188  0.00  0.00    +0.000 A 
ATOM     23  C   UNL     1       3.223  13.915  18.521  0.00  0.00    +0.000 A 
ATOM     24  C   UNL     1       3.288  14.399  19.826  0.00  0.00    +0.000 A 
ATOM     25  C   UNL     1       2.401  13.922  20.791  0.00  0.00    +0.000 A 
ATOM     26  C   UNL     1       1.474  12.932  20.462  0.00  0.00    +0.000 A 
ENDBRANCH  20  21
BRANCH  20  27
ATOM     27  C   UNL     1       1.105   9.877  19.023  0.00  0.00    +0.000 A 
ATOM     28  C   UNL     1       1.062   9.166  20.235  0.00  0.00    +0.000 A 
ATOM     29  C   UNL     1       1.667   7.912  20.354  0.00  0.00    +0.000 A 
ATOM     30  C   UNL     1       2.306   7.334  19.258  0.00  0.00    +0.000 A 
ATOM     31  C   UNL     1       2.326   8.002  18.038  0.00  0.00    +0.000 A 
ATOM     32  C   UNL     1       1.725   9.255  17.920  0.00  0.00    +0.000 A 
ENDBRANCH  20  27
ENDBRANCH   6  20
TORSDOF 5
ENDMDL
MODEL 2
REMARK VINA RESULT:      -6.7      3.855      7.300
REMARK  Name = 
REMARK  7 active torsions:
REMARK  status: ('A' for Active; 'I' for Inactive)
REMARK    1  A    between atoms: C_1  and  C_2
REMARK    2  A    between atoms: N_4  and  C_5
REMARK    3  A    between atoms: N_10  and  C_11
REMARK    4  A    between atoms: C_11  and  C_12
REMARK    5  A    between atoms: C_11  and  C_18
REMARK    6  A    between atoms: C_24  and  N_25
REMARK    7  A    between atoms: C_29  and  C_30
REMARK                            x       y       z     vdW  Elec       q    Type
REMARK                         _______ _______ _______ _____ _____    ______ ____
ROOT
ATOM      1  C   UNL     1       0.518   9.406  20.023  0.00  0.00    +0.000 A 
ATOM      2  N   UNL     1       0.331   9.035  21.306  0.00  0.00    +0.000 NA
ATOM      3  C   UNL     1       1.108   8.050  21.780  0.00  0.00    +0.000 A 
ATOM      4  N   UNL     1       2.071   7.402  21.106  0.00  0.00    +0.000 NA
ATOM      5  C   UNL     1       2.270   7.754  19.826  0.00  0.00    +0.000 A 
ATOM      6  N   UNL     1       3.257   7.097  19.120  0.00  0.00    +0.000 N 
ATOM      7  C   UNL     1       1.473   8.744  19.261  0.00  0.00    +0.000 A 
ATOM      8  H   UNL     1       3.609   7.490  18.256  0.00  0.00    +0.000 HD
ENDROOT
BRANCH   1  12
ATOM      9  C   UNL     1      -1.840  10.148  16.961  0.00  0.00    +0.000 C 
ATOM     10  C   UNL     1      -2.301  10.871  18.229  0.00  0.00    +0.000 C 
ATOM     11  C   UNL     1      -1.761  10.174  19.500  0.00  0.00    +0.000 C 
ATOM     12  N   UNL     1      -0.309  10.393  19.530  0.00  0.00    +0.000 N 
ATOM     13  C   UNL     1       0.028  11.820  19.624  0.00  0.00    +0.000 C 
ATOM     14  C   UNL     1      -0.541  12.526  18.371  0.00  0.00    +0.000 C 
ATOM     15  C   UNL     1      -0.348  14.035  18.468  0.00  0.00    +0.000 C 
ATOM     16  O   UNL     1      -1.954  12.274  18.208  0.00  0.00    +0.000 OA
ENDBRANCH   1  12
BRANCH   7  17
ATOM     17  N   UNL     1       1.542   8.955  17.848  0.00  0.00    +0.000 N 
ATOM     18  O   UNL     1       0.948   8.162  17.107  0.00  0.00    +0.000 OA
ATOM     19  O   UNL     1       2.227   9.908  17.457  0.00  0.00    +0.000 OA
ENDBRANCH   7  17
BRANCH   6  20
ATOM     20  C   UNL     1       3.727   5.766  19.473  0.00  0.00    +0.000 C 
BRANCH  20  21
ATOM     21  C   UNL     1       2.555   4.803  19.260  0.00  0.00    +0.000 A 
ATOM     22  C   UNL     1       2.052   4.016  20.312  0.00  0.00    +0.000 A 
ATOM     23  C   UNL     1       1.039   3.083  20.081  0.00  0.00    +0.000 A 
ATOM     24  C   UNL     1       0.508   2.933  18.802  0.00  0.00    +0.000 A 
ATOM     25  C   UNL     1       0.965   3.737  17.759  0.00  0.00    +0.000 A 
ATOM     26  C   UNL     1       1.981   4.668  17.985  0.00  0.00    +0.000 A 
ENDBRANCH  20  21
BRANCH  20  27
ATOM     27  C   UNL     1       4.974   5.362  18.677  0.00  0.00    +0.000 A 
ATOM     28  C   UNL     1       4.926   4.938  17.339  0.00  0.00    +0.000 A 
ATOM     29  C   UNL     1       6.093   4.577  16.658  0.00  0.00    +0.000 A 
ATOM     30  C   UNL     1       7.330   4.656  17.294  0.00  0.00    +0.000 A 
ATOM     31  C   UNL     1       7.405   5.111  18.606  0.00  0.00    +0.000 A 
ATOM     32  C   UNL     1       6.241   5.468  19.286  0.00  0.00    +0.000 A 
ENDBRANCH  20  27
ENDBRANCH   6  20
TORSDOF 5
ENDMDL
MODEL 3
REMARK VINA RESULT:      -6.6      1.213      1.479
REMARK  Name = 
REMARK  7 active torsions:
REMARK  status: ('A' for Active; 'I' for Inactive)
REMARK    1  A    between atoms: C_1  and  C_2
REMARK    2  A    between atoms: N_4  and  C_5
REMARK    3  A    between atoms: N_10  and  C_11
REMARK    4  A    between atoms: C_11  and  C_12
REMARK    5  A    between atoms: C_11  and  C_18
REMARK    6  A    between atoms: C_24  and  N_25
REMARK    7  A    between atoms: C_29  and  C_30
REMARK                            x       y       z     vdW  Elec       q    Type
REMARK                         _______ _______ _______ _____ _____    ______ ____
ROOT
ATOM      1  C   UNL     1      -3.916  12.799  20.628  0.00  0.00    +0.000 A 
ATOM      2  N   UNL     1      -4.418  12.471  19.421  0.00  0.00    +0.000 NA
ATOM      3  C   UNL     1      -3.590  11.873  18.553  0.00  0.00    +0.000 A 
ATOM      4  N   UNL     1      -2.306  11.549  18.772  0.00  0.00    +0.000 NA
ATOM      5  C   UNL     1      -1.786  11.871  19.967  0.00  0.00    +0.000 A 
ATOM      6  N   UNL     1      -0.466  11.545  20.208  0.00  0.00    +0.000 N 
ATOM      7  C   UNL     1      -2.581  12.527  20.901  0.00  0.00    +0.000 A 
ATOM      8  H   UNL     1      -0.112  11.535  21.156  0.00  0.00    +0.000 HD
ENDROOT
BRANCH   1  12
ATOM      9  C   UNL     1      -3.825  15.407  23.575  0.00  0.00    +0.000 C 
ATOM     10  C   UNL     1      -5.140  15.468  22.793  0.00  0.00    +0.000 C 
ATOM     11  C   UNL     1      -4.972  14.896  21.367  0.00  0.00    +0.000 C 
ATOM     12  N   UNL     1      -4.762  13.449  21.503  0.00  0.00    +0.000 N 
ATOM     13  C   UNL     1      -5.916  12.782  22.120  0.00  0.00    +0.000 C 
ATOM     14  C   UNL     1      -6.108  13.377  23.536  0.00  0.00    +0.000 C 
ATOM     15  C   UNL     1      -7.373  12.830  24.184  0.00  0.00    +0.000 C 
ATOM     16  O   UNL     1      -6.219  14.817  23.501  0.00  0.00    +0.000 OA
ENDBRANCH   1  12
BRANCH   7  17
ATOM     17  N   UNL     1      -1.961  13.058  22.075  0.00  0.00    +0.000 N 
ATOM     18  O   UNL     1      -1.339  14.124  21.979  0.00  0.00    +0.000 OA
ATOM     19  O   UNL     1      -2.062  12.392  23.112  0.00  0.00    +0.000 OA
ENDBRANCH   7  17
BRANCH   6  20
ATOM     20  C   UNL     1       0.507  11.356  19.143  0.00  0.00    +0.000 C 
BRANCH  20  21
ATOM     21  C   UNL     1       1.554  12.464  19.288  0.00  0.00    +0.000 A 
ATOM     22  C   UNL     1       2.218  12.997  18.168  0.00  0.00    +0.000 A 
ATOM     23  C   UNL     1       3.229  13.948  18.325  0.00  0.00    +0.000 A 
ATOM     24  C   UNL     1       3.580  14.386  19.600  0.00  0.00    +0.000 A 
ATOM     25  C   UNL     1       2.900  13.902  20.716  0.00  0.00    +0.000 A 
ATOM     26  C   UNL     1       1.892  12.948  20.563  0.00  0.00    +0.000 A 
ENDBRANCH  20  21
BRANCH  20  27
ATOM     27  C   UNL     1       1.126   9.954  19.167  0.00  0.00    +0.000 A 
ATOM     28  C   UNL     1       1.164   9.150  20.319  0.00  0.00    +0.000 A 
ATOM     29  C   UNL     1       1.744   7.879  20.290  0.00  0.00    +0.000 A 
ATOM     30  C   UNL     1       2.276   7.377  19.104  0.00  0.00    +0.000 A 
ATOM     31  C   UNL     1       2.214   8.139  17.942  0.00  0.00    +0.000 A 
ATOM     32  C   UNL     1       1.638   9.409  17.971  0.00  0.00    +0.000 A 
ENDBRANCH  20  27
ENDBRANCH   6  20
TORSDOF 5
ENDMDL
MODEL 4
REMARK VINA RESULT:      -6.6      0.884      1.384
REMARK  Name = 
REMARK  7 active torsions:
REMARK  status: ('A' for Active; 'I' for Inactive)
REMARK    1  A    between atoms: C_1  and  C_2
REMARK    2  A    between atoms: N_4  and  C_5
REMARK    3  A    between atoms: N_10  and  C_11
REMARK    4  A    between atoms: C_11  and  C_12
REMARK    5  A    between atoms: C_11  and  C_18
REMARK    6  A    between atoms: C_24  and  N_25
REMARK    7  A    between atoms: C_29  and  C_30
REMARK                            x       y       z     vdW  Elec       q    Type
REMARK                         _______ _______ _______ _____ _____    ______ ____
ROOT
ATOM      1  C   UNL     1      -4.708  12.613  19.762  0.00  0.00    +0.000 A 
ATOM      2  N   UNL     1      -5.118  12.092  18.588  0.00  0.00    +0.000 NA
ATOM      3  C   UNL     1      -4.195  11.478  17.834  0.00  0.00    +0.000 A 
ATOM      4  N   UNL     1      -2.899  11.314  18.138  0.00  0.00    +0.000 NA
ATOM      5  C   UNL     1      -2.470  11.829  19.301  0.00  0.00    +0.000 A 
ATOM      6  N   UNL     1      -1.139  11.668  19.630  0.00  0.00    +0.000 N 
ATOM      7  C   UNL     1      -3.368  12.511  20.116  0.00  0.00    +0.000 A 
ATOM      8  H   UNL     1      -0.832  11.809  20.584  0.00  0.00    +0.000 HD
ENDROOT
BRANCH   1  12
ATOM      9  C   UNL     1      -5.378  16.135  21.385  0.00  0.00    +0.000 C 
ATOM     10  C   UNL     1      -6.677  15.420  21.007  0.00  0.00    +0.000 C 
ATOM     11  C   UNL     1      -6.435  14.360  19.907  0.00  0.00    +0.000 C 
ATOM     12  N   UNL     1      -5.653  13.277  20.516  0.00  0.00    +0.000 N 
ATOM     13  C   UNL     1      -6.380  12.625  21.614  0.00  0.00    +0.000 C 
ATOM     14  C   UNL     1      -6.654  13.692  22.701  0.00  0.00    +0.000 C 
ATOM     15  C   UNL     1      -7.527  13.119  23.811  0.00  0.00    +0.000 C 
ATOM     16  O   UNL     1      -7.333  14.846  22.160  0.00  0.00    +0.000 OA
ENDBRANCH   1  12
BRANCH   7  17
ATOM     17  N   UNL     1      -2.859  13.241  21.235  0.00  0.00    +0.000 N 
ATOM     18  O   UNL     1      -2.433  14.387  21.044  0.00  0.00    +0.000 OA
ATOM     19  O   UNL     1      -2.849  12.657  22.326  0.00  0.00    +0.000 OA
ENDBRANCH   7  17
BRANCH   6  20
ATOM     20  C   UNL     1      -0.101  11.450  18.633  0.00  0.00    +0.000 C 
BRANCH  20  21
ATOM     21  C   UNL     1       0.802  12.686  18.644  0.00  0.00    +0.000 A 
ATOM     22  C   UNL     1       2.199  12.576  18.517  0.00  0.00    +0.000 A 
ATOM     23  C   UNL     1       3.014  13.705  18.613  0.00  0.00    +0.000 A 
ATOM     24  C   UNL     1       2.445  14.959  18.825  0.00  0.00    +0.000 A 
ATOM     25  C   UNL     1       1.059  15.091  18.908  0.00  0.00    +0.000 A 
ATOM     26  C   UNL     1       0.242  13.963  18.816  0.00  0.00    +0.000 A 
ENDBRANCH  20  21
BRANCH  20  27
ATOM     27  C   UNL     1       0.675  10.151  18.881  0.00  0.00    +0.000 A 
ATOM     28  C   UNL     1       1.372   9.467  17.871  0.00  0.00    +0.000 A 
ATOM     29  C   UNL     1       2.062   8.284  18.148  0.00  0.00    +0.000 A 
ATOM     30  C   UNL     1       2.087   7.773  19.445  0.00  0.00    +0.000 A 
ATOM     31  C   UNL     1       1.438   8.455  20.468  0.00  0.00    +0.000 A 
ATOM     32  C   UNL     1       0.747   9.634  20.191  0.00  0.00    +0.000 A 
ENDBRANCH  20  27
ENDBRANCH   6  20
TORSDOF 5
ENDMDL
MODEL 5
REMARK VINA RESULT:      -6.4      3.774      7.071
REMARK  Name = 
REMARK  7 active torsions:
REMARK  status: ('A' for Active; 'I' for Inactive)
REMARK    1  A    between atoms: C_1  and  C_2
REMARK    2  A    between atoms: N_4  and  C_5
REMARK    3  A    between atoms: N_10  and  C_11
REMARK    4  A    between atoms: C_11  and  C_12
REMARK    5  A    between atoms: C_11  and  C_18
REMARK    6  A    between atoms: C_24  and  N_25
REMARK    7  A    between atoms: C_29  and  C_30
REMARK                            x       y       z     vdW  Elec       q    Type
REMARK                         _______ _______ _______ _____ _____    ______ ____
ROOT
ATOM      1  C   UNL     1       0.430   9.434  19.958  0.00  0.00    +0.000 A 
ATOM      2  N   UNL     1       0.202   9.050  21.231  0.00  0.00    +0.000 NA
ATOM      3  C   UNL     1       0.973   8.070  21.724  0.00  0.00    +0.000 A 
ATOM      4  N   UNL     1       1.966   7.439  21.080  0.00  0.00    +0.000 NA
ATOM      5  C   UNL     1       2.206   7.804  19.811  0.00  0.00    +0.000 A 
ATOM      6  N   UNL     1       3.226   7.164  19.134  0.00  0.00    +0.000 N 
ATOM      7  C   UNL     1       1.419   8.790  19.225  0.00  0.00    +0.000 A 
ATOM      8  H   UNL     1       3.604   7.568  18.287  0.00  0.00    +0.000 HD
ENDROOT
BRANCH   1  12
ATOM      9  C   UNL     1      -1.791  12.464  21.131  0.00  0.00    +0.000 C 
ATOM     10  C   UNL     1      -1.226  12.677  19.724  0.00  0.00    +0.000 C 
ATOM     11  C   UNL     1       0.040  11.819  19.493  0.00  0.00    +0.000 C 
ATOM     12  N   UNL     1      -0.391  10.416  19.444  0.00  0.00    +0.000 N 
ATOM     13  C   UNL     1      -1.313  10.164  18.328  0.00  0.00    +0.000 C 
ATOM     14  C   UNL     1      -2.566  11.046  18.539  0.00  0.00    +0.000 C 
ATOM     15  C   UNL     1      -3.508  10.940  17.346  0.00  0.00    +0.000 C 
ATOM     16  O   UNL     1      -2.220  12.439  18.702  0.00  0.00    +0.000 OA
ENDBRANCH   1  12
BRANCH   7  17
ATOM     17  N   UNL     1       1.536   9.013  17.818  0.00  0.00    +0.000 N 
ATOM     18  O   UNL     1       0.966   8.227  17.049  0.00  0.00    +0.000 OA
ATOM     19  O   UNL     1       2.234   9.969  17.459  0.00  0.00    +0.000 OA
ENDBRANCH   7  17
BRANCH   6  20
ATOM     20  C   UNL     1       3.699   5.835  19.494  0.00  0.00    +0.000 C 
BRANCH  20  21
ATOM     21  C   UNL     1       2.531   4.868  19.278  0.00  0.00    +0.000 A 
ATOM     22  C   UNL     1       2.007   4.103  20.336  0.00  0.00    +0.000 A 
ATOM     23  C   UNL     1       0.998   3.166  20.106  0.00  0.00    +0.000 A 
ATOM     24  C   UNL     1       0.493   2.989  18.820  0.00  0.00    +0.000 A 
ATOM     25  C   UNL     1       0.970   3.772  17.769  0.00  0.00    +0.000 A 
ATOM     26  C   UNL     1       1.981   4.707  17.996  0.00  0.00    +0.000 A 
ENDBRANCH  20  21
BRANCH  20  27
ATOM     27  C   UNL     1       4.950   5.434  18.704  0.00  0.00    +0.000 A 
ATOM     28  C   UNL     1       4.916   5.054  17.352  0.00  0.00    +0.000 A 
ATOM     29  C   UNL     1       6.086   4.693  16.677  0.00  0.00    +0.000 A 
ATOM     30  C   UNL     1       7.314   4.727  17.335  0.00  0.00    +0.000 A 
ATOM     31  C   UNL     1       7.377   5.138  18.662  0.00  0.00    +0.000 A 
ATOM     32  C   UNL     1       6.209   5.496  19.336  0.00  0.00    +0.000 A 
ENDBRANCH  20  27
ENDBRANCH   6  20
TORSDOF 5
ENDMDL
MODEL 6
REMARK VINA RESULT:      -6.4      3.891      7.285
REMARK  Name = 
REMARK  7 active torsions:
REMARK  status: ('A' for Active; 'I' for Inactive)
REMARK    1  A    between atoms: C_1  and  C_2
REMARK    2  A    between atoms: N_4  and  C_5
REMARK    3  A    between atoms: N_10  and  C_11
REMARK    4  A    between atoms: C_11  and  C_12
REMARK    5  A    between atoms: C_11  and  C_18
REMARK    6  A    between atoms: C_24  and  N_25
REMARK    7  A    between atoms: C_29  and  C_30
REMARK                            x       y       z     vdW  Elec       q    Type
REMARK                         _______ _______ _______ _____ _____    ______ ____
ROOT
ATOM      1  C   UNL     1       0.594   9.367  20.026  0.00  0.00    +0.000 A 
ATOM      2  N   UNL     1       0.424   9.003  21.312  0.00  0.00    +0.000 NA
ATOM      3  C   UNL     1       1.207   8.022  21.782  0.00  0.00    +0.000 A 
ATOM      4  N   UNL     1       2.163   7.372  21.100  0.00  0.00    +0.000 NA
ATOM      5  C   UNL     1       2.346   7.717  19.816  0.00  0.00    +0.000 A 
ATOM      6  N   UNL     1       3.325   7.057  19.101  0.00  0.00    +0.000 N 
ATOM      7  C   UNL     1       1.541   8.703  19.255  0.00  0.00    +0.000 A 
ATOM      8  H   UNL     1       3.666   7.446  18.231  0.00  0.00    +0.000 HD
ENDROOT
BRANCH   1  12
ATOM      9  C   UNL     1      -1.813  10.085  16.996  0.00  0.00    +0.000 C 
ATOM     10  C   UNL     1      -2.253  10.818  18.265  0.00  0.00    +0.000 C 
ATOM     11  C   UNL     1      -1.692  10.132  19.533  0.00  0.00    +0.000 C 
ATOM     12  N   UNL     1      -0.240  10.351  19.537  0.00  0.00    +0.000 N 
ATOM     13  C   UNL     1       0.099  11.778  19.614  0.00  0.00    +0.000 C 
ATOM     14  C   UNL     1      -0.490  12.474  18.363  0.00  0.00    +0.000 C 
ATOM     15  C   UNL     1      -0.295  13.983  18.444  0.00  0.00    +0.000 C 
ATOM     16  O   UNL     1      -1.905  12.221  18.226  0.00  0.00    +0.000 OA
ENDBRANCH   1  12
BRANCH   7  17
ATOM     17  N   UNL     1       1.592   8.906  17.841  0.00  0.00    +0.000 N 
ATOM     18  O   UNL     1       2.248   9.864  17.409  0.00  0.00    +0.000 OA
ATOM     19  O   UNL     1       0.944   8.122  17.139  0.00  0.00    +0.000 OA
ENDBRANCH   7  17
BRANCH   6  20
ATOM     20  C   UNL     1       3.801   5.729  19.456  0.00  0.00    +0.000 C 
BRANCH  20  21
ATOM     21  C   UNL     1       2.662   4.748  19.161  0.00  0.00    +0.000 A 
ATOM     22  C   UNL     1       2.061   4.682  17.891  0.00  0.00    +0.000 A 
ATOM     23  C   UNL     1       0.970   3.842  17.662  0.00  0.00    +0.000 A 
ATOM     24  C   UNL     1       0.472   3.051  18.695  0.00  0.00    +0.000 A 
ATOM     25  C   UNL     1       1.085   3.072  19.947  0.00  0.00    +0.000 A 
ATOM     26  C   UNL     1       2.174   3.913  20.180  0.00  0.00    +0.000 A 
ENDBRANCH  20  21
BRANCH  20  27
ATOM     27  C   UNL     1       5.097   5.364  18.722  0.00  0.00    +0.000 A 
ATOM     28  C   UNL     1       6.370   5.482  19.306  0.00  0.00    +0.000 A 
ATOM     29  C   UNL     1       7.522   5.139  18.593  0.00  0.00    +0.000 A 
ATOM     30  C   UNL     1       7.423   4.651  17.291  0.00  0.00    +0.000 A 
ATOM     31  C   UNL     1       6.171   4.488  16.708  0.00  0.00    +0.000 A 
ATOM     32  C   UNL     1       5.022   4.833  17.418  0.00  0.00    +0.000 A 
ENDBRANCH  20  27
ENDBRANCH   6  20
TORSDOF 5
ENDMDL
MODEL 7
REMARK VINA RESULT:      -6.4      1.089      1.474
REMARK  Name = 
REMARK  7 active torsions:
REMARK  status: ('A' for Active; 'I' for Inactive)
REMARK    1  A    between atoms: C_1  and  C_2
REMARK    2  A    between atoms: N_4  and  C_5
REMARK    3  A    between atoms: N_10  and  C_11
REMARK    4  A    between atoms: C_11  and  C_12
REMARK    5  A    between atoms: C_11  and  C_18
REMARK    6  A    between atoms: C_24  and  N_25
REMARK    7  A    between atoms: C_29  and  C_30
REMARK                            x       y       z     vdW  Elec       q    Type
REMARK                         _______ _______ _______ _____ _____    ______ ____
ROOT
ATOM      1  C   UNL     1      -4.308  11.322  18.331  0.00  0.00    +0.000 A 
ATOM      2  N   UNL     1      -4.308  10.590  17.198  0.00  0.00    +0.000 NA
ATOM      3  C   UNL     1      -3.138  10.065  16.808  0.00  0.00    +0.000 A 
ATOM      4  N   UNL     1      -1.961  10.181  17.442  0.00  0.00    +0.000 NA
ATOM      5  C   UNL     1      -1.940  10.909  18.570  0.00  0.00    +0.000 A 
ATOM      6  N   UNL     1      -0.737  11.038  19.235  0.00  0.00    +0.000 N 
ATOM      7  C   UNL     1      -3.112  11.513  19.012  0.00  0.00    +0.000 A 
ATOM      8  H   UNL     1      -0.721  11.353  20.197  0.00  0.00    +0.000 HD
ENDROOT
BRANCH   1  12
ATOM      9  C   UNL     1      -6.044  14.842  18.621  0.00  0.00    +0.000 C 
ATOM     10  C   UNL     1      -7.053  13.725  18.344  0.00  0.00    +0.000 C 
ATOM     11  C   UNL     1      -6.370  12.502  17.689  0.00  0.00    +0.000 C 
ATOM     12  N   UNL     1      -5.506  11.891  18.708  0.00  0.00    +0.000 N 
ATOM     13  C   UNL     1      -6.276  11.409  19.862  0.00  0.00    +0.000 C 
ATOM     14  C   UNL     1      -6.988  12.626  20.500  0.00  0.00    +0.000 C 
ATOM     15  C   UNL     1      -7.917  12.180  21.623  0.00  0.00    +0.000 C 
ATOM     16  O   UNL     1      -7.783  13.349  19.534  0.00  0.00    +0.000 OA
ENDBRANCH   1  12
BRANCH   7  17
ATOM     17  N   UNL     1      -3.033  12.459  20.081  0.00  0.00    +0.000 N 
ATOM     18  O   UNL     1      -3.311  12.077  21.225  0.00  0.00    +0.000 OA
ATOM     19  O   UNL     1      -2.722  13.618  19.781  0.00  0.00    +0.000 OA
ENDBRANCH   7  17
BRANCH   6  20
ATOM     20  C   UNL     1       0.551  10.889  18.573  0.00  0.00    +0.000 C 
BRANCH  20  21
ATOM     21  C   UNL     1       1.422  12.069  19.012  0.00  0.00    +0.000 A 
ATOM     22  C   UNL     1       1.329  12.608  20.309  0.00  0.00    +0.000 A 
ATOM     23  C   UNL     1       2.070  13.736  20.666  0.00  0.00    +0.000 A 
ATOM     24  C   UNL     1       2.921  14.333  19.738  0.00  0.00    +0.000 A 
ATOM     25  C   UNL     1       3.058  13.784  18.464  0.00  0.00    +0.000 A 
ATOM     26  C   UNL     1       2.316  12.658  18.102  0.00  0.00    +0.000 A 
ENDBRANCH  20  21
BRANCH  20  27
ATOM     27  C   UNL     1       1.201   9.533  18.873  0.00  0.00    +0.000 A 
ATOM     28  C   UNL     1       1.149   8.919  20.136  0.00  0.00    +0.000 A 
ATOM     29  C   UNL     1       1.762   7.682  20.359  0.00  0.00    +0.000 A 
ATOM     30  C   UNL     1       2.417   7.026  19.319  0.00  0.00    +0.000 A 
ATOM     31  C   UNL     1       2.446   7.596  18.051  0.00  0.00    +0.000 A 
ATOM     32  C   UNL     1       1.838   8.831  17.829  0.00  0.00    +0.000 A 
ENDBRANCH  20  27
ENDBRANCH   6  20
TORSDOF 5
ENDMDL
MODEL 8
REMARK VINA RESULT:      -6.4      1.384      2.232
REMARK  Name = 
REMARK  7 active torsions:
REMARK  status: ('A' for Active; 'I' for Inactive)
REMARK    1  A    between atoms: C_1  and  C_2
REMARK    2  A    between atoms: N_4  and  C_5
REMARK    3  A    between atoms: N_10  and  C_11
REMARK    4  A    between atoms: C_11  and  C_12
REMARK    5  A    between atoms: C_11  and  C_18
REMARK    6  A    between atoms: C_24  and  N_25
REMARK    7  A    between atoms: C_29  and  C_30
REMARK                            x       y       z     vdW  Elec       q    Type
REMARK                         _______ _______ _______ _____ _____    ______ ____
ROOT
ATOM      1  C   UNL     1      -3.740  12.874  21.096  0.00  0.00    +0.000 A 
ATOM      2  N   UNL     1      -4.347  12.595  19.925  0.00  0.00    +0.000 NA
ATOM      3  C   UNL     1      -3.602  12.022  18.969  0.00  0.00    +0.000 A 
ATOM      4  N   UNL     1      -2.308  11.681  19.065  0.00  0.00    +0.000 NA
ATOM      5  C   UNL     1      -1.684  11.955  20.222  0.00  0.00    +0.000 A 
ATOM      6  N   UNL     1      -0.352  11.610  20.337  0.00  0.00    +0.000 N 
ATOM      7  C   UNL     1      -2.389  12.582  21.243  0.00  0.00    +0.000 A 
ATOM      8  H   UNL     1       0.082  11.562  21.250  0.00  0.00    +0.000 HD
ENDROOT
BRANCH   1  12
ATOM      9  C   UNL     1      -7.272  12.628  22.813  0.00  0.00    +0.000 C 
ATOM     10  C   UNL     1      -6.215  13.210  23.755  0.00  0.00    +0.000 C 
ATOM     11  C   UNL     1      -4.789  12.797  23.320  0.00  0.00    +0.000 C 
ATOM     12  N   UNL     1      -4.501  13.498  22.063  0.00  0.00    +0.000 N 
ATOM     13  C   UNL     1      -4.512  14.957  22.232  0.00  0.00    +0.000 C 
ATOM     14  C   UNL     1      -5.929  15.369  22.700  0.00  0.00    +0.000 C 
ATOM     15  C   UNL     1      -5.976  16.856  23.029  0.00  0.00    +0.000 C 
ATOM     16  O   UNL     1      -6.335  14.645  23.881  0.00  0.00    +0.000 OA
ENDBRANCH   1  12
BRANCH   7  17
ATOM     17  N   UNL     1      -1.666  13.065  22.378  0.00  0.00    +0.000 N 
ATOM     18  O   UNL     1      -1.548  12.320  23.360  0.00  0.00    +0.000 OA
ATOM     19  O   UNL     1      -1.230  14.220  22.314  0.00  0.00    +0.000 OA
ENDBRANCH   7  17
BRANCH   6  20
ATOM     20  C   UNL     1       0.525  11.453  19.186  0.00  0.00    +0.000 C 
BRANCH  20  21
ATOM     21  C   UNL     1       1.586  12.553  19.276  0.00  0.00    +0.000 A 
ATOM     22  C   UNL     1       2.235  13.042  18.126  0.00  0.00    +0.000 A 
ATOM     23  C   UNL     1       3.259  13.985  18.234  0.00  0.00    +0.000 A 
ATOM     24  C   UNL     1       3.640  14.460  19.487  0.00  0.00    +0.000 A 
ATOM     25  C   UNL     1       2.975  14.020  20.631  0.00  0.00    +0.000 A 
ATOM     26  C   UNL     1       1.954  13.074  20.527  0.00  0.00    +0.000 A 
ENDBRANCH  20  21
BRANCH  20  27
ATOM     27  C   UNL     1       1.136  10.049  19.111  0.00  0.00    +0.000 A 
ATOM     28  C   UNL     1       1.730   9.531  17.948  0.00  0.00    +0.000 A 
ATOM     29  C   UNL     1       2.270   8.241  17.931  0.00  0.00    +0.000 A 
ATOM     30  C   UNL     1       2.247   7.455  19.081  0.00  0.00    +0.000 A 
ATOM     31  C   UNL     1       1.700   7.963  20.254  0.00  0.00    +0.000 A 
ATOM     32  C   UNL     1       1.158   9.248  20.271  0.00  0.00    +0.000 A 
ENDBRANCH  20  27
ENDBRANCH   6  20
TORSDOF 5
ENDMDL
MODEL 9
REMARK VINA RESULT:      -6.4      1.363      2.271
REMARK  Name = 
REMARK  7 active torsions:
REMARK  status: ('A' for Active; 'I' for Inactive)
REMARK    1  A    between atoms: C_1  and  C_2
REMARK    2  A    between atoms: N_4  and  C_5
REMARK    3  A    between atoms: N_10  and  C_11
REMARK    4  A    between atoms: C_11  and  C_12
REMARK    5  A    between atoms: C_11  and  C_18
REMARK    6  A    between atoms: C_24  and  N_25
REMARK    7  A    between atoms: C_29  and  C_30
REMARK                            x       y       z     vdW  Elec       q    Type
REMARK                         _______ _______ _______ _____ _____    ______ ____
ROOT
ATOM      1  C   UNL     1      -3.756  12.856  21.056  0.00  0.00    +0.000 A 
ATOM      2  N   UNL     1      -4.353  12.552  19.886  0.00  0.00    +0.000 NA
ATOM      3  C   UNL     1      -3.600  11.962  18.948  0.00  0.00    +0.000 A 
ATOM      4  N   UNL     1      -2.306  11.626  19.061  0.00  0.00    +0.000 NA
ATOM      5  C   UNL     1      -1.692  11.923  20.217  0.00  0.00    +0.000 A 
ATOM      6  N   UNL     1      -0.361  11.584  20.350  0.00  0.00    +0.000 N 
ATOM      7  C   UNL     1      -2.406  12.569  21.220  0.00  0.00    +0.000 A 
ATOM      8  H   UNL     1       0.066  11.556  21.267  0.00  0.00    +0.000 HD
ENDROOT
BRANCH   1  12
ATOM      9  C   UNL     1      -7.283  12.606  22.786  0.00  0.00    +0.000 C 
ATOM     10  C   UNL     1      -6.234  13.234  23.707  0.00  0.00    +0.000 C 
ATOM     11  C   UNL     1      -4.802  12.831  23.284  0.00  0.00    +0.000 C 
ATOM     12  N   UNL     1      -4.526  13.497  22.004  0.00  0.00    +0.000 N 
ATOM     13  C   UNL     1      -4.562  14.960  22.128  0.00  0.00    +0.000 C 
ATOM     14  C   UNL     1      -5.984  15.364  22.584  0.00  0.00    +0.000 C 
ATOM     15  C   UNL     1      -6.056  16.859  22.867  0.00  0.00    +0.000 C 
ATOM     16  O   UNL     1      -6.378  14.670  23.789  0.00  0.00    +0.000 OA
ENDBRANCH   1  12
BRANCH   7  17
ATOM     17  N   UNL     1      -1.693  13.077  22.351  0.00  0.00    +0.000 N 
ATOM     18  O   UNL     1      -1.231  14.224  22.287  0.00  0.00    +0.000 OA
ATOM     19  O   UNL     1      -1.557  12.314  23.315  0.00  0.00    +0.000 OA
ENDBRANCH   7  17
BRANCH   6  20
ATOM     20  C   UNL     1       0.526  11.406  19.209  0.00  0.00    +0.000 C 
BRANCH  20  21
ATOM     21  C   UNL     1       1.578  12.517  19.279  0.00  0.00    +0.000 A 
ATOM     22  C   UNL     1       2.016  13.036  20.512  0.00  0.00    +0.000 A 
ATOM     23  C   UNL     1       2.913  14.105  20.556  0.00  0.00    +0.000 A 
ATOM     24  C   UNL     1       3.393  14.660  19.372  0.00  0.00    +0.000 A 
ATOM     25  C   UNL     1       3.005  14.127  18.144  0.00  0.00    +0.000 A 
ATOM     26  C   UNL     1       2.104  13.060  18.096  0.00  0.00    +0.000 A 
ENDBRANCH  20  21
BRANCH  20  27
ATOM     27  C   UNL     1       1.149  10.005  19.174  0.00  0.00    +0.000 A 
ATOM     28  C   UNL     1       1.166   9.144  20.284  0.00  0.00    +0.000 A 
ATOM     29  C   UNL     1       1.750   7.877  20.201  0.00  0.00    +0.000 A 
ATOM     30  C   UNL     1       2.307   7.438  19.002  0.00  0.00    +0.000 A 
ATOM     31  C   UNL     1       2.266   8.258  17.879  0.00  0.00    +0.000 A 
ATOM     32  C   UNL     1       1.686   9.523  17.962  0.00  0.00    +0.000 A 
ENDBRANCH  20  27
ENDBRANCH   6  20
TORSDOF 5
ENDMDL
