MODEL 1
REMARK VINA RESULT:      -8.0      0.000      0.000
REMARK  Name = 
REMARK  9 active torsions:
REMARK  status: ('A' for Active; 'I' for Inactive)
REMARK    1  A    between atoms: C_1  and  C_2
REMARK    2  A    between atoms: C_2  and  C_3
REMARK    3  A    between atoms: N_8  and  C_9
REMARK    4  A    between atoms: C_12  and  N_13
REMARK    5  A    between atoms: N_13  and  C_14
REMARK    6  A    between atoms: N_13  and  C_16
REMARK    7  A    between atoms: C_14  and  C_15
REMARK    8  A    between atoms: C_16  and  C_17
REMARK    9  A    between atoms: C_19  and  C_20
REMARK                            x       y       z     vdW  Elec       q    Type
REMARK                         _______ _______ _______ _____ _____    ______ ____
ROOT
ATOM      1  C   UNL     1       3.469   3.299  19.962  0.00  0.00    +0.000 A 
ATOM      2  N   UNL     1       2.751   3.412  21.068  0.00  0.00    +0.000 NA
ATOM      3  N   UNL     1       2.257   4.687  21.152  0.00  0.00    +0.000 NA
ATOM      4  C   UNL     1       2.691   5.330  20.094  0.00  0.00    +0.000 A 
ATOM      5  C   UNL     1       2.390   6.699  19.747  0.00  0.00    +0.000 A 
ATOM      6  N   UNL     1       1.530   7.480  20.509  0.00  0.00    +0.000 N 
ATOM      7  N   UNL     1       2.975   7.177  18.681  0.00  0.00    +0.000 NA
ATOM      8  C   UNL     1       3.817   6.392  17.886  0.00  0.00    +0.000 A 
ATOM      9  C   UNL     1       4.376   7.015  16.769  0.00  0.00    +0.000 A 
ATOM     10  C   UNL     1       5.214   6.311  15.914  0.00  0.00    +0.000 A 
ATOM     11  C   UNL     1       5.486   4.967  16.172  0.00  0.00    +0.000 A 
ATOM     12  C   UNL     1       4.926   4.326  17.286  0.00  0.00    +0.000 A 
ATOM     13  C   UNL     1       4.095   5.040  18.150  0.00  0.00    +0.000 A 
ATOM     14  N   UNL     1       3.490   4.523  19.318  0.00  0.00    +0.000 N 
ATOM     15  H   UNL     1       1.321   7.140  21.440  0.00  0.00    +0.000 HD
ENDROOT
BRANCH   6  16
ATOM     16  C   UNL     1       1.184   8.814  20.210  0.00  0.00    +0.000 A 
ATOM     17  C   UNL     1       1.290   9.297  18.898  0.00  0.00    +0.000 A 
ATOM     18  C   UNL     1       1.231  10.661  18.601  0.00  0.00    +0.000 A 
ATOM     19  C   UNL     1       1.072  11.612  19.603  0.00  0.00    +0.000 A 
ATOM     20  C   UNL     1       0.839  11.117  20.900  0.00  0.00    +0.000 A 
ATOM     21  C   UNL     1       0.877   9.739  21.217  0.00  0.00    +0.000 A 
ATOM     22  C   UNL     1       0.644   9.313  22.641  0.00  0.00    +0.000 C 
BRANCH  19  23
ATOM     23  N   UNL     1       1.184  12.971  19.340  0.00  0.00    +0.000 N 
BRANCH  23  24
ATOM     24  C   UNL     1       0.082  13.724  18.733  0.00  0.00    +0.000 C 
ATOM     25  C   UNL     1      -0.377  14.902  19.581  0.00  0.00    +0.000 C 
ENDBRANCH  23  24
BRANCH  23  26
ATOM     26  C   UNL     1       2.441  13.678  19.612  0.00  0.00    +0.000 C 
ATOM     27  C   UNL     1       3.237  13.935  18.336  0.00  0.00    +0.000 C 
ENDBRANCH  23  26
ENDBRANCH  19  23
ENDBRANCH   6  16
BRANCH   1  29
ATOM     28  C   UNL     1       3.321   1.410  18.357  0.00  0.00    +0.000 C 
ATOM     29  C   UNL     1       4.083   2.016  19.526  0.00  0.00    +0.000 C 
ENDBRANCH   1  29
TORSDOF 5
ENDMDL
MODEL 2
REMARK VINA RESULT:      -8.0      0.053      1.239
REMARK  Name = 
REMARK  9 active torsions:
REMARK  status: ('A' for Active; 'I' for Inactive)
REMARK    1  A    between atoms: C_1  and  C_2
REMARK    2  A    between atoms: C_2  and  C_3
REMARK    3  A    between atoms: N_8  and  C_9
REMARK    4  A    between atoms: C_12  and  N_13
REMARK    5  A    between atoms: N_13  and  C_14
REMARK    6  A    between atoms: N_13  and  C_16
REMARK    7  A    between atoms: C_14  and  C_15
REMARK    8  A    between atoms: C_16  and  C_17
REMARK    9  A    between atoms: C_19  and  C_20
REMARK                            x       y       z     vdW  Elec       q    Type
REMARK                         _______ _______ _______ _____ _____    ______ ____
ROOT
ATOM      1  C   UNL     1       3.477   3.298  19.977  0.00  0.00    +0.000 A 
ATOM      2  N   UNL     1       2.755   3.419  21.080  0.00  0.00    +0.000 NA
ATOM      3  N   UNL     1       2.261   4.694  21.153  0.00  0.00    +0.000 NA
ATOM      4  C   UNL     1       2.697   5.330  20.092  0.00  0.00    +0.000 A 
ATOM      5  C   UNL     1       2.397   6.696  19.733  0.00  0.00    +0.000 A 
ATOM      6  N   UNL     1       1.535   7.482  20.486  0.00  0.00    +0.000 N 
ATOM      7  N   UNL     1       2.984   7.166  18.665  0.00  0.00    +0.000 NA
ATOM      8  C   UNL     1       3.829   6.376  17.879  0.00  0.00    +0.000 A 
ATOM      9  C   UNL     1       4.392   6.990  16.758  0.00  0.00    +0.000 A 
ATOM     10  C   UNL     1       5.232   6.280  15.911  0.00  0.00    +0.000 A 
ATOM     11  C   UNL     1       5.504   4.938  16.181  0.00  0.00    +0.000 A 
ATOM     12  C   UNL     1       4.942   4.305  17.298  0.00  0.00    +0.000 A 
ATOM     13  C   UNL     1       4.108   5.025  18.154  0.00  0.00    +0.000 A 
ATOM     14  N   UNL     1       3.499   4.518  19.324  0.00  0.00    +0.000 N 
ATOM     15  H   UNL     1       1.323   7.149  21.420  0.00  0.00    +0.000 HD
ENDROOT
BRANCH   6  16
ATOM     16  C   UNL     1       1.189   8.814  20.177  0.00  0.00    +0.000 A 
ATOM     17  C   UNL     1       1.282   9.282  18.858  0.00  0.00    +0.000 A 
ATOM     18  C   UNL     1       1.224  10.642  18.546  0.00  0.00    +0.000 A 
ATOM     19  C   UNL     1       1.077  11.605  19.540  0.00  0.00    +0.000 A 
ATOM     20  C   UNL     1       0.858  11.126  20.844  0.00  0.00    +0.000 A 
ATOM     21  C   UNL     1       0.895   9.751  21.177  0.00  0.00    +0.000 A 
ATOM     22  C   UNL     1       0.676   9.342  22.607  0.00  0.00    +0.000 C 
BRANCH  19  23
ATOM     23  N   UNL     1       1.191  12.961  19.260  0.00  0.00    +0.000 N 
BRANCH  23  24
ATOM     24  C   UNL     1       2.402  13.712  19.605  0.00  0.00    +0.000 C 
ATOM     25  C   UNL     1       3.265  14.043  18.396  0.00  0.00    +0.000 C 
ENDBRANCH  23  24
BRANCH  23  26
ATOM     26  C   UNL     1       0.068  13.692  18.662  0.00  0.00    +0.000 C 
ATOM     27  C   UNL     1      -0.306  14.927  19.476  0.00  0.00    +0.000 C 
ENDBRANCH  23  26
ENDBRANCH  19  23
ENDBRANCH   6  16
BRANCH   1  29
ATOM     28  C   UNL     1       3.324   1.388  18.398  0.00  0.00    +0.000 C 
ATOM     29  C   UNL     1       4.093   2.013  19.553  0.00  0.00    +0.000 C 
ENDBRANCH   1  29
TORSDOF 5
ENDMDL
MODEL 3
REMARK VINA RESULT:      -7.7      2.334      3.704
REMARK  Name = 
REMARK  9 active torsions:
REMARK  status: ('A' for Active; 'I' for Inactive)
REMARK    1  A    between atoms: C_1  and  C_2
REMARK    2  A    between atoms: C_2  and  C_3
REMARK    3  A    between atoms: N_8  and  C_9
REMARK    4  A    between atoms: C_12  and  N_13
REMARK    5  A    between atoms: N_13  and  C_14
REMARK    6  A    between atoms: N_13  and  C_16
REMARK    7  A    between atoms: C_14  and  C_15
REMARK    8  A    between atoms: C_16  and  C_17
REMARK    9  A    between atoms: C_19  and  C_20
REMARK                            x       y       z     vdW  Elec       q    Type
REMARK                         _______ _______ _______ _____ _____    ______ ____
ROOT
ATOM      1  C   UNL     1       5.606   5.387  16.653  0.00  0.00    +0.000 A 
ATOM      2  N   UNL     1       6.007   6.633  16.458  0.00  0.00    +0.000 NA
ATOM      3  N   UNL     1       5.034   7.490  16.899  0.00  0.00    +0.000 NA
ATOM      4  C   UNL     1       4.053   6.747  17.352  0.00  0.00    +0.000 A 
ATOM      5  C   UNL     1       2.828   7.224  17.949  0.00  0.00    +0.000 A 
ATOM      6  N   UNL     1       2.588   8.576  18.158  0.00  0.00    +0.000 N 
ATOM      7  N   UNL     1       1.943   6.320  18.279  0.00  0.00    +0.000 NA
ATOM      8  C   UNL     1       2.185   4.954  18.105  0.00  0.00    +0.000 A 
ATOM      9  C   UNL     1       1.165   4.086  18.502  0.00  0.00    +0.000 A 
ATOM     10  C   UNL     1       1.320   2.712  18.380  0.00  0.00    +0.000 A 
ATOM     11  C   UNL     1       2.513   2.198  17.867  0.00  0.00    +0.000 A 
ATOM     12  C   UNL     1       3.548   3.056  17.470  0.00  0.00    +0.000 A 
ATOM     13  C   UNL     1       3.383   4.437  17.582  0.00  0.00    +0.000 A 
ATOM     14  N   UNL     1       4.333   5.409  17.196  0.00  0.00    +0.000 N 
ATOM     15  H   UNL     1       3.187   9.221  17.655  0.00  0.00    +0.000 HD
ENDROOT
BRANCH   6  16
ATOM     16  C   UNL     1       1.421   9.101  18.752  0.00  0.00    +0.000 A 
ATOM     17  C   UNL     1       0.559   9.924  18.013  0.00  0.00    +0.000 A 
ATOM     18  C   UNL     1      -0.442  10.685  18.619  0.00  0.00    +0.000 A 
ATOM     19  C   UNL     1      -0.627  10.669  19.998  0.00  0.00    +0.000 A 
ATOM     20  C   UNL     1       0.154   9.748  20.720  0.00  0.00    +0.000 A 
ATOM     21  C   UNL     1       1.161   8.955  20.121  0.00  0.00    +0.000 A 
ATOM     22  C   UNL     1       1.963   8.020  20.985  0.00  0.00    +0.000 C 
BRANCH  19  23
ATOM     23  N   UNL     1      -1.501  11.548  20.625  0.00  0.00    +0.000 N 
BRANCH  23  24
ATOM     24  C   UNL     1      -2.305  12.502  19.855  0.00  0.00    +0.000 C 
ATOM     25  C   UNL     1      -3.730  12.637  20.373  0.00  0.00    +0.000 C 
ENDBRANCH  23  24
BRANCH  23  26
ATOM     26  C   UNL     1      -1.596  11.583  22.089  0.00  0.00    +0.000 C 
ATOM     27  C   UNL     1      -0.859  12.781  22.679  0.00  0.00    +0.000 C 
ENDBRANCH  23  26
ENDBRANCH  19  23
ENDBRANCH   6  16
BRANCH   1  29
ATOM     28  C   UNL     1       6.709   4.067  14.863  0.00  0.00    +0.000 C 
ATOM     29  C   UNL     1       6.462   4.208  16.357  0.00  0.00    +0.000 C 
ENDBRANCH   1  29
TORSDOF 5
ENDMDL
MODEL 4
REMARK VINA RESULT:      -7.7      2.363      3.796
REMARK  Name = 
REMARK  9 active torsions:
REMARK  status: ('A' for Active; 'I' for Inactive)
REMARK    1  A    between atoms: C_1  and  C_2
REMARK    2  A    between atoms: C_2  and  C_3
REMARK    3  A    between atoms: N_8  and  C_9
REMARK    4  A    between atoms: C_12  and  N_13
REMARK    5  A    between atoms: N_13  and  C_14
REMARK    6  A    between atoms: N_13  and  C_16
REMARK    7  A    between atoms: C_14  and  C_15
REMARK    8  A    between atoms: C_16  and  C_17
REMARK    9  A    between atoms: C_19  and  C_20
REMARK                            x       y       z     vdW  Elec       q    Type
REMARK                         _______ _______ _______ _____ _____    ______ ____
ROOT
ATOM      1  C   UNL     1       5.840   5.575  16.858  0.00  0.00    +0.000 A 
ATOM      2  N   UNL     1       6.212   6.834  16.688  0.00  0.00    +0.000 NA
ATOM      3  N   UNL     1       5.181   7.658  17.052  0.00  0.00    +0.000 NA
ATOM      4  C   UNL     1       4.194   6.883  17.434  0.00  0.00    +0.000 A 
ATOM      5  C   UNL     1       2.914   7.319  17.938  0.00  0.00    +0.000 A 
ATOM      6  N   UNL     1       2.614   8.662  18.122  0.00  0.00    +0.000 N 
ATOM      7  N   UNL     1       2.038   6.386  18.205  0.00  0.00    +0.000 NA
ATOM      8  C   UNL     1       2.338   5.028  18.055  0.00  0.00    +0.000 A 
ATOM      9  C   UNL     1       1.321   4.127  18.380  0.00  0.00    +0.000 A 
ATOM     10  C   UNL     1       1.532   2.759  18.276  0.00  0.00    +0.000 A 
ATOM     11  C   UNL     1       2.775   2.285  17.854  0.00  0.00    +0.000 A 
ATOM     12  C   UNL     1       3.807   3.176  17.531  0.00  0.00    +0.000 A 
ATOM     13  C   UNL     1       3.588   4.551  17.624  0.00  0.00    +0.000 A 
ATOM     14  N   UNL     1       4.531   5.555  17.305  0.00  0.00    +0.000 N 
ATOM     15  H   UNL     1       3.226   9.326  17.662  0.00  0.00    +0.000 HD
ENDROOT
BRANCH   6  16
ATOM     16  C   UNL     1       1.389   9.148  18.626  0.00  0.00    +0.000 A 
ATOM     17  C   UNL     1       0.524   9.881  17.800  0.00  0.00    +0.000 A 
ATOM     18  C   UNL     1      -0.549  10.613  18.312  0.00  0.00    +0.000 A 
ATOM     19  C   UNL     1      -0.808  10.656  19.679  0.00  0.00    +0.000 A 
ATOM     20  C   UNL     1      -0.018   9.820  20.488  0.00  0.00    +0.000 A 
ATOM     21  C   UNL     1       1.063   9.057  19.985  0.00  0.00    +0.000 A 
ATOM     22  C   UNL     1       1.867   8.216  20.939  0.00  0.00    +0.000 C 
BRANCH  19  23
ATOM     23  N   UNL     1      -1.762  11.514  20.212  0.00  0.00    +0.000 N 
BRANCH  23  24
ATOM     24  C   UNL     1      -1.706  11.938  21.614  0.00  0.00    +0.000 C 
ATOM     25  C   UNL     1      -0.603  12.951  21.889  0.00  0.00    +0.000 C 
ENDBRANCH  23  24
BRANCH  23  26
ATOM     26  C   UNL     1      -2.889  11.971  19.392  0.00  0.00    +0.000 C 
ATOM     27  C   UNL     1      -3.928  12.721  20.220  0.00  0.00    +0.000 C 
ENDBRANCH  23  26
ENDBRANCH  19  23
ENDBRANCH   6  16
BRANCH   1  29
ATOM     28  C   UNL     1       7.869   4.394  17.666  0.00  0.00    +0.000 C 
ATOM     29  C   UNL     1       6.756   4.425  16.631  0.00  0.00    +0.000 C 
ENDBRANCH   1  29
TORSDOF 5
ENDMDL
MODEL 5
REMARK VINA RESULT:      -7.6      2.173      3.806
REMARK  Name = 
REMARK  9 active torsions:
REMARK  status: ('A' for Active; 'I' for Inactive)
REMARK    1  A    between atoms: C_1  and  C_2
REMARK    2  A    between atoms: C_2  and  C_3
REMARK    3  A    between atoms: N_8  and  C_9
REMARK    4  A    between atoms: C_12  and  N_13
REMARK    5  A    between atoms: N_13  and  C_14
REMARK    6  A    between atoms: N_13  and  C_16
REMARK    7  A    between atoms: C_14  and  C_15
REMARK    8  A    between atoms: C_16  and  C_17
REMARK    9  A    between atoms: C_19  and  C_20
REMARK                            x       y       z     vdW  Elec       q    Type
REMARK                         _______ _______ _______ _____ _____    ______ ____
ROOT
ATOM      1  C   UNL     1       5.419   5.190  16.301  0.00  0.00    +0.000 A 
ATOM      2  N   UNL     1       5.799   6.434  16.058  0.00  0.00    +0.000 NA
ATOM      3  N   UNL     1       4.886   7.295  16.606  0.00  0.00    +0.000 NA
ATOM      4  C   UNL     1       3.960   6.556  17.170  0.00  0.00    +0.000 A 
ATOM      5  C   UNL     1       2.814   7.038  17.902  0.00  0.00    +0.000 A 
ATOM      6  N   UNL     1       2.603   8.391  18.133  0.00  0.00    +0.000 N 
ATOM      7  N   UNL     1       1.970   6.138  18.333  0.00  0.00    +0.000 NA
ATOM      8  C   UNL     1       2.186   4.770  18.136  0.00  0.00    +0.000 A 
ATOM      9  C   UNL     1       1.216   3.906  18.650  0.00  0.00    +0.000 A 
ATOM     10  C   UNL     1       1.353   2.531  18.514  0.00  0.00    +0.000 A 
ATOM     11  C   UNL     1       2.476   2.013  17.868  0.00  0.00    +0.000 A 
ATOM     12  C   UNL     1       3.462   2.866  17.353  0.00  0.00    +0.000 A 
ATOM     13  C   UNL     1       3.315   4.248  17.480  0.00  0.00    +0.000 A 
ATOM     14  N   UNL     1       4.217   5.217  16.986  0.00  0.00    +0.000 N 
ATOM     15  H   UNL     1       3.142   9.033  17.564  0.00  0.00    +0.000 HD
ENDROOT
BRANCH   6  16
ATOM     16  C   UNL     1       1.514   8.921  18.856  0.00  0.00    +0.000 A 
ATOM     17  C   UNL     1       0.651   9.851  18.257  0.00  0.00    +0.000 A 
ATOM     18  C   UNL     1      -0.259  10.606  19.000  0.00  0.00    +0.000 A 
ATOM     19  C   UNL     1      -0.347  10.476  20.382  0.00  0.00    +0.000 A 
ATOM     20  C   UNL     1       0.428   9.455  20.962  0.00  0.00    +0.000 A 
ATOM     21  C   UNL     1       1.342   8.667  20.223  0.00  0.00    +0.000 A 
ATOM     22  C   UNL     1       2.147   7.618  20.942  0.00  0.00    +0.000 C 
BRANCH  19  23
ATOM     23  N   UNL     1      -1.122  11.339  21.146  0.00  0.00    +0.000 N 
BRANCH  23  24
ATOM     24  C   UNL     1      -1.158  11.239  22.609  0.00  0.00    +0.000 C 
ATOM     25  C   UNL     1      -2.413  11.848  23.218  0.00  0.00    +0.000 C 
ENDBRANCH  23  24
BRANCH  23  26
ATOM     26  C   UNL     1      -1.975  12.341  20.498  0.00  0.00    +0.000 C 
ATOM     27  C   UNL     1      -1.239  13.659  20.276  0.00  0.00    +0.000 C 
ENDBRANCH  23  26
ENDBRANCH  19  23
ENDBRANCH   6  16
BRANCH   1  29
ATOM     28  C   UNL     1       6.609   4.058  14.438  0.00  0.00    +0.000 C 
ATOM     29  C   UNL     1       6.233   4.008  15.911  0.00  0.00    +0.000 C 
ENDBRANCH   1  29
TORSDOF 5
ENDMDL
MODEL 6
REMARK VINA RESULT:      -7.5      2.313      8.814
REMARK  Name = 
REMARK  9 active torsions:
REMARK  status: ('A' for Active; 'I' for Inactive)
REMARK    1  A    between atoms: C_1  and  C_2
REMARK    2  A    between atoms: C_2  and  C_3
REMARK    3  A    between atoms: N_8  and  C_9
REMARK    4  A    between atoms: C_12  and  N_13
REMARK    5  A    between atoms: N_13  and  C_14
REMARK    6  A    between atoms: N_13  and  C_16
REMARK    7  A    between atoms: C_14  and  C_15
REMARK    8  A    between atoms: C_16  and  C_17
REMARK    9  A    between atoms: C_19  and  C_20
REMARK                            x       y       z     vdW  Elec       q    Type
REMARK                         _______ _______ _______ _____ _____    ______ ____
ROOT
ATOM      1  C   UNL     1      -0.369  13.260  20.849  0.00  0.00    +0.000 A 
ATOM      2  N   UNL     1       0.712  13.081  21.592  0.00  0.00    +0.000 NA
ATOM      3  N   UNL     1       1.178  11.807  21.406  0.00  0.00    +0.000 NA
ATOM      4  C   UNL     1       0.366  11.229  20.552  0.00  0.00    +0.000 A 
ATOM      5  C   UNL     1       0.490   9.888  20.033  0.00  0.00    +0.000 A 
ATOM      6  N   UNL     1       1.559   9.066  20.364  0.00  0.00    +0.000 N 
ATOM      7  N   UNL     1      -0.463   9.474  19.239  0.00  0.00    +0.000 NA
ATOM      8  C   UNL     1      -1.528  10.302  18.871  0.00  0.00    +0.000 A 
ATOM      9  C   UNL     1      -2.479   9.748  18.011  0.00  0.00    +0.000 A 
ATOM     10  C   UNL     1      -3.564  10.500  17.581  0.00  0.00    +0.000 A 
ATOM     11  C   UNL     1      -3.695  11.823  18.005  0.00  0.00    +0.000 A 
ATOM     12  C   UNL     1      -2.745  12.396  18.863  0.00  0.00    +0.000 A 
ATOM     13  C   UNL     1      -1.662  11.634  19.303  0.00  0.00    +0.000 A 
ATOM     14  N   UNL     1      -0.652  12.078  20.186  0.00  0.00    +0.000 N 
ATOM     15  H   UNL     1       2.109   9.347  21.167  0.00  0.00    +0.000 HD
ENDROOT
BRANCH   6  16
ATOM     16  C   UNL     1       1.743   7.755  19.876  0.00  0.00    +0.000 A 
ATOM     17  C   UNL     1       1.471   6.649  20.694  0.00  0.00    +0.000 A 
ATOM     18  C   UNL     1       1.895   5.360  20.366  0.00  0.00    +0.000 A 
ATOM     19  C   UNL     1       2.621   5.112  19.206  0.00  0.00    +0.000 A 
ATOM     20  C   UNL     1       2.782   6.199  18.328  0.00  0.00    +0.000 A 
ATOM     21  C   UNL     1       2.344   7.509  18.634  0.00  0.00    +0.000 A 
ATOM     22  C   UNL     1       2.589   8.611  17.639  0.00  0.00    +0.000 C 
BRANCH  19  23
ATOM     23  N   UNL     1       3.193   3.870  18.957  0.00  0.00    +0.000 N 
BRANCH  23  24
ATOM     24  C   UNL     1       4.493   3.502  19.528  0.00  0.00    +0.000 C 
ATOM     25  C   UNL     1       4.525   2.083  20.077  0.00  0.00    +0.000 C 
ENDBRANCH  23  24
BRANCH  23  26
ATOM     26  C   UNL     1       2.533   2.914  18.062  0.00  0.00    +0.000 C 
ATOM     27  C   UNL     1       1.190   2.448  18.618  0.00  0.00    +0.000 C 
ENDBRANCH  23  26
ENDBRANCH  19  23
ENDBRANCH   6  16
BRANCH   1  29
ATOM     28  C   UNL     1      -2.173  14.670  21.808  0.00  0.00    +0.000 C 
ATOM     29  C   UNL     1      -1.078  14.563  20.757  0.00  0.00    +0.000 C 
ENDBRANCH   1  29
TORSDOF 5
ENDMDL
MODEL 7
REMARK VINA RESULT:      -7.5      2.650      8.686
REMARK  Name = 
REMARK  9 active torsions:
REMARK  status: ('A' for Active; 'I' for Inactive)
REMARK    1  A    between atoms: C_1  and  C_2
REMARK    2  A    between atoms: C_2  and  C_3
REMARK    3  A    between atoms: N_8  and  C_9
REMARK    4  A    between atoms: C_12  and  N_13
REMARK    5  A    between atoms: N_13  and  C_14
REMARK    6  A    between atoms: N_13  and  C_16
REMARK    7  A    between atoms: C_14  and  C_15
REMARK    8  A    between atoms: C_16  and  C_17
REMARK    9  A    between atoms: C_19  and  C_20
REMARK                            x       y       z     vdW  Elec       q    Type
REMARK                         _______ _______ _______ _____ _____    ______ ____
ROOT
ATOM      1  C   UNL     1      -1.566  13.030  21.378  0.00  0.00    +0.000 A 
ATOM      2  N   UNL     1      -0.574  12.885  22.242  0.00  0.00    +0.000 NA
ATOM      3  N   UNL     1       0.134  11.757  21.924  0.00  0.00    +0.000 NA
ATOM      4  C   UNL     1      -0.445  11.231  20.872  0.00  0.00    +0.000 A 
ATOM      5  C   UNL     1      -0.016  10.047  20.165  0.00  0.00    +0.000 A 
ATOM      6  N   UNL     1       1.133   9.353  20.521  0.00  0.00    +0.000 N 
ATOM      7  N   UNL     1      -0.770   9.647  19.175  0.00  0.00    +0.000 NA
ATOM      8  C   UNL     1      -1.912  10.355  18.785  0.00  0.00    +0.000 A 
ATOM      9  C   UNL     1      -2.631   9.831  17.708  0.00  0.00    +0.000 A 
ATOM     10  C   UNL     1      -3.770  10.473  17.242  0.00  0.00    +0.000 A 
ATOM     11  C   UNL     1      -4.190  11.656  17.852  0.00  0.00    +0.000 A 
ATOM     12  C   UNL     1      -3.476  12.197  18.929  0.00  0.00    +0.000 A 
ATOM     13  C   UNL     1      -2.338  11.543  19.404  0.00  0.00    +0.000 A 
ATOM     14  N   UNL     1      -1.545  11.965  20.494  0.00  0.00    +0.000 N 
ATOM     15  H   UNL     1       1.517   9.560  21.435  0.00  0.00    +0.000 HD
ENDROOT
BRANCH   6  16
ATOM     16  C   UNL     1       1.611   8.203  19.859  0.00  0.00    +0.000 A 
ATOM     17  C   UNL     1       1.598   6.957  20.504  0.00  0.00    +0.000 A 
ATOM     18  C   UNL     1       2.305   5.858  20.013  0.00  0.00    +0.000 A 
ATOM     19  C   UNL     1       3.069   5.950  18.854  0.00  0.00    +0.000 A 
ATOM     20  C   UNL     1       2.978   7.161  18.143  0.00  0.00    +0.000 A 
ATOM     21  C   UNL     1       2.253   8.280  18.616  0.00  0.00    +0.000 A 
ATOM     22  C   UNL     1       2.242   9.541  17.795  0.00  0.00    +0.000 C 
BRANCH  19  23
ATOM     23  N   UNL     1       3.909   4.919  18.452  0.00  0.00    +0.000 N 
BRANCH  23  24
ATOM     24  C   UNL     1       5.104   4.565  19.225  0.00  0.00    +0.000 C 
ATOM     25  C   UNL     1       6.376   5.205  18.686  0.00  0.00    +0.000 C 
ENDBRANCH  23  24
BRANCH  23  26
ATOM     26  C   UNL     1       3.650   4.194  17.204  0.00  0.00    +0.000 C 
ATOM     27  C   UNL     1       2.537   3.163  17.363  0.00  0.00    +0.000 C 
ENDBRANCH  23  26
ENDBRANCH  19  23
ENDBRANCH   6  16
BRANCH   1  29
ATOM     28  C   UNL     1      -1.897  15.367  20.607  0.00  0.00    +0.000 C 
ATOM     29  C   UNL     1      -2.482  14.201  21.390  0.00  0.00    +0.000 C 
ENDBRANCH   1  29
TORSDOF 5
ENDMDL
MODEL 8
REMARK VINA RESULT:      -7.4      2.711      8.654
REMARK  Name = 
REMARK  9 active torsions:
REMARK  status: ('A' for Active; 'I' for Inactive)
REMARK    1  A    between atoms: C_1  and  C_2
REMARK    2  A    between atoms: C_2  and  C_3
REMARK    3  A    between atoms: N_8  and  C_9
REMARK    4  A    between atoms: C_12  and  N_13
REMARK    5  A    between atoms: N_13  and  C_14
REMARK    6  A    between atoms: N_13  and  C_16
REMARK    7  A    between atoms: C_14  and  C_15
REMARK    8  A    between atoms: C_16  and  C_17
REMARK    9  A    between atoms: C_19  and  C_20
REMARK                            x       y       z     vdW  Elec       q    Type
REMARK                         _______ _______ _______ _____ _____    ______ ____
ROOT
ATOM      1  C   UNL     1      -1.535  12.981  21.371  0.00  0.00    +0.000 A 
ATOM      2  N   UNL     1      -0.547  12.827  22.238  0.00  0.00    +0.000 NA
ATOM      3  N   UNL     1       0.156  11.695  21.919  0.00  0.00    +0.000 NA
ATOM      4  C   UNL     1      -0.423  11.176  20.862  0.00  0.00    +0.000 A 
ATOM      5  C   UNL     1       0.001   9.992  20.153  0.00  0.00    +0.000 A 
ATOM      6  N   UNL     1       1.145   9.291  20.510  0.00  0.00    +0.000 N 
ATOM      7  N   UNL     1      -0.752   9.601  19.159  0.00  0.00    +0.000 NA
ATOM      8  C   UNL     1      -1.888  10.316  18.768  0.00  0.00    +0.000 A 
ATOM      9  C   UNL     1      -2.607   9.801  17.687  0.00  0.00    +0.000 A 
ATOM     10  C   UNL     1      -3.741  10.451  17.219  0.00  0.00    +0.000 A 
ATOM     11  C   UNL     1      -4.156  11.635  17.831  0.00  0.00    +0.000 A 
ATOM     12  C   UNL     1      -3.442  12.168  18.913  0.00  0.00    +0.000 A 
ATOM     13  C   UNL     1      -2.310  11.506  19.389  0.00  0.00    +0.000 A 
ATOM     14  N   UNL     1      -1.518  11.919  20.483  0.00  0.00    +0.000 N 
ATOM     15  H   UNL     1       1.527   9.492  21.426  0.00  0.00    +0.000 HD
ENDROOT
BRANCH   6  16
ATOM     16  C   UNL     1       1.618   8.140  19.846  0.00  0.00    +0.000 A 
ATOM     17  C   UNL     1       1.596   6.892  20.487  0.00  0.00    +0.000 A 
ATOM     18  C   UNL     1       2.298   5.791  19.994  0.00  0.00    +0.000 A 
ATOM     19  C   UNL     1       3.066   5.882  18.838  0.00  0.00    +0.000 A 
ATOM     20  C   UNL     1       2.984   7.096  18.131  0.00  0.00    +0.000 A 
ATOM     21  C   UNL     1       2.264   8.218  18.605  0.00  0.00    +0.000 A 
ATOM     22  C   UNL     1       2.262   9.481  17.788  0.00  0.00    +0.000 C 
BRANCH  19  23
ATOM     23  N   UNL     1       3.901   4.848  18.435  0.00  0.00    +0.000 N 
BRANCH  23  24
ATOM     24  C   UNL     1       3.503   3.915  17.376  0.00  0.00    +0.000 C 
ATOM     25  C   UNL     1       3.297   2.493  17.877  0.00  0.00    +0.000 C 
ENDBRANCH  23  24
BRANCH  23  26
ATOM     26  C   UNL     1       5.186   4.626  19.108  0.00  0.00    +0.000 C 
ATOM     27  C   UNL     1       6.360   4.707  18.138  0.00  0.00    +0.000 C 
ENDBRANCH  23  26
ENDBRANCH  19  23
ENDBRANCH   6  16
BRANCH   1  29
ATOM     28  C   UNL     1      -3.669  13.898  22.248  0.00  0.00    +0.000 C 
ATOM     29  C   UNL     1      -2.444  14.158  21.384  0.00  0.00    +0.000 C 
ENDBRANCH   1  29
TORSDOF 5
ENDMDL
MODEL 9
REMARK VINA RESULT:      -7.3      2.094      4.069
REMARK  Name = 
REMARK  9 active torsions:
REMARK  status: ('A' for Active; 'I' for Inactive)
REMARK    1  A    between atoms: C_1  and  C_2
REMARK    2  A    between atoms: C_2  and  C_3
REMARK    3  A    between atoms: N_8  and  C_9
REMARK    4  A    between atoms: C_12  and  N_13
REMARK    5  A    between atoms: N_13  and  C_14
REMARK    6  A    between atoms: N_13  and  C_16
REMARK    7  A    between atoms: C_14  and  C_15
REMARK    8  A    between atoms: C_16  and  C_17
REMARK    9  A    between atoms: C_19  and  C_20
REMARK                            x       y       z     vdW  Elec       q    Type
REMARK                         _______ _______ _______ _____ _____    ______ ____
ROOT
ATOM      1  C   UNL     1       5.074   5.535  16.807  0.00  0.00    +0.000 A 
ATOM      2  N   UNL     1       5.196   6.554  15.972  0.00  0.00    +0.000 NA
ATOM      3  N   UNL     1       4.353   7.559  16.366  0.00  0.00    +0.000 NA
ATOM      4  C   UNL     1       3.726   7.129  17.435  0.00  0.00    +0.000 A 
ATOM      5  C   UNL     1       2.763   7.869  18.214  0.00  0.00    +0.000 A 
ATOM      6  N   UNL     1       2.435   9.187  17.920  0.00  0.00    +0.000 N 
ATOM      7  N   UNL     1       2.200   7.237  19.210  0.00  0.00    +0.000 NA
ATOM      8  C   UNL     1       2.544   5.921  19.537  0.00  0.00    +0.000 A 
ATOM      9  C   UNL     1       1.879   5.357  20.627  0.00  0.00    +0.000 A 
ATOM     10  C   UNL     1       2.165   4.061  21.034  0.00  0.00    +0.000 A 
ATOM     11  C   UNL     1       3.135   3.324  20.352  0.00  0.00    +0.000 A 
ATOM     12  C   UNL     1       3.816   3.879  19.260  0.00  0.00    +0.000 A 
ATOM     13  C   UNL     1       3.517   5.178  18.846  0.00  0.00    +0.000 A 
ATOM     14  N   UNL     1       4.108   5.845  17.749  0.00  0.00    +0.000 N 
ATOM     15  H   UNL     1       2.706   9.523  17.004  0.00  0.00    +0.000 HD
ENDROOT
BRANCH   6  16
ATOM     16  C   UNL     1       1.517   9.967  18.654  0.00  0.00    +0.000 A 
ATOM     17  C   UNL     1       0.460   9.355  19.344  0.00  0.00    +0.000 A 
ATOM     18  C   UNL     1      -0.621  10.083  19.844  0.00  0.00    +0.000 A 
ATOM     19  C   UNL     1      -0.705  11.462  19.673  0.00  0.00    +0.000 A 
ATOM     20  C   UNL     1       0.415  12.086  19.094  0.00  0.00    +0.000 A 
ATOM     21  C   UNL     1       1.528  11.366  18.597  0.00  0.00    +0.000 A 
ATOM     22  C   UNL     1       2.664  12.126  17.968  0.00  0.00    +0.000 C 
BRANCH  19  23
ATOM     23  N   UNL     1      -1.851  12.168  20.013  0.00  0.00    +0.000 N 
BRANCH  23  24
ATOM     24  C   UNL     1      -1.890  13.035  21.196  0.00  0.00    +0.000 C 
ATOM     25  C   UNL     1      -1.461  12.323  22.472  0.00  0.00    +0.000 C 
ENDBRANCH  23  24
BRANCH  23  26
ATOM     26  C   UNL     1      -3.079  12.016  19.224  0.00  0.00    +0.000 C 
ATOM     27  C   UNL     1      -4.293  12.596  19.942  0.00  0.00    +0.000 C 
ENDBRANCH  23  26
ENDBRANCH  19  23
ENDBRANCH   6  16
BRANCH   1  29
ATOM     28  C   UNL     1       7.330   4.570  17.189  0.00  0.00    +0.000 C 
ATOM     29  C   UNL     1       5.910   4.309  16.712  0.00  0.00    +0.000 C 
ENDBRANCH   1  29
TORSDOF 5
ENDMDL
