MODEL 1
REMARK VINA RESULT:      -7.8      0.000      0.000
REMARK  Name = 
REMARK  6 active torsions:
REMARK  status: ('A' for Active; 'I' for Inactive)
REMARK    1  A    between atoms: C_1  and  S_2
REMARK    2  A    between atoms: S_2  and  N_5
REMARK    3  A    between atoms: N_5  and  C_6
REMARK    4  A    between atoms: N_5  and  C_16
REMARK    5  A    between atoms: C_6  and  C_7
REMARK    6  A    between atoms: C_20  and  N_21
REMARK                            x       y       z     vdW  Elec       q    Type
REMARK                         _______ _______ _______ _____ _____    ______ ____
ROOT
ATOM      1  N   UNL     1       3.195   3.867  18.308  0.00  0.00    +0.000 N 
ENDROOT
BRANCH   1   2
ATOM      2  C   UNL     1       4.498   4.234  17.870  0.00  0.00    +0.000 A 
ATOM      3  C   UNL     1       4.818   4.086  16.519  0.00  0.00    +0.000 A 
ATOM      4  C   UNL     1       6.067   4.492  16.047  0.00  0.00    +0.000 A 
ATOM      5  C   UNL     1       6.992   5.063  16.923  0.00  0.00    +0.000 A 
ATOM      6  C   UNL     1       6.656   5.227  18.275  0.00  0.00    +0.000 A 
ATOM      7  C   UNL     1       5.406   4.816  18.756  0.00  0.00    +0.000 A 
BRANCH   6   8
ATOM      8  N   UNL     1       7.618   5.857  19.188  0.00  0.00    +0.000 N 
ATOM      9  O   UNL     1       8.222   6.861  18.784  0.00  0.00    +0.000 OA
ATOM     10  O   UNL     1       7.757   5.359  20.314  0.00  0.00    +0.000 OA
ENDBRANCH   6   8
ENDBRANCH   1   2
BRANCH   1  12
ATOM     11  C   UNL     1       1.192   2.148  18.931  0.00  0.00    +0.000 C 
ATOM     12  S   UNL     1       2.948   2.399  19.079  0.00  0.00    +0.000 S 
ATOM     13  O   UNL     1       3.251   2.575  20.484  0.00  0.00    +0.000 OA
ATOM     14  O   UNL     1       3.600   1.355  18.312  0.00  0.00    +0.000 OA
ENDBRANCH   1  12
BRANCH   1  15
ATOM     15  C   UNL     1       2.102   4.851  18.214  0.00  0.00    +0.000 C 
BRANCH  15  16
ATOM     16  C   UNL     1       1.905   5.735  19.440  0.00  0.00    +0.000 C 
ATOM     17  O   UNL     1       1.381   5.303  20.468  0.00  0.00    +0.000 OA
ATOM     18  N   UNL     1       2.319   7.071  19.329  0.00  0.00    +0.000 N 
ATOM     19  C   UNL     1       2.197   7.938  20.502  0.00  0.00    +0.000 C 
ATOM     20  C   UNL     1       0.806   8.561  20.595  0.00  0.00    +0.000 C 
ATOM     21  C   UNL     1       0.520   9.652  19.561  0.00  0.00    +0.000 C 
ATOM     22  C   UNL     1       0.801   9.270  18.105  0.00  0.00    +0.000 C 
ATOM     23  C   UNL     1       2.293   9.097  17.820  0.00  0.00    +0.000 C 
ATOM     24  C   UNL     1       2.803   7.680  18.088  0.00  0.00    +0.000 C 
ENDBRANCH  15  16
ENDBRANCH   1  15
TORSDOF 5
ENDMDL
MODEL 2
REMARK VINA RESULT:      -7.7      1.677      2.104
REMARK  Name = 
REMARK  6 active torsions:
REMARK  status: ('A' for Active; 'I' for Inactive)
REMARK    1  A    between atoms: C_1  and  S_2
REMARK    2  A    between atoms: S_2  and  N_5
REMARK    3  A    between atoms: N_5  and  C_6
REMARK    4  A    between atoms: N_5  and  C_16
REMARK    5  A    between atoms: C_6  and  C_7
REMARK    6  A    between atoms: C_20  and  N_21
REMARK                            x       y       z     vdW  Elec       q    Type
REMARK                         _______ _______ _______ _____ _____    ______ ____
ROOT
ATOM      1  N   UNL     1       3.252   4.120  18.446  0.00  0.00    +0.000 N 
ENDROOT
BRANCH   1   2
ATOM      2  C   UNL     1       4.571   4.540  18.117  0.00  0.00    +0.000 A 
ATOM      3  C   UNL     1       5.405   4.996  19.139  0.00  0.00    +0.000 A 
ATOM      4  C   UNL     1       6.722   5.360  18.859  0.00  0.00    +0.000 A 
ATOM      5  C   UNL     1       7.215   5.251  17.557  0.00  0.00    +0.000 A 
ATOM      6  C   UNL     1       6.377   4.772  16.538  0.00  0.00    +0.000 A 
ATOM      7  C   UNL     1       5.051   4.411  16.812  0.00  0.00    +0.000 A 
BRANCH   6   8
ATOM      8  N   UNL     1       6.906   4.629  15.175  0.00  0.00    +0.000 N 
ATOM      9  O   UNL     1       6.414   3.745  14.458  0.00  0.00    +0.000 OA
ATOM     10  O   UNL     1       7.798   5.409  14.816  0.00  0.00    +0.000 OA
ENDBRANCH   6   8
ENDBRANCH   1   2
BRANCH   1  12
ATOM     11  C   UNL     1       1.252   2.342  18.885  0.00  0.00    +0.000 C 
ATOM     12  S   UNL     1       2.994   2.611  19.130  0.00  0.00    +0.000 S 
ATOM     13  O   UNL     1       3.228   2.720  20.555  0.00  0.00    +0.000 OA
ATOM     14  O   UNL     1       3.700   1.617  18.343  0.00  0.00    +0.000 OA
ENDBRANCH   1  12
BRANCH   1  15
ATOM     15  C   UNL     1       2.142   5.080  18.321  0.00  0.00    +0.000 C 
BRANCH  15  16
ATOM     16  C   UNL     1       1.907   5.975  19.532  0.00  0.00    +0.000 C 
ATOM     17  O   UNL     1       1.422   5.533  20.575  0.00  0.00    +0.000 OA
ATOM     18  N   UNL     1       2.237   7.331  19.389  0.00  0.00    +0.000 N 
ATOM     19  C   UNL     1       2.077   8.213  20.547  0.00  0.00    +0.000 C 
ATOM     20  C   UNL     1       0.651   8.752  20.646  0.00  0.00    +0.000 C 
ATOM     21  C   UNL     1       0.288   9.802  19.596  0.00  0.00    +0.000 C 
ATOM     22  C   UNL     1       0.574   9.409  18.144  0.00  0.00    +0.000 C 
ATOM     23  C   UNL     1       2.070   9.320  17.842  0.00  0.00    +0.000 C 
ATOM     24  C   UNL     1       2.668   7.943  18.131  0.00  0.00    +0.000 C 
ENDBRANCH  15  16
ENDBRANCH   1  15
TORSDOF 5
ENDMDL
MODEL 3
REMARK VINA RESULT:      -7.7      2.004      5.347
REMARK  Name = 
REMARK  6 active torsions:
REMARK  status: ('A' for Active; 'I' for Inactive)
REMARK    1  A    between atoms: C_1  and  S_2
REMARK    2  A    between atoms: S_2  and  N_5
REMARK    3  A    between atoms: N_5  and  C_6
REMARK    4  A    between atoms: N_5  and  C_16
REMARK    5  A    between atoms: C_6  and  C_7
REMARK    6  A    between atoms: C_20  and  N_21
REMARK                            x       y       z     vdW  Elec       q    Type
REMARK                         _______ _______ _______ _____ _____    ______ ____
ROOT
ATOM      1  N   UNL     1       2.634   4.594  19.316  0.00  0.00    +0.000 N 
ENDROOT
BRANCH   1   2
ATOM      2  C   UNL     1       2.388   5.996  19.332  0.00  0.00    +0.000 A 
ATOM      3  C   UNL     1       2.621   6.731  18.168  0.00  0.00    +0.000 A 
ATOM      4  C   UNL     1       2.334   8.096  18.134  0.00  0.00    +0.000 A 
ATOM      5  C   UNL     1       1.799   8.726  19.258  0.00  0.00    +0.000 A 
ATOM      6  C   UNL     1       1.548   7.976  20.418  0.00  0.00    +0.000 A 
ATOM      7  C   UNL     1       1.840   6.606  20.461  0.00  0.00    +0.000 A 
BRANCH   6   8
ATOM      8  N   UNL     1       0.955   8.634  21.590  0.00  0.00    +0.000 N 
ATOM      9  O   UNL     1       1.710   9.285  22.326  0.00  0.00    +0.000 OA
ATOM     10  O   UNL     1      -0.265   8.514  21.763  0.00  0.00    +0.000 OA
ENDBRANCH   6   8
ENDBRANCH   1   2
BRANCH   1  12
ATOM     11  C   UNL     1       2.007   1.974  19.624  0.00  0.00    +0.000 C 
ATOM     12  S   UNL     1       1.802   3.581  20.361  0.00  0.00    +0.000 S 
ATOM     13  O   UNL     1       0.396   3.922  20.289  0.00  0.00    +0.000 OA
ATOM     14  O   UNL     1       2.489   3.563  21.637  0.00  0.00    +0.000 OA
ENDBRANCH   1  12
BRANCH   1  15
ATOM     15  C   UNL     1       3.510   4.031  18.273  0.00  0.00    +0.000 C 
BRANCH  15  16
ATOM     16  C   UNL     1       4.999   4.019  18.601  0.00  0.00    +0.000 C 
ATOM     17  O   UNL     1       5.420   3.559  19.663  0.00  0.00    +0.000 OA
ATOM     18  N   UNL     1       5.859   4.589  17.650  0.00  0.00    +0.000 N 
ATOM     19  C   UNL     1       7.301   4.547  17.903  0.00  0.00    +0.000 C 
ATOM     20  C   UNL     1       7.752   5.729  18.760  0.00  0.00    +0.000 C 
ATOM     21  C   UNL     1       7.755   7.078  18.041  0.00  0.00    +0.000 C 
ATOM     22  C   UNL     1       6.453   7.448  17.326  0.00  0.00    +0.000 C 
ATOM     23  C   UNL     1       6.178   6.564  16.110  0.00  0.00    +0.000 C 
ATOM     24  C   UNL     1       5.405   5.288  16.447  0.00  0.00    +0.000 C 
ENDBRANCH  15  16
ENDBRANCH   1  15
TORSDOF 5
ENDMDL
MODEL 4
REMARK VINA RESULT:      -7.4      1.810      2.217
REMARK  Name = 
REMARK  6 active torsions:
REMARK  status: ('A' for Active; 'I' for Inactive)
REMARK    1  A    between atoms: C_1  and  S_2
REMARK    2  A    between atoms: S_2  and  N_5
REMARK    3  A    between atoms: N_5  and  C_6
REMARK    4  A    between atoms: N_5  and  C_16
REMARK    5  A    between atoms: C_6  and  C_7
REMARK    6  A    between atoms: C_20  and  N_21
REMARK                            x       y       z     vdW  Elec       q    Type
REMARK                         _______ _______ _______ _____ _____    ______ ____
ROOT
ATOM      1  N   UNL     1       3.285   4.225  18.569  0.00  0.00    +0.000 N 
ENDROOT
BRANCH   1   2
ATOM      2  C   UNL     1       4.603   4.625  18.212  0.00  0.00    +0.000 A 
ATOM      3  C   UNL     1       5.460   5.086  19.213  0.00  0.00    +0.000 A 
ATOM      4  C   UNL     1       6.776   5.430  18.905  0.00  0.00    +0.000 A 
ATOM      5  C   UNL     1       7.244   5.298  17.596  0.00  0.00    +0.000 A 
ATOM      6  C   UNL     1       6.383   4.816  16.598  0.00  0.00    +0.000 A 
ATOM      7  C   UNL     1       5.058   4.474  16.900  0.00  0.00    +0.000 A 
BRANCH   6   8
ATOM      8  N   UNL     1       6.886   4.649  15.229  0.00  0.00    +0.000 N 
ATOM      9  O   UNL     1       7.765   5.432  14.839  0.00  0.00    +0.000 OA
ATOM     10  O   UNL     1       6.417   3.725  14.550  0.00  0.00    +0.000 OA
ENDBRANCH   6   8
ENDBRANCH   1   2
BRANCH   1  12
ATOM     11  C   UNL     1       3.589   1.569  18.114  0.00  0.00    +0.000 C 
ATOM     12  S   UNL     1       3.028   2.750  19.322  0.00  0.00    +0.000 S 
ATOM     13  O   UNL     1       1.599   2.572  19.481  0.00  0.00    +0.000 OA
ATOM     14  O   UNL     1       3.912   2.651  20.467  0.00  0.00    +0.000 OA
ENDBRANCH   1  12
BRANCH   1  15
ATOM     15  C   UNL     1       2.177   5.182  18.409  0.00  0.00    +0.000 C 
BRANCH  15  16
ATOM     16  C   UNL     1       1.910   6.087  19.606  0.00  0.00    +0.000 C 
ATOM     17  O   UNL     1       1.434   5.645  20.653  0.00  0.00    +0.000 OA
ATOM     18  N   UNL     1       2.201   7.450  19.446  0.00  0.00    +0.000 N 
ATOM     19  C   UNL     1       2.010   8.342  20.590  0.00  0.00    +0.000 C 
ATOM     20  C   UNL     1       0.569   8.841  20.677  0.00  0.00    +0.000 C 
ATOM     21  C   UNL     1       0.179   9.865  19.610  0.00  0.00    +0.000 C 
ATOM     22  C   UNL     1       0.483   9.461  18.165  0.00  0.00    +0.000 C 
ATOM     23  C   UNL     1       1.982   9.412  17.871  0.00  0.00    +0.000 C 
ATOM     24  C   UNL     1       2.619   8.057  18.181  0.00  0.00    +0.000 C 
ENDBRANCH  15  16
ENDBRANCH   1  15
TORSDOF 5
ENDMDL
MODEL 5
REMARK VINA RESULT:      -7.3      3.345      5.585
REMARK  Name = 
REMARK  6 active torsions:
REMARK  status: ('A' for Active; 'I' for Inactive)
REMARK    1  A    between atoms: C_1  and  S_2
REMARK    2  A    between atoms: S_2  and  N_5
REMARK    3  A    between atoms: N_5  and  C_6
REMARK    4  A    between atoms: N_5  and  C_16
REMARK    5  A    between atoms: C_6  and  C_7
REMARK    6  A    between atoms: C_20  and  N_21
REMARK                            x       y       z     vdW  Elec       q    Type
REMARK                         _______ _______ _______ _____ _____    ______ ____
ROOT
ATOM      1  N   UNL     1       5.919   4.566  16.417  0.00  0.00    +0.000 N 
ENDROOT
BRANCH   1   2
ATOM      2  C   UNL     1       6.244   4.522  15.033  0.00  0.00    +0.000 A 
ATOM      3  C   UNL     1       7.361   5.227  14.582  0.00  0.00    +0.000 A 
ATOM      4  C   UNL     1       7.740   5.156  13.241  0.00  0.00    +0.000 A 
ATOM      5  C   UNL     1       7.011   4.366  12.351  0.00  0.00    +0.000 A 
ATOM      6  C   UNL     1       5.900   3.644  12.815  0.00  0.00    +0.000 A 
ATOM      7  C   UNL     1       5.512   3.716  14.159  0.00  0.00    +0.000 A 
BRANCH   6   8
ATOM      8  N   UNL     1       5.154   2.789  11.883  0.00  0.00    +0.000 N 
ATOM      9  O   UNL     1       4.041   3.185  11.505  0.00  0.00    +0.000 OA
ATOM     10  O   UNL     1       5.686   1.732  11.516  0.00  0.00    +0.000 OA
ENDBRANCH   6   8
ENDBRANCH   1   2
BRANCH   1  12
ATOM     11  C   UNL     1       7.362   6.556  17.564  0.00  0.00    +0.000 C 
ATOM     12  S   UNL     1       7.126   4.791  17.559  0.00  0.00    +0.000 S 
ATOM     13  O   UNL     1       8.340   4.186  17.051  0.00  0.00    +0.000 OA
ATOM     14  O   UNL     1       6.609   4.420  18.862  0.00  0.00    +0.000 OA
ENDBRANCH   1  12
BRANCH   1  15
ATOM     15  C   UNL     1       4.503   4.565  16.823  0.00  0.00    +0.000 C 
BRANCH  15  16
ATOM     16  C   UNL     1       4.061   3.375  17.666  0.00  0.00    +0.000 C 
ATOM     17  O   UNL     1       4.012   2.236  17.198  0.00  0.00    +0.000 OA
ATOM     18  N   UNL     1       3.680   3.645  18.990  0.00  0.00    +0.000 N 
ATOM     19  C   UNL     1       3.302   2.521  19.848  0.00  0.00    +0.000 C 
ATOM     20  C   UNL     1       1.826   2.164  19.683  0.00  0.00    +0.000 C 
ATOM     21  C   UNL     1       0.849   3.168  20.296  0.00  0.00    +0.000 C 
ATOM     22  C   UNL     1       1.059   4.628  19.884  0.00  0.00    +0.000 C 
ATOM     23  C   UNL     1       2.351   5.219  20.450  0.00  0.00    +0.000 C 
ATOM     24  C   UNL     1       3.568   4.991  19.553  0.00  0.00    +0.000 C 
ENDBRANCH  15  16
ENDBRANCH   1  15
TORSDOF 5
ENDMDL
MODEL 6
REMARK VINA RESULT:      -7.1      2.183      5.405
REMARK  Name = 
REMARK  6 active torsions:
REMARK  status: ('A' for Active; 'I' for Inactive)
REMARK    1  A    between atoms: C_1  and  S_2
REMARK    2  A    between atoms: S_2  and  N_5
REMARK    3  A    between atoms: N_5  and  C_6
REMARK    4  A    between atoms: N_5  and  C_16
REMARK    5  A    between atoms: C_6  and  C_7
REMARK    6  A    between atoms: C_20  and  N_21
REMARK                            x       y       z     vdW  Elec       q    Type
REMARK                         _______ _______ _______ _____ _____    ______ ____
ROOT
ATOM      1  N   UNL     1       5.003   5.130  17.829  0.00  0.00    +0.000 N 
ENDROOT
BRANCH   1   2
ATOM      2  C   UNL     1       4.072   6.175  18.085  0.00  0.00    +0.000 A 
ATOM      3  C   UNL     1       3.823   7.114  17.083  0.00  0.00    +0.000 A 
ATOM      4  C   UNL     1       2.872   8.115  17.282  0.00  0.00    +0.000 A 
ATOM      5  C   UNL     1       2.155   8.169  18.478  0.00  0.00    +0.000 A 
ATOM      6  C   UNL     1       2.396   7.210  19.474  0.00  0.00    +0.000 A 
ATOM      7  C   UNL     1       3.354   6.206  19.282  0.00  0.00    +0.000 A 
BRANCH   6   8
ATOM      8  N   UNL     1       1.618   7.250  20.719  0.00  0.00    +0.000 N 
ATOM      9  O   UNL     1       1.493   8.346  21.284  0.00  0.00    +0.000 OA
ATOM     10  O   UNL     1       1.118   6.191  21.122  0.00  0.00    +0.000 OA
ENDBRANCH   6   8
ENDBRANCH   1   2
BRANCH   1  12
ATOM     11  C   UNL     1       7.156   6.778  17.917  0.00  0.00    +0.000 C 
ATOM     12  S   UNL     1       6.548   5.201  18.477  0.00  0.00    +0.000 S 
ATOM     13  O   UNL     1       7.346   4.172  17.844  0.00  0.00    +0.000 OA
ATOM     14  O   UNL     1       6.443   5.266  19.922  0.00  0.00    +0.000 OA
ENDBRANCH   1  12
BRANCH   1  15
ATOM     15  C   UNL     1       4.549   3.922  17.119  0.00  0.00    +0.000 C 
BRANCH  15  16
ATOM     16  C   UNL     1       3.131   3.464  17.442  0.00  0.00    +0.000 C 
ATOM     17  O   UNL     1       2.158   3.895  16.820  0.00  0.00    +0.000 OA
ATOM     18  N   UNL     1       2.986   2.555  18.501  0.00  0.00    +0.000 N 
ATOM     19  C   UNL     1       1.647   2.049  18.806  0.00  0.00    +0.000 C 
ATOM     20  C   UNL     1       0.893   2.991  19.743  0.00  0.00    +0.000 C 
ATOM     21  C   UNL     1       1.395   2.995  21.188  0.00  0.00    +0.000 C 
ATOM     22  C   UNL     1       2.900   3.213  21.363  0.00  0.00    +0.000 C 
ATOM     23  C   UNL     1       3.728   2.033  20.857  0.00  0.00    +0.000 C 
ATOM     24  C   UNL     1       4.082   2.129  19.372  0.00  0.00    +0.000 C 
ENDBRANCH  15  16
ENDBRANCH   1  15
TORSDOF 5
ENDMDL
MODEL 7
REMARK VINA RESULT:      -7.1      3.444      5.569
REMARK  Name = 
REMARK  6 active torsions:
REMARK  status: ('A' for Active; 'I' for Inactive)
REMARK    1  A    between atoms: C_1  and  S_2
REMARK    2  A    between atoms: S_2  and  N_5
REMARK    3  A    between atoms: N_5  and  C_6
REMARK    4  A    between atoms: N_5  and  C_16
REMARK    5  A    between atoms: C_6  and  C_7
REMARK    6  A    between atoms: C_20  and  N_21
REMARK                            x       y       z     vdW  Elec       q    Type
REMARK                         _______ _______ _______ _____ _____    ______ ____
ROOT
ATOM      1  N   UNL     1       6.018   4.067  16.461  0.00  0.00    +0.000 N 
ENDROOT
BRANCH   1   2
ATOM      2  C   UNL     1       6.306   4.216  15.076  0.00  0.00    +0.000 A 
ATOM      3  C   UNL     1       7.384   5.017  14.697  0.00  0.00    +0.000 A 
ATOM      4  C   UNL     1       7.729   5.136  13.350  0.00  0.00    +0.000 A 
ATOM      5  C   UNL     1       7.005   4.440  12.380  0.00  0.00    +0.000 A 
ATOM      6  C   UNL     1       5.935   3.620  12.770  0.00  0.00    +0.000 A 
ATOM      7  C   UNL     1       5.581   3.501  14.121  0.00  0.00    +0.000 A 
BRANCH   6   8
ATOM      8  N   UNL     1       5.196   2.864  11.752  0.00  0.00    +0.000 N 
ATOM      9  O   UNL     1       5.656   1.766  11.404  0.00  0.00    +0.000 OA
ATOM     10  O   UNL     1       4.147   3.357  11.314  0.00  0.00    +0.000 OA
ENDBRANCH   6   8
ENDBRANCH   1   2
BRANCH   1  12
ATOM     11  C   UNL     1       7.088   6.435  17.237  0.00  0.00    +0.000 C 
ATOM     12  S   UNL     1       7.063   4.695  17.611  0.00  0.00    +0.000 S 
ATOM     13  O   UNL     1       8.387   4.169  17.348  0.00  0.00    +0.000 OA
ATOM     14  O   UNL     1       6.460   4.543  18.921  0.00  0.00    +0.000 OA
ENDBRANCH   1  12
BRANCH   1  15
ATOM     15  C   UNL     1       4.723   3.493  16.867  0.00  0.00    +0.000 C 
BRANCH  15  16
ATOM     16  C   UNL     1       3.704   4.488  17.412  0.00  0.00    +0.000 C 
ATOM     17  O   UNL     1       3.853   5.703  17.271  0.00  0.00    +0.000 OA
ATOM     18  N   UNL     1       2.610   3.955  18.109  0.00  0.00    +0.000 N 
ATOM     19  C   UNL     1       1.582   4.874  18.600  0.00  0.00    +0.000 C 
ATOM     20  C   UNL     1       1.949   5.445  19.968  0.00  0.00    +0.000 C 
ATOM     21  C   UNL     1       1.842   4.453  21.127  0.00  0.00    +0.000 C 
ATOM     22  C   UNL     1       2.574   3.123  20.927  0.00  0.00    +0.000 C 
ATOM     23  C   UNL     1       1.930   2.254  19.847  0.00  0.00    +0.000 C 
ATOM     24  C   UNL     1       2.460   2.537  18.441  0.00  0.00    +0.000 C 
ENDBRANCH  15  16
ENDBRANCH   1  15
TORSDOF 5
ENDMDL
MODEL 8
REMARK VINA RESULT:      -7.1      2.125      5.398
REMARK  Name = 
REMARK  6 active torsions:
REMARK  status: ('A' for Active; 'I' for Inactive)
REMARK    1  A    between atoms: C_1  and  S_2
REMARK    2  A    between atoms: S_2  and  N_5
REMARK    3  A    between atoms: N_5  and  C_6
REMARK    4  A    between atoms: N_5  and  C_16
REMARK    5  A    between atoms: C_6  and  C_7
REMARK    6  A    between atoms: C_20  and  N_21
REMARK                            x       y       z     vdW  Elec       q    Type
REMARK                         _______ _______ _______ _____ _____    ______ ____
ROOT
ATOM      1  N   UNL     1       4.597   5.324  17.702  0.00  0.00    +0.000 N 
ENDROOT
BRANCH   1   2
ATOM      2  C   UNL     1       3.740   6.398  18.074  0.00  0.00    +0.000 A 
ATOM      3  C   UNL     1       3.492   7.411  17.146  0.00  0.00    +0.000 A 
ATOM      4  C   UNL     1       2.610   8.446  17.459  0.00  0.00    +0.000 A 
ATOM      5  C   UNL     1       1.961   8.461  18.695  0.00  0.00    +0.000 A 
ATOM      6  C   UNL     1       2.200   7.428  19.615  0.00  0.00    +0.000 A 
ATOM      7  C   UNL     1       3.089   6.389  19.309  0.00  0.00    +0.000 A 
BRANCH   6   8
ATOM      8  N   UNL     1       1.493   7.429  20.902  0.00  0.00    +0.000 N 
ATOM      9  O   UNL     1       0.980   6.364  21.276  0.00  0.00    +0.000 OA
ATOM     10  O   UNL     1       1.466   8.486  21.546  0.00  0.00    +0.000 OA
ENDBRANCH   6   8
ENDBRANCH   1   2
BRANCH   1  12
ATOM     11  C   UNL     1       7.036   4.396  16.965  0.00  0.00    +0.000 C 
ATOM     12  S   UNL     1       6.180   5.282  18.250  0.00  0.00    +0.000 S 
ATOM     13  O   UNL     1       6.217   4.466  19.447  0.00  0.00    +0.000 OA
ATOM     14  O   UNL     1       6.704   6.634  18.267  0.00  0.00    +0.000 OA
ENDBRANCH   1  12
BRANCH   1  15
ATOM     15  C   UNL     1       4.035   4.182  16.960  0.00  0.00    +0.000 C 
BRANCH  15  16
ATOM     16  C   UNL     1       2.671   3.696  17.435  0.00  0.00    +0.000 C 
ATOM     17  O   UNL     1       1.626   4.158  16.972  0.00  0.00    +0.000 OA
ATOM     18  N   UNL     1       2.663   2.724  18.446  0.00  0.00    +0.000 N 
ATOM     19  C   UNL     1       1.374   2.191  18.891  0.00  0.00    +0.000 C 
ATOM     20  C   UNL     1       0.750   3.069  19.974  0.00  0.00    +0.000 C 
ATOM     21  C   UNL     1       1.435   2.989  21.339  0.00  0.00    +0.000 C 
ATOM     22  C   UNL     1       2.951   3.206  21.330  0.00  0.00    +0.000 C 
ATOM     23  C   UNL     1       3.704   2.063  20.650  0.00  0.00    +0.000 C 
ATOM     24  C   UNL     1       3.863   2.252  19.140  0.00  0.00    +0.000 C 
ENDBRANCH  15  16
ENDBRANCH   1  15
TORSDOF 5
ENDMDL
MODEL 9
REMARK VINA RESULT:      -7.1      2.778      5.864
REMARK  Name = 
REMARK  6 active torsions:
REMARK  status: ('A' for Active; 'I' for Inactive)
REMARK    1  A    between atoms: C_1  and  S_2
REMARK    2  A    between atoms: S_2  and  N_5
REMARK    3  A    between atoms: N_5  and  C_6
REMARK    4  A    between atoms: N_5  and  C_16
REMARK    5  A    between atoms: C_6  and  C_7
REMARK    6  A    between atoms: C_20  and  N_21
REMARK                            x       y       z     vdW  Elec       q    Type
REMARK                         _______ _______ _______ _____ _____    ______ ____
ROOT
ATOM      1  N   UNL     1       4.671   5.725  17.577  0.00  0.00    +0.000 N 
ENDROOT
BRANCH   1   2
ATOM      2  C   UNL     1       3.661   6.463  18.255  0.00  0.00    +0.000 A 
ATOM      3  C   UNL     1       3.269   6.050  19.530  0.00  0.00    +0.000 A 
ATOM      4  C   UNL     1       2.324   6.786  20.244  0.00  0.00    +0.000 A 
ATOM      5  C   UNL     1       1.780   7.948  19.692  0.00  0.00    +0.000 A 
ATOM      6  C   UNL     1       2.194   8.368  18.419  0.00  0.00    +0.000 A 
ATOM      7  C   UNL     1       3.139   7.629  17.694  0.00  0.00    +0.000 A 
BRANCH   6   8
ATOM      8  N   UNL     1       1.645   9.607  17.853  0.00  0.00    +0.000 N 
ATOM      9  O   UNL     1       0.412   9.698  17.758  0.00  0.00    +0.000 OA
ATOM     10  O   UNL     1       2.443  10.494  17.521  0.00  0.00    +0.000 OA
ENDBRANCH   6   8
ENDBRANCH   1   2
BRANCH   1  12
ATOM     11  C   UNL     1       6.967   5.253  16.213  0.00  0.00    +0.000 C 
ATOM     12  S   UNL     1       5.763   6.512  16.578  0.00  0.00    +0.000 S 
ATOM     13  O   UNL     1       6.423   7.539  17.358  0.00  0.00    +0.000 OA
ATOM     14  O   UNL     1       5.097   6.847  15.335  0.00  0.00    +0.000 OA
ENDBRANCH   1  12
BRANCH   1  15
ATOM     15  C   UNL     1       4.839   4.293  17.881  0.00  0.00    +0.000 C 
BRANCH  15  16
ATOM     16  C   UNL     1       3.596   3.431  17.698  0.00  0.00    +0.000 C 
ATOM     17  O   UNL     1       2.924   3.481  16.666  0.00  0.00    +0.000 OA
ATOM     18  N   UNL     1       3.235   2.604  18.772  0.00  0.00    +0.000 N 
ATOM     19  C   UNL     1       2.079   1.721  18.614  0.00  0.00    +0.000 C 
ATOM     20  C   UNL     1       0.775   2.439  18.958  0.00  0.00    +0.000 C 
ATOM     21  C   UNL     1       0.566   2.709  20.449  0.00  0.00    +0.000 C 
ATOM     22  C   UNL     1       1.726   3.409  21.161  0.00  0.00    +0.000 C 
ATOM     23  C   UNL     1       2.964   2.521  21.282  0.00  0.00    +0.000 C 
ATOM     24  C   UNL     1       3.901   2.616  20.076  0.00  0.00    +0.000 C 
ENDBRANCH  15  16
ENDBRANCH   1  15
TORSDOF 5
ENDMDL
