MODEL 1
REMARK VINA RESULT:      -7.3      0.000      0.000
REMARK  Name = 
REMARK  7 active torsions:
REMARK  status: ('A' for Active; 'I' for Inactive)
REMARK    1  A    between atoms: C_1  and  C_2
REMARK    2  A    between atoms: C_2  and  O_3
REMARK    3  A    between atoms: O_3  and  C_4
REMARK    4  A    between atoms: C_4  and  C_6
REMARK    5  A    between atoms: C_6  and  C_7
REMARK    6  A    between atoms: C_22  and  C_23
REMARK    7  A    between atoms: N_25  and  C_26
REMARK                            x       y       z     vdW  Elec       q    Type
REMARK                         _______ _______ _______ _____ _____    ______ ____
ROOT
ATOM      1  C   UNL     1       4.528   5.325  17.166  0.00  0.00    +0.000 C 
ATOM      2  C   UNL     1       3.662   5.472  18.198  0.00  0.00    +0.000 C 
ATOM      3  C   UNL     1       3.228   4.483  19.262  0.00  0.00    +0.000 A 
ATOM      4  C   UNL     1       3.386   3.123  19.465  0.00  0.00    +0.000 A 
ATOM      5  C   UNL     1       2.827   2.528  20.616  0.00  0.00    +0.000 A 
ATOM      6  C   UNL     1       2.087   3.275  21.539  0.00  0.00    +0.000 A 
ATOM      7  C   UNL     1       1.877   4.632  21.319  0.00  0.00    +0.000 A 
ATOM      8  C   UNL     1       2.438   5.211  20.185  0.00  0.00    +0.000 A 
ATOM      9  C   UNL     1       2.308   6.573  19.738  0.00  0.00    +0.000 A 
ATOM     10  N   UNL     1       1.589   7.499  20.388  0.00  0.00    +0.000 NA
ATOM     11  C   UNL     1       1.638   8.686  19.726  0.00  0.00    +0.000 A 
ATOM     12  C   UNL     1       2.343   8.920  18.541  0.00  0.00    +0.000 A 
ATOM     13  N   UNL     1       3.074   7.950  17.900  0.00  0.00    +0.000 NA
ATOM     14  C   UNL     1       3.003   6.773  18.546  0.00  0.00    +0.000 A 
ATOM     15  C   UNL     1       2.106  10.279  18.247  0.00  0.00    +0.000 A 
ATOM     16  C   UNL     1       2.652  11.076  17.122  0.00  0.00    +0.000 C 
ATOM     17  N   UNL     1       1.280  10.855  19.134  0.00  0.00    +0.000 NA
ATOM     18  N   UNL     1       1.009   9.880  20.055  0.00  0.00    +0.000 N 
ENDROOT
BRANCH  18  19
ATOM     19  C   UNL     1       0.173  10.158  21.181  0.00  0.00    +0.000 A 
ATOM     20  C   UNL     1      -0.703  11.253  21.139  0.00  0.00    +0.000 A 
ATOM     21  C   UNL     1      -1.527  11.542  22.231  0.00  0.00    +0.000 A 
ATOM     22  C   UNL     1      -1.482  10.749  23.376  0.00  0.00    +0.000 A 
ATOM     23  C   UNL     1      -0.616   9.662  23.430  0.00  0.00    +0.000 A 
ATOM     24  C   UNL     1       0.205   9.365  22.340  0.00  0.00    +0.000 A 
ENDBRANCH  18  19
BRANCH   1  25
ATOM     25  C   UNL     1       5.426   4.148  17.041  0.00  0.00    +0.000 C 
ATOM     26  O   UNL     1       5.291   3.257  16.218  0.00  0.00    +0.000 OA
BRANCH  25  27
ATOM     27  O   UNL     1       6.319   4.120  18.065  0.00  0.00    +0.000 OA
BRANCH  27  29
ATOM     28  C   UNL     1       7.825   5.817  18.884  0.00  0.00    +0.000 C 
ATOM     29  C   UNL     1       7.560   4.790  17.793  0.00  0.00    +0.000 C 
ENDBRANCH  27  29
ENDBRANCH  25  27
ENDBRANCH   1  25
BRANCH   1  30
ATOM     30  C   UNL     1       4.860   6.448  16.198  0.00  0.00    +0.000 C 
ATOM     31  N   UNL     1       5.133   7.381  15.395  0.00  0.00    +0.000 NA
ENDBRANCH   1  30
TORSDOF 5
ENDMDL
MODEL 2
REMARK VINA RESULT:      -6.8      0.814      1.390
REMARK  Name = 
REMARK  7 active torsions:
REMARK  status: ('A' for Active; 'I' for Inactive)
REMARK    1  A    between atoms: C_1  and  C_2
REMARK    2  A    between atoms: C_2  and  O_3
REMARK    3  A    between atoms: O_3  and  C_4
REMARK    4  A    between atoms: C_4  and  C_6
REMARK    5  A    between atoms: C_6  and  C_7
REMARK    6  A    between atoms: C_22  and  C_23
REMARK    7  A    between atoms: N_25  and  C_26
REMARK                            x       y       z     vdW  Elec       q    Type
REMARK                         _______ _______ _______ _____ _____    ______ ____
ROOT
ATOM      1  C   UNL     1       4.468   5.483  17.078  0.00  0.00    +0.000 C 
ATOM      2  C   UNL     1       3.610   5.615  18.119  0.00  0.00    +0.000 C 
ATOM      3  C   UNL     1       3.187   4.612  19.174  0.00  0.00    +0.000 A 
ATOM      4  C   UNL     1       3.349   3.249  19.358  0.00  0.00    +0.000 A 
ATOM      5  C   UNL     1       2.801   2.638  20.505  0.00  0.00    +0.000 A 
ATOM      6  C   UNL     1       2.067   3.372  21.445  0.00  0.00    +0.000 A 
ATOM      7  C   UNL     1       1.854   4.732  21.245  0.00  0.00    +0.000 A 
ATOM      8  C   UNL     1       2.404   5.326  20.113  0.00  0.00    +0.000 A 
ATOM      9  C   UNL     1       2.268   6.693  19.685  0.00  0.00    +0.000 A 
ATOM     10  N   UNL     1       1.554   7.610  20.353  0.00  0.00    +0.000 NA
ATOM     11  C   UNL     1       1.596   8.805  19.707  0.00  0.00    +0.000 A 
ATOM     12  C   UNL     1       2.289   9.057  18.519  0.00  0.00    +0.000 A 
ATOM     13  N   UNL     1       3.017   8.096  17.859  0.00  0.00    +0.000 NA
ATOM     14  C   UNL     1       2.953   6.911  18.490  0.00  0.00    +0.000 A 
ATOM     15  C   UNL     1       2.048  10.419  18.245  0.00  0.00    +0.000 A 
ATOM     16  C   UNL     1       2.583  11.231  17.126  0.00  0.00    +0.000 C 
ATOM     17  N   UNL     1       1.229  10.982  19.147  0.00  0.00    +0.000 NA
ATOM     18  N   UNL     1       0.968   9.994  20.057  0.00  0.00    +0.000 N 
ENDROOT
BRANCH  18  19
ATOM     19  C   UNL     1       0.141  10.257  21.194  0.00  0.00    +0.000 A 
ATOM     20  C   UNL     1      -0.760  11.332  21.162  0.00  0.00    +0.000 A 
ATOM     21  C   UNL     1      -1.575  11.605  22.265  0.00  0.00    +0.000 A 
ATOM     22  C   UNL     1      -1.497  10.815  23.411  0.00  0.00    +0.000 A 
ATOM     23  C   UNL     1      -0.606   9.749  23.455  0.00  0.00    +0.000 A 
ATOM     24  C   UNL     1       0.207   9.467  22.354  0.00  0.00    +0.000 A 
ENDBRANCH  18  19
BRANCH   1  25
ATOM     25  C   UNL     1       5.366   4.309  16.929  0.00  0.00    +0.000 C 
ATOM     26  O   UNL     1       6.229   3.991  17.731  0.00  0.00    +0.000 OA
BRANCH  25  27
ATOM     27  O   UNL     1       5.201   3.736  15.709  0.00  0.00    +0.000 OA
BRANCH  27  29
ATOM     28  C   UNL     1       5.921   3.818  13.408  0.00  0.00    +0.000 C 
ATOM     29  C   UNL     1       6.361   3.788  14.863  0.00  0.00    +0.000 C 
ENDBRANCH  27  29
ENDBRANCH  25  27
ENDBRANCH   1  25
BRANCH   1  30
ATOM     30  C   UNL     1       4.789   6.619  16.122  0.00  0.00    +0.000 C 
ATOM     31  N   UNL     1       5.054   7.562  15.327  0.00  0.00    +0.000 NA
ENDBRANCH   1  30
TORSDOF 5
ENDMDL
MODEL 3
REMARK VINA RESULT:      -6.2      7.920     10.389
REMARK  Name = 
REMARK  7 active torsions:
REMARK  status: ('A' for Active; 'I' for Inactive)
REMARK    1  A    between atoms: C_1  and  C_2
REMARK    2  A    between atoms: C_2  and  O_3
REMARK    3  A    between atoms: O_3  and  C_4
REMARK    4  A    between atoms: C_4  and  C_6
REMARK    5  A    between atoms: C_6  and  C_7
REMARK    6  A    between atoms: C_22  and  C_23
REMARK    7  A    between atoms: N_25  and  C_26
REMARK                            x       y       z     vdW  Elec       q    Type
REMARK                         _______ _______ _______ _____ _____    ______ ____
ROOT
ATOM      1  C   UNL     1      -4.866  12.709  20.952  0.00  0.00    +0.000 C 
ATOM      2  C   UNL     1      -3.757  12.573  20.184  0.00  0.00    +0.000 C 
ATOM      3  C   UNL     1      -3.516  11.721  18.953  0.00  0.00    +0.000 A 
ATOM      4  C   UNL     1      -4.202  10.705  18.309  0.00  0.00    +0.000 A 
ATOM      5  C   UNL     1      -3.652  10.132  17.144  0.00  0.00    +0.000 A 
ATOM      6  C   UNL     1      -2.409  10.542  16.644  0.00  0.00    +0.000 A 
ATOM      7  C   UNL     1      -1.687  11.524  17.312  0.00  0.00    +0.000 A 
ATOM      8  C   UNL     1      -2.242  12.088  18.457  0.00  0.00    +0.000 A 
ATOM      9  C   UNL     1      -1.653  13.073  19.325  0.00  0.00    +0.000 A 
ATOM     10  N   UNL     1      -0.432  13.593  19.133  0.00  0.00    +0.000 NA
ATOM     11  C   UNL     1      -0.138  14.486  20.115  0.00  0.00    +0.000 A 
ATOM     12  C   UNL     1      -0.985  14.827  21.175  0.00  0.00    +0.000 A 
ATOM     13  N   UNL     1      -2.234  14.279  21.342  0.00  0.00    +0.000 NA
ATOM     14  C   UNL     1      -2.509  13.381  20.381  0.00  0.00    +0.000 A 
ATOM     15  C   UNL     1      -0.261  15.783  21.918  0.00  0.00    +0.000 A 
ATOM     16  C   UNL     1      -0.702  16.523  23.124  0.00  0.00    +0.000 C 
ATOM     17  N   UNL     1       0.963  15.999  21.412  0.00  0.00    +0.000 NA
ATOM     18  N   UNL     1       1.030  15.216  20.292  0.00  0.00    +0.000 N 
ENDROOT
BRANCH  18  19
ATOM     19  C   UNL     1       2.202  15.222  19.472  0.00  0.00    +0.000 A 
ATOM     20  C   UNL     1       2.206  15.956  18.276  0.00  0.00    +0.000 A 
ATOM     21  C   UNL     1       3.342  15.973  17.461  0.00  0.00    +0.000 A 
ATOM     22  C   UNL     1       4.480  15.255  17.825  0.00  0.00    +0.000 A 
ATOM     23  C   UNL     1       4.487  14.523  19.006  0.00  0.00    +0.000 A 
ATOM     24  C   UNL     1       3.357  14.507  19.828  0.00  0.00    +0.000 A 
ENDBRANCH  18  19
BRANCH   1  25
ATOM     25  C   UNL     1      -6.188  12.171  20.545  0.00  0.00    +0.000 C 
ATOM     26  O   UNL     1      -6.600  11.056  20.825  0.00  0.00    +0.000 OA
BRANCH  25  27
ATOM     27  O   UNL     1      -6.807  13.026  19.689  0.00  0.00    +0.000 OA
BRANCH  27  29
ATOM     28  C   UNL     1      -6.858  13.001  17.277  0.00  0.00    +0.000 C 
ATOM     29  C   UNL     1      -7.420  12.395  18.554  0.00  0.00    +0.000 C 
ENDBRANCH  27  29
ENDBRANCH  25  27
ENDBRANCH   1  25
BRANCH   1  30
ATOM     30  C   UNL     1      -4.931  13.638  22.152  0.00  0.00    +0.000 C 
ATOM     31  N   UNL     1      -4.985  14.409  23.149  0.00  0.00    +0.000 NA
ENDBRANCH   1  30
TORSDOF 5
ENDMDL
MODEL 4
REMARK VINA RESULT:      -6.2      1.886      4.644
REMARK  Name = 
REMARK  7 active torsions:
REMARK  status: ('A' for Active; 'I' for Inactive)
REMARK    1  A    between atoms: C_1  and  C_2
REMARK    2  A    between atoms: C_2  and  O_3
REMARK    3  A    between atoms: O_3  and  C_4
REMARK    4  A    between atoms: C_4  and  C_6
REMARK    5  A    between atoms: C_6  and  C_7
REMARK    6  A    between atoms: C_22  and  C_23
REMARK    7  A    between atoms: N_25  and  C_26
REMARK                            x       y       z     vdW  Elec       q    Type
REMARK                         _______ _______ _______ _____ _____    ______ ____
ROOT
ATOM      1  C   UNL     1       3.307   4.047  19.892  0.00  0.00    +0.000 C 
ATOM      2  C   UNL     1       3.421   5.208  19.201  0.00  0.00    +0.000 C 
ATOM      3  C   UNL     1       4.185   5.521  17.930  0.00  0.00    +0.000 A 
ATOM      4  C   UNL     1       5.125   4.859  17.158  0.00  0.00    +0.000 A 
ATOM      5  C   UNL     1       5.626   5.483  15.997  0.00  0.00    +0.000 A 
ATOM      6  C   UNL     1       5.221   6.772  15.626  0.00  0.00    +0.000 A 
ATOM      7  C   UNL     1       4.317   7.467  16.422  0.00  0.00    +0.000 A 
ATOM      8  C   UNL     1       3.824   6.839  17.562  0.00  0.00    +0.000 A 
ATOM      9  C   UNL     1       2.928   7.386  18.547  0.00  0.00    +0.000 A 
ATOM     10  N   UNL     1       2.436   8.632  18.489  0.00  0.00    +0.000 NA
ATOM     11  C   UNL     1       1.631   8.872  19.558  0.00  0.00    +0.000 A 
ATOM     12  C   UNL     1       1.342   7.955  20.573  0.00  0.00    +0.000 A 
ATOM     13  N   UNL     1       1.860   6.683  20.602  0.00  0.00    +0.000 NA
ATOM     14  C   UNL     1       2.673   6.458  19.556  0.00  0.00    +0.000 A 
ATOM     15  C   UNL     1       0.471   8.645  21.441  0.00  0.00    +0.000 A 
ATOM     16  C   UNL     1      -0.190   8.132  22.666  0.00  0.00    +0.000 C 
ATOM     17  N   UNL     1       0.258   9.911  21.049  0.00  0.00    +0.000 NA
ATOM     18  N   UNL     1       0.956  10.043  19.879  0.00  0.00    +0.000 N 
ENDROOT
BRANCH  18  19
ATOM     19  C   UNL     1       0.926  11.275  19.153  0.00  0.00    +0.000 A 
ATOM     20  C   UNL     1      -0.305  11.894  18.890  0.00  0.00    +0.000 A 
ATOM     21  C   UNL     1      -0.354  13.099  18.181  0.00  0.00    +0.000 A 
ATOM     22  C   UNL     1       0.821  13.693  17.721  0.00  0.00    +0.000 A 
ATOM     23  C   UNL     1       2.046  13.086  17.973  0.00  0.00    +0.000 A 
ATOM     24  C   UNL     1       2.102  11.886  18.687  0.00  0.00    +0.000 A 
ENDBRANCH  18  19
BRANCH   1  25
ATOM     25  C   UNL     1       3.767   2.746  19.345  0.00  0.00    +0.000 C 
ATOM     26  O   UNL     1       4.812   2.195  19.653  0.00  0.00    +0.000 OA
BRANCH  25  27
ATOM     27  O   UNL     1       2.947   2.334  18.343  0.00  0.00    +0.000 OA
BRANCH  27  29
ATOM     28  C   UNL     1       0.560   2.464  18.660  0.00  0.00    +0.000 C 
ATOM     29  C   UNL     1       1.798   1.590  18.780  0.00  0.00    +0.000 C 
ENDBRANCH  27  29
ENDBRANCH  25  27
ENDBRANCH   1  25
BRANCH   1  30
ATOM     30  C   UNL     1       2.469   3.914  21.153  0.00  0.00    +0.000 C 
ATOM     31  N   UNL     1       1.775   3.805  22.200  0.00  0.00    +0.000 NA
ENDBRANCH   1  30
TORSDOF 5
ENDMDL
MODEL 5
REMARK VINA RESULT:      -6.1      6.756      9.480
REMARK  Name = 
REMARK  7 active torsions:
REMARK  status: ('A' for Active; 'I' for Inactive)
REMARK    1  A    between atoms: C_1  and  C_2
REMARK    2  A    between atoms: C_2  and  O_3
REMARK    3  A    between atoms: O_3  and  C_4
REMARK    4  A    between atoms: C_4  and  C_6
REMARK    5  A    between atoms: C_6  and  C_7
REMARK    6  A    between atoms: C_22  and  C_23
REMARK    7  A    between atoms: N_25  and  C_26
REMARK                            x       y       z     vdW  Elec       q    Type
REMARK                         _______ _______ _______ _____ _____    ______ ____
ROOT
ATOM      1  C   UNL     1      -2.443  11.029  18.222  0.00  0.00    +0.000 C 
ATOM      2  C   UNL     1      -3.294  11.841  18.897  0.00  0.00    +0.000 C 
ATOM      3  C   UNL     1      -4.807  11.926  18.858  0.00  0.00    +0.000 A 
ATOM      4  C   UNL     1      -5.802  11.392  18.058  0.00  0.00    +0.000 A 
ATOM      5  C   UNL     1      -7.150  11.699  18.337  0.00  0.00    +0.000 A 
ATOM      6  C   UNL     1      -7.503  12.560  19.383  0.00  0.00    +0.000 A 
ATOM      7  C   UNL     1      -6.509  13.144  20.161  0.00  0.00    +0.000 A 
ATOM      8  C   UNL     1      -5.182  12.829  19.881  0.00  0.00    +0.000 A 
ATOM      9  C   UNL     1      -4.003  13.352  20.519  0.00  0.00    +0.000 A 
ATOM     10  N   UNL     1      -4.035  14.256  21.508  0.00  0.00    +0.000 NA
ATOM     11  C   UNL     1      -2.774  14.571  21.903  0.00  0.00    +0.000 A 
ATOM     12  C   UNL     1      -1.601  14.028  21.367  0.00  0.00    +0.000 A 
ATOM     13  N   UNL     1      -1.601  13.098  20.355  0.00  0.00    +0.000 NA
ATOM     14  C   UNL     1      -2.850  12.808  19.954  0.00  0.00    +0.000 A 
ATOM     15  C   UNL     1      -0.559  14.643  22.091  0.00  0.00    +0.000 A 
ATOM     16  C   UNL     1       0.899  14.402  21.970  0.00  0.00    +0.000 C 
ATOM     17  N   UNL     1      -1.015  15.542  22.977  0.00  0.00    +0.000 NA
ATOM     18  N   UNL     1      -2.379  15.481  22.875  0.00  0.00    +0.000 N 
ENDROOT
BRANCH  18  19
ATOM     19  C   UNL     1      -3.205  16.295  23.713  0.00  0.00    +0.000 A 
ATOM     20  C   UNL     1      -2.620  17.303  24.493  0.00  0.00    +0.000 A 
ATOM     21  C   UNL     1      -3.411  18.108  25.319  0.00  0.00    +0.000 A 
ATOM     22  C   UNL     1      -4.790  17.911  25.381  0.00  0.00    +0.000 A 
ATOM     23  C   UNL     1      -5.380  16.913  24.615  0.00  0.00    +0.000 A 
ATOM     24  C   UNL     1      -4.596  16.110  23.782  0.00  0.00    +0.000 A 
ENDBRANCH  18  19
BRANCH   1  25
ATOM     25  C   UNL     1      -2.912   9.854  17.445  0.00  0.00    +0.000 C 
ATOM     26  O   UNL     1      -3.557   8.928  17.909  0.00  0.00    +0.000 OA
BRANCH  25  27
ATOM     27  O   UNL     1      -2.393   9.876  16.189  0.00  0.00    +0.000 OA
BRANCH  27  29
ATOM     28  C   UNL     1      -3.480  10.053  14.043  0.00  0.00    +0.000 C 
ATOM     29  C   UNL     1      -3.035  10.797  15.293  0.00  0.00    +0.000 C 
ENDBRANCH  27  29
ENDBRANCH  25  27
ENDBRANCH   1  25
BRANCH   1  30
ATOM     30  C   UNL     1      -0.936  11.074  18.406  0.00  0.00    +0.000 C 
ATOM     31  N   UNL     1       0.315  11.113  18.559  0.00  0.00    +0.000 NA
ENDBRANCH   1  30
TORSDOF 5
ENDMDL
MODEL 6
REMARK VINA RESULT:      -6.1      6.139      9.583
REMARK  Name = 
REMARK  7 active torsions:
REMARK  status: ('A' for Active; 'I' for Inactive)
REMARK    1  A    between atoms: C_1  and  C_2
REMARK    2  A    between atoms: C_2  and  O_3
REMARK    3  A    between atoms: O_3  and  C_4
REMARK    4  A    between atoms: C_4  and  C_6
REMARK    5  A    between atoms: C_6  and  C_7
REMARK    6  A    between atoms: C_22  and  C_23
REMARK    7  A    between atoms: N_25  and  C_26
REMARK                            x       y       z     vdW  Elec       q    Type
REMARK                         _______ _______ _______ _____ _____    ______ ____
ROOT
ATOM      1  C   UNL     1       3.433  15.605  20.931  0.00  0.00    +0.000 C 
ATOM      2  C   UNL     1       2.279  15.545  20.221  0.00  0.00    +0.000 C 
ATOM      3  C   UNL     1       1.593  16.600  19.375  0.00  0.00    +0.000 A 
ATOM      4  C   UNL     1       1.760  17.959  19.170  0.00  0.00    +0.000 A 
ATOM      5  C   UNL     1       0.905  18.631  18.272  0.00  0.00    +0.000 A 
ATOM      6  C   UNL     1      -0.131  17.961  17.609  0.00  0.00    +0.000 A 
ATOM      7  C   UNL     1      -0.341  16.607  17.846  0.00  0.00    +0.000 A 
ATOM      8  C   UNL     1       0.513  15.952  18.730  0.00  0.00    +0.000 A 
ATOM      9  C   UNL     1       0.448  14.580  19.157  0.00  0.00    +0.000 A 
ATOM     10  N   UNL     1      -0.491  13.718  18.742  0.00  0.00    +0.000 NA
ATOM     11  C   UNL     1      -0.307  12.503  19.321  0.00  0.00    +0.000 A 
ATOM     12  C   UNL     1       0.718  12.182  20.217  0.00  0.00    +0.000 A 
ATOM     13  N   UNL     1       1.669  13.087  20.621  0.00  0.00    +0.000 NA
ATOM     14  C   UNL     1       1.469  14.293  20.063  0.00  0.00    +0.000 A 
ATOM     15  C   UNL     1       0.505  10.824  20.533  0.00  0.00    +0.000 A 
ATOM     16  C   UNL     1       1.328   9.953  21.406  0.00  0.00    +0.000 C 
ATOM     17  N   UNL     1      -0.589  10.328  19.936  0.00  0.00    +0.000 NA
ATOM     18  N   UNL     1      -1.077  11.356  19.174  0.00  0.00    +0.000 N 
ENDROOT
BRANCH  18  19
ATOM     19  C   UNL     1      -2.239  11.167  18.362  0.00  0.00    +0.000 A 
ATOM     20  C   UNL     1      -2.158  10.368  17.213  0.00  0.00    +0.000 A 
ATOM     21  C   UNL     1      -3.284  10.174  16.405  0.00  0.00    +0.000 A 
ATOM     22  C   UNL     1      -4.496  10.779  16.732  0.00  0.00    +0.000 A 
ATOM     23  C   UNL     1      -4.587  11.575  17.867  0.00  0.00    +0.000 A 
ATOM     24  C   UNL     1      -3.468  11.768  18.681  0.00  0.00    +0.000 A 
ENDBRANCH  18  19
BRANCH   1  25
ATOM     25  C   UNL     1       4.392  16.730  20.799  0.00  0.00    +0.000 C 
ATOM     26  O   UNL     1       4.529  17.624  21.619  0.00  0.00    +0.000 OA
BRANCH  25  27
ATOM     27  O   UNL     1       4.979  16.714  19.574  0.00  0.00    +0.000 OA
BRANCH  27  29
ATOM     28  C   UNL     1       5.623  14.951  18.059  0.00  0.00    +0.000 C 
ATOM     29  C   UNL     1       5.922  15.648  19.377  0.00  0.00    +0.000 C 
ENDBRANCH  27  29
ENDBRANCH  25  27
ENDBRANCH   1  25
BRANCH   1  30
ATOM     30  C   UNL     1       3.983  14.425  21.714  0.00  0.00    +0.000 C 
ATOM     31  N   UNL     1       4.442  13.445  22.363  0.00  0.00    +0.000 NA
ENDBRANCH   1  30
TORSDOF 5
ENDMDL
MODEL 7
REMARK VINA RESULT:      -6.1      4.831      8.028
REMARK  Name = 
REMARK  7 active torsions:
REMARK  status: ('A' for Active; 'I' for Inactive)
REMARK    1  A    between atoms: C_1  and  C_2
REMARK    2  A    between atoms: C_2  and  O_3
REMARK    3  A    between atoms: O_3  and  C_4
REMARK    4  A    between atoms: C_4  and  C_6
REMARK    5  A    between atoms: C_6  and  C_7
REMARK    6  A    between atoms: C_22  and  C_23
REMARK    7  A    between atoms: N_25  and  C_26
REMARK                            x       y       z     vdW  Elec       q    Type
REMARK                         _______ _______ _______ _____ _____    ______ ____
ROOT
ATOM      1  C   UNL     1       0.823  11.732  19.310  0.00  0.00    +0.000 C 
ATOM      2  C   UNL     1      -0.519  11.927  19.295  0.00  0.00    +0.000 C 
ATOM      3  C   UNL     1      -1.597  11.264  18.461  0.00  0.00    +0.000 A 
ATOM      4  C   UNL     1      -1.613  10.420  17.364  0.00  0.00    +0.000 A 
ATOM      5  C   UNL     1      -2.851   9.988  16.844  0.00  0.00    +0.000 A 
ATOM      6  C   UNL     1      -4.065  10.421  17.391  0.00  0.00    +0.000 A 
ATOM      7  C   UNL     1      -4.062  11.310  18.460  0.00  0.00    +0.000 A 
ATOM      8  C   UNL     1      -2.835  11.725  18.970  0.00  0.00    +0.000 A 
ATOM      9  C   UNL     1      -2.599  12.671  20.029  0.00  0.00    +0.000 A 
ATOM     10  N   UNL     1      -3.579  13.306  20.687  0.00  0.00    +0.000 NA
ATOM     11  C   UNL     1      -3.057  14.144  21.620  0.00  0.00    +0.000 A 
ATOM     12  C   UNL     1      -1.692  14.320  21.874  0.00  0.00    +0.000 A 
ATOM     13  N   UNL     1      -0.711  13.650  21.184  0.00  0.00    +0.000 NA
ATOM     14  C   UNL     1      -1.232  12.841  20.247  0.00  0.00    +0.000 A 
ATOM     15  C   UNL     1      -1.642  15.267  22.917  0.00  0.00    +0.000 A 
ATOM     16  C   UNL     1      -0.443  15.789  23.616  0.00  0.00    +0.000 C 
ATOM     17  N   UNL     1      -2.862  15.702  23.270  0.00  0.00    +0.000 NA
ATOM     18  N   UNL     1      -3.733  14.995  22.485  0.00  0.00    +0.000 N 
ENDROOT
BRANCH  18  19
ATOM     19  C   UNL     1      -5.144  15.183  22.619  0.00  0.00    +0.000 A 
ATOM     20  C   UNL     1      -5.795  16.132  21.818  0.00  0.00    +0.000 A 
ATOM     21  C   UNL     1      -7.175  16.331  21.936  0.00  0.00    +0.000 A 
ATOM     22  C   UNL     1      -7.916  15.591  22.856  0.00  0.00    +0.000 A 
ATOM     23  C   UNL     1      -7.280  14.649  23.657  0.00  0.00    +0.000 A 
ATOM     24  C   UNL     1      -5.903  14.442  23.539  0.00  0.00    +0.000 A 
ENDBRANCH  18  19
BRANCH   1  25
ATOM     25  C   UNL     1       1.469  10.591  18.614  0.00  0.00    +0.000 C 
ATOM     26  O   UNL     1       2.162  10.690  17.614  0.00  0.00    +0.000 OA
BRANCH  25  27
ATOM     27  O   UNL     1       1.055   9.412  19.149  0.00  0.00    +0.000 OA
BRANCH  27  29
ATOM     28  C   UNL     1       1.872   7.424  20.245  0.00  0.00    +0.000 C 
ATOM     29  C   UNL     1       2.006   8.340  19.038  0.00  0.00    +0.000 C 
ENDBRANCH  27  29
ENDBRANCH  25  27
ENDBRANCH   1  25
BRANCH   1  30
ATOM     30  C   UNL     1       1.758  12.485  20.241  0.00  0.00    +0.000 C 
ATOM     31  N   UNL     1       2.535  13.110  21.012  0.00  0.00    +0.000 NA
ENDBRANCH   1  30
TORSDOF 5
ENDMDL
MODEL 8
REMARK VINA RESULT:      -6.1      5.587     10.048
REMARK  Name = 
REMARK  7 active torsions:
REMARK  status: ('A' for Active; 'I' for Inactive)
REMARK    1  A    between atoms: C_1  and  C_2
REMARK    2  A    between atoms: C_2  and  O_3
REMARK    3  A    between atoms: O_3  and  C_4
REMARK    4  A    between atoms: C_4  and  C_6
REMARK    5  A    between atoms: C_6  and  C_7
REMARK    6  A    between atoms: C_22  and  C_23
REMARK    7  A    between atoms: N_25  and  C_26
REMARK                            x       y       z     vdW  Elec       q    Type
REMARK                         _______ _______ _______ _____ _____    ______ ____
ROOT
ATOM      1  C   UNL     1       0.267  16.138  21.862  0.00  0.00    +0.000 C 
ATOM      2  C   UNL     1       0.844  15.312  20.955  0.00  0.00    +0.000 C 
ATOM      3  C   UNL     1       1.791  15.619  19.812  0.00  0.00    +0.000 A 
ATOM      4  C   UNL     1       2.244  16.771  19.191  0.00  0.00    +0.000 A 
ATOM      5  C   UNL     1       3.161  16.664  18.125  0.00  0.00    +0.000 A 
ATOM      6  C   UNL     1       3.597  15.418  17.657  0.00  0.00    +0.000 A 
ATOM      7  C   UNL     1       3.109  14.253  18.238  0.00  0.00    +0.000 A 
ATOM      8  C   UNL     1       2.209  14.369  19.294  0.00  0.00    +0.000 A 
ATOM      9  C   UNL     1       1.545  13.307  20.003  0.00  0.00    +0.000 A 
ATOM     10  N   UNL     1       1.714  12.009  19.717  0.00  0.00    +0.000 NA
ATOM     11  C   UNL     1       0.952  11.241  20.540  0.00  0.00    +0.000 A 
ATOM     12  C   UNL     1       0.115  11.725  21.551  0.00  0.00    +0.000 A 
ATOM     13  N   UNL     1      -0.033  13.064  21.822  0.00  0.00    +0.000 NA
ATOM     14  C   UNL     1       0.704  13.819  20.991  0.00  0.00    +0.000 A 
ATOM     15  C   UNL     1      -0.451  10.571  22.130  0.00  0.00    +0.000 A 
ATOM     16  C   UNL     1      -1.381  10.493  23.283  0.00  0.00    +0.000 C 
ATOM     17  N   UNL     1      -0.056   9.446  21.515  0.00  0.00    +0.000 NA
ATOM     18  N   UNL     1       0.823   9.858  20.550  0.00  0.00    +0.000 N 
ENDROOT
BRANCH  18  19
ATOM     19  C   UNL     1       1.477   8.902  19.709  0.00  0.00    +0.000 A 
ATOM     20  C   UNL     1       1.872   7.667  20.244  0.00  0.00    +0.000 A 
ATOM     21  C   UNL     1       2.514   6.721  19.438  0.00  0.00    +0.000 A 
ATOM     22  C   UNL     1       2.773   6.999  18.096  0.00  0.00    +0.000 A 
ATOM     23  C   UNL     1       2.388   8.221  17.557  0.00  0.00    +0.000 A 
ATOM     24  C   UNL     1       1.741   9.168  18.356  0.00  0.00    +0.000 A 
ENDBRANCH  18  19
BRANCH   1  25
ATOM     25  C   UNL     1       0.683  17.554  22.027  0.00  0.00    +0.000 C 
ATOM     26  O   UNL     1       0.153  18.502  21.469  0.00  0.00    +0.000 OA
BRANCH  25  27
ATOM     27  O   UNL     1       1.828  17.632  22.755  0.00  0.00    +0.000 OA
BRANCH  27  29
ATOM     28  C   UNL     1       4.142  18.307  22.841  0.00  0.00    +0.000 C 
ATOM     29  C   UNL     1       2.757  18.629  22.301  0.00  0.00    +0.000 C 
ENDBRANCH  27  29
ENDBRANCH  25  27
ENDBRANCH   1  25
BRANCH   1  30
ATOM     30  C   UNL     1      -0.653  15.642  22.965  0.00  0.00    +0.000 C 
ATOM     31  N   UNL     1      -1.418  15.233  23.880  0.00  0.00    +0.000 NA
ENDBRANCH   1  30
TORSDOF 5
ENDMDL
MODEL 9
REMARK VINA RESULT:      -6.1      8.093     10.508
REMARK  Name = 
REMARK  7 active torsions:
REMARK  status: ('A' for Active; 'I' for Inactive)
REMARK    1  A    between atoms: C_1  and  C_2
REMARK    2  A    between atoms: C_2  and  O_3
REMARK    3  A    between atoms: O_3  and  C_4
REMARK    4  A    between atoms: C_4  and  C_6
REMARK    5  A    between atoms: C_6  and  C_7
REMARK    6  A    between atoms: C_22  and  C_23
REMARK    7  A    between atoms: N_25  and  C_26
REMARK                            x       y       z     vdW  Elec       q    Type
REMARK                         _______ _______ _______ _____ _____    ______ ____
ROOT
ATOM      1  C   UNL     1      -5.151  12.586  21.264  0.00  0.00    +0.000 C 
ATOM      2  C   UNL     1      -3.967  12.554  20.604  0.00  0.00    +0.000 C 
ATOM      3  C   UNL     1      -3.606  11.937  19.268  0.00  0.00    +0.000 A 
ATOM      4  C   UNL     1      -4.234  11.085  18.375  0.00  0.00    +0.000 A 
ATOM      5  C   UNL     1      -3.568  10.718  17.187  0.00  0.00    +0.000 A 
ATOM      6  C   UNL     1      -2.272  11.167  16.907  0.00  0.00    +0.000 A 
ATOM      7  C   UNL     1      -1.610  11.980  17.820  0.00  0.00    +0.000 A 
ATOM      8  C   UNL     1      -2.279  12.342  18.986  0.00  0.00    +0.000 A 
ATOM      9  C   UNL     1      -1.772  13.127  20.081  0.00  0.00    +0.000 A 
ATOM     10  N   UNL     1      -0.530  13.628  20.121  0.00  0.00    +0.000 NA
ATOM     11  C   UNL     1      -0.331  14.311  21.279  0.00  0.00    +0.000 A 
ATOM     12  C   UNL     1      -1.284  14.481  22.289  0.00  0.00    +0.000 A 
ATOM     13  N   UNL     1      -2.552  13.958  22.217  0.00  0.00    +0.000 NA
ATOM     14  C   UNL     1      -2.735  13.265  21.081  0.00  0.00    +0.000 A 
ATOM     15  C   UNL     1      -0.630  15.255  23.270  0.00  0.00    +0.000 A 
ATOM     16  C   UNL     1      -1.189  15.774  24.541  0.00  0.00    +0.000 C 
ATOM     17  N   UNL     1       0.646  15.516  22.946  0.00  0.00    +0.000 NA
ATOM     18  N   UNL     1       0.823  14.952  21.711  0.00  0.00    +0.000 N 
ENDROOT
BRANCH  18  19
ATOM     19  C   UNL     1       2.078  15.067  21.035  0.00  0.00    +0.000 A 
ATOM     20  C   UNL     1       2.151  15.776  19.827  0.00  0.00    +0.000 A 
ATOM     21  C   UNL     1       3.369  15.898  19.151  0.00  0.00    +0.000 A 
ATOM     22  C   UNL     1       4.522  15.310  19.667  0.00  0.00    +0.000 A 
ATOM     23  C   UNL     1       4.461  14.602  20.862  0.00  0.00    +0.000 A 
ATOM     24  C   UNL     1       3.248  14.482  21.546  0.00  0.00    +0.000 A 
ENDBRANCH  18  19
BRANCH   1  25
ATOM     25  C   UNL     1      -6.429  12.183  20.626  0.00  0.00    +0.000 C 
ATOM     26  O   UNL     1      -6.923  11.069  20.705  0.00  0.00    +0.000 OA
BRANCH  25  27
ATOM     27  O   UNL     1      -6.890  13.172  19.816  0.00  0.00    +0.000 OA
BRANCH  27  29
ATOM     28  C   UNL     1      -6.910  13.399  17.415  0.00  0.00    +0.000 C 
ATOM     29  C   UNL     1      -7.536  12.711  18.618  0.00  0.00    +0.000 C 
ENDBRANCH  27  29
ENDBRANCH  25  27
ENDBRANCH   1  25
BRANCH   1  30
ATOM     30  C   UNL     1      -5.332  13.279  22.604  0.00  0.00    +0.000 C 
ATOM     31  N   UNL     1      -5.483  13.855  23.716  0.00  0.00    +0.000 NA
ENDBRANCH   1  30
TORSDOF 5
ENDMDL
