MODEL 1
REMARK VINA RESULT:      -6.2      0.000      0.000
REMARK  Name = 
REMARK  2 active torsions:
REMARK  status: ('A' for Active; 'I' for Inactive)
REMARK    1  A    between atoms: C_2  and  C_4
REMARK    2  A    between atoms: C_8  and  N_9
REMARK                            x       y       z     vdW  Elec       q    Type
REMARK                         _______ _______ _______ _____ _____    ______ ____
ROOT
ATOM      1  C   UNL     1       6.909   5.268  18.200  0.00  0.00    +0.000 A 
ATOM      2  C   UNL     1       5.726   4.626  18.609  0.00  0.00    +0.000 A 
ATOM      3  C   UNL     1       4.891   4.017  17.674  0.00  0.00    +0.000 A 
ATOM      4  C   UNL     1       5.236   4.011  16.323  0.00  0.00    +0.000 A 
ATOM      5  C   UNL     1       6.424   4.620  15.883  0.00  0.00    +0.000 A 
ATOM      6  C   UNL     1       7.249   5.262  16.832  0.00  0.00    +0.000 A 
ENDROOT
BRANCH   1   8
ATOM      7  N   UNL     1       7.957   5.374  20.358  0.00  0.00    +0.000 NA
ATOM      8  C   UNL     1       7.782   5.933  19.212  0.00  0.00    +0.000 C 
ATOM      9  N   UNL     1       8.415   7.175  18.937  0.00  0.00    +0.000 N 
ATOM     10  H   UNL     1       8.562   5.796  21.078  0.00  0.00    +0.000 HD
ATOM     11  H   UNL     1       9.015   7.624  19.645  0.00  0.00    +0.000 HD
ATOM     12  H   UNL     1       8.217   7.702  18.075  0.00  0.00    +0.000 HD
ENDBRANCH   1   8
BRANCH   5  13
ATOM     13  N   UNL     1       6.799   4.586  14.507  0.00  0.00    +0.000 N 
ATOM     14  O   UNL     1       6.319   3.780  13.769  0.00  0.00    +0.000 OA
ATOM     15  O   UNL     1       7.723   5.403  14.043  0.00  0.00    +0.000 OA
ENDBRANCH   5  13
TORSDOF 2
ENDMDL
MODEL 2
REMARK VINA RESULT:      -6.1      3.101      4.180
REMARK  Name = 
REMARK  2 active torsions:
REMARK  status: ('A' for Active; 'I' for Inactive)
REMARK    1  A    between atoms: C_2  and  C_4
REMARK    2  A    between atoms: C_8  and  N_9
REMARK                            x       y       z     vdW  Elec       q    Type
REMARK                         _______ _______ _______ _____ _____    ______ ____
ROOT
ATOM      1  C   UNL     1       3.833   3.438  17.648  0.00  0.00    +0.000 A 
ATOM      2  C   UNL     1       3.100   4.623  17.842  0.00  0.00    +0.000 A 
ATOM      3  C   UNL     1       3.694   5.866  17.631  0.00  0.00    +0.000 A 
ATOM      4  C   UNL     1       5.016   5.947  17.194  0.00  0.00    +0.000 A 
ATOM      5  C   UNL     1       5.770   4.783  16.965  0.00  0.00    +0.000 A 
ATOM      6  C   UNL     1       5.170   3.529  17.211  0.00  0.00    +0.000 A 
ENDROOT
BRANCH   1   8
ATOM      7  N   UNL     1       1.912   2.005  17.781  0.00  0.00    +0.000 NA
ATOM      8  C   UNL     1       3.188   2.116  17.898  0.00  0.00    +0.000 C 
ATOM      9  N   UNL     1       3.956   0.980  18.273  0.00  0.00    +0.000 N 
ATOM     10  H   UNL     1       1.430   1.105  17.933  0.00  0.00    +0.000 HD
ATOM     11  H   UNL     1       3.498   0.072  18.443  0.00  0.00    +0.000 HD
ATOM     12  H   UNL     1       4.962   1.053  18.477  0.00  0.00    +0.000 HD
ENDBRANCH   1   8
BRANCH   5  13
ATOM     13  N   UNL     1       7.110   4.860  16.485  0.00  0.00    +0.000 N 
ATOM     14  O   UNL     1       7.982   4.246  17.023  0.00  0.00    +0.000 OA
ATOM     15  O   UNL     1       7.419   5.654  15.481  0.00  0.00    +0.000 OA
ENDBRANCH   5  13
TORSDOF 2
ENDMDL
MODEL 3
REMARK VINA RESULT:      -6.1      3.341      4.149
REMARK  Name = 
REMARK  2 active torsions:
REMARK  status: ('A' for Active; 'I' for Inactive)
REMARK    1  A    between atoms: C_2  and  C_4
REMARK    2  A    between atoms: C_8  and  N_9
REMARK                            x       y       z     vdW  Elec       q    Type
REMARK                         _______ _______ _______ _____ _____    ______ ____
ROOT
ATOM      1  C   UNL     1       5.644   5.064  16.853  0.00  0.00    +0.000 A 
ATOM      2  C   UNL     1       5.259   6.365  17.227  0.00  0.00    +0.000 A 
ATOM      3  C   UNL     1       3.966   6.619  17.679  0.00  0.00    +0.000 A 
ATOM      4  C   UNL     1       3.045   5.578  17.795  0.00  0.00    +0.000 A 
ATOM      5  C   UNL     1       3.403   4.262  17.455  0.00  0.00    +0.000 A 
ATOM      6  C   UNL     1       4.707   4.018  16.969  0.00  0.00    +0.000 A 
ENDROOT
BRANCH   1   8
ATOM      7  N   UNL     1       7.872   4.210  17.113  0.00  0.00    +0.000 NA
ATOM      8  C   UNL     1       7.027   4.813  16.353  0.00  0.00    +0.000 C 
ATOM      9  N   UNL     1       7.431   5.237  15.058  0.00  0.00    +0.000 N 
ATOM     10  H   UNL     1       8.834   4.007  16.798  0.00  0.00    +0.000 HD
ATOM     11  H   UNL     1       8.390   5.058  14.725  0.00  0.00    +0.000 HD
ATOM     12  H   UNL     1       6.818   5.813  14.464  0.00  0.00    +0.000 HD
ENDBRANCH   1   8
BRANCH   5  13
ATOM     13  N   UNL     1       2.477   3.188  17.604  0.00  0.00    +0.000 N 
ATOM     14  O   UNL     1       1.305   3.405  17.678  0.00  0.00    +0.000 OA
ATOM     15  O   UNL     1       2.902   1.947  17.724  0.00  0.00    +0.000 OA
ENDBRANCH   5  13
TORSDOF 2
ENDMDL
MODEL 4
REMARK VINA RESULT:      -6.0      2.483      4.420
REMARK  Name = 
REMARK  2 active torsions:
REMARK  status: ('A' for Active; 'I' for Inactive)
REMARK    1  A    between atoms: C_2  and  C_4
REMARK    2  A    between atoms: C_8  and  N_9
REMARK                            x       y       z     vdW  Elec       q    Type
REMARK                         _______ _______ _______ _____ _____    ______ ____
ROOT
ATOM      1  C   UNL     1       6.355   4.562  15.790  0.00  0.00    +0.000 A 
ATOM      2  C   UNL     1       5.109   4.023  16.157  0.00  0.00    +0.000 A 
ATOM      3  C   UNL     1       4.698   4.034  17.489  0.00  0.00    +0.000 A 
ATOM      4  C   UNL     1       5.507   4.609  18.469  0.00  0.00    +0.000 A 
ATOM      5  C   UNL     1       6.747   5.179  18.133  0.00  0.00    +0.000 A 
ATOM      6  C   UNL     1       7.169   5.136  16.786  0.00  0.00    +0.000 A 
ENDROOT
BRANCH   1   8
ATOM      7  N   UNL     1       7.619   5.407  13.932  0.00  0.00    +0.000 NA
ATOM      8  C   UNL     1       6.789   4.524  14.362  0.00  0.00    +0.000 C 
ATOM      9  N   UNL     1       6.293   3.537  13.467  0.00  0.00    +0.000 N 
ATOM     10  H   UNL     1       7.952   5.407  12.955  0.00  0.00    +0.000 HD
ATOM     11  H   UNL     1       6.600   3.523  12.483  0.00  0.00    +0.000 HD
ATOM     12  H   UNL     1       5.551   2.880  13.746  0.00  0.00    +0.000 HD
ENDBRANCH   1   8
BRANCH   5  13
ATOM     13  N   UNL     1       7.562   5.798  19.125  0.00  0.00    +0.000 N 
ATOM     14  O   UNL     1       7.592   5.369  20.239  0.00  0.00    +0.000 OA
ATOM     15  O   UNL     1       8.248   6.888  18.846  0.00  0.00    +0.000 OA
ENDBRANCH   5  13
TORSDOF 2
ENDMDL
MODEL 5
REMARK VINA RESULT:      -6.0      3.407      4.253
REMARK  Name = 
REMARK  2 active torsions:
REMARK  status: ('A' for Active; 'I' for Inactive)
REMARK    1  A    between atoms: C_2  and  C_4
REMARK    2  A    between atoms: C_8  and  N_9
REMARK                            x       y       z     vdW  Elec       q    Type
REMARK                         _______ _______ _______ _____ _____    ______ ____
ROOT
ATOM      1  C   UNL     1       5.552   5.173  16.920  0.00  0.00    +0.000 A 
ATOM      2  C   UNL     1       5.126   6.464  17.279  0.00  0.00    +0.000 A 
ATOM      3  C   UNL     1       3.821   6.684  17.717  0.00  0.00    +0.000 A 
ATOM      4  C   UNL     1       2.931   5.616  17.835  0.00  0.00    +0.000 A 
ATOM      5  C   UNL     1       3.332   4.309  17.510  0.00  0.00    +0.000 A 
ATOM      6  C   UNL     1       4.646   4.100  17.037  0.00  0.00    +0.000 A 
ENDROOT
BRANCH   1   8
ATOM      7  N   UNL     1       7.274   5.365  15.258  0.00  0.00    +0.000 NA
ATOM      8  C   UNL     1       6.947   4.959  16.434  0.00  0.00    +0.000 C 
ATOM      9  N   UNL     1       7.917   4.305  17.242  0.00  0.00    +0.000 N 
ATOM     10  H   UNL     1       8.231   5.247  14.891  0.00  0.00    +0.000 HD
ATOM     11  H   UNL     1       8.877   4.163  16.893  0.00  0.00    +0.000 HD
ATOM     12  H   UNL     1       7.667   3.875  18.142  0.00  0.00    +0.000 HD
ENDBRANCH   1   8
BRANCH   5  13
ATOM     13  N   UNL     1       2.437   3.209  17.661  0.00  0.00    +0.000 N 
ATOM     14  O   UNL     1       2.846   2.087  17.636  0.00  0.00    +0.000 OA
ATOM     15  O   UNL     1       1.139   3.409  17.772  0.00  0.00    +0.000 OA
ENDBRANCH   5  13
TORSDOF 2
ENDMDL
MODEL 6
REMARK VINA RESULT:      -5.9      2.817      3.884
REMARK  Name = 
REMARK  2 active torsions:
REMARK  status: ('A' for Active; 'I' for Inactive)
REMARK    1  A    between atoms: C_2  and  C_4
REMARK    2  A    between atoms: C_8  and  N_9
REMARK                            x       y       z     vdW  Elec       q    Type
REMARK                         _______ _______ _______ _____ _____    ______ ____
ROOT
ATOM      1  C   UNL     1       3.955   4.020  17.122  0.00  0.00    +0.000 A 
ATOM      2  C   UNL     1       3.639   5.310  17.587  0.00  0.00    +0.000 A 
ATOM      3  C   UNL     1       4.349   6.420  17.133  0.00  0.00    +0.000 A 
ATOM      4  C   UNL     1       5.363   6.266  16.188  0.00  0.00    +0.000 A 
ATOM      5  C   UNL     1       5.688   4.995  15.683  0.00  0.00    +0.000 A 
ATOM      6  C   UNL     1       4.983   3.872  16.171  0.00  0.00    +0.000 A 
ENDROOT
BRANCH   1   8
ATOM      7  N   UNL     1       1.912   2.890  17.683  0.00  0.00    +0.000 NA
ATOM      8  C   UNL     1       3.197   2.840  17.633  0.00  0.00    +0.000 C 
ATOM      9  N   UNL     1       3.869   1.668  18.075  0.00  0.00    +0.000 N 
ATOM     10  H   UNL     1       1.353   2.091  18.018  0.00  0.00    +0.000 HD
ATOM     11  H   UNL     1       3.333   0.860  18.426  0.00  0.00    +0.000 HD
ATOM     12  H   UNL     1       4.894   1.630  18.148  0.00  0.00    +0.000 HD
ENDBRANCH   1   8
BRANCH   5  13
ATOM     13  N   UNL     1       6.699   4.836  14.691  0.00  0.00    +0.000 N 
ATOM     14  O   UNL     1       7.711   5.469  14.751  0.00  0.00    +0.000 OA
ATOM     15  O   UNL     1       6.511   4.036  13.661  0.00  0.00    +0.000 OA
ENDBRANCH   5  13
TORSDOF 2
ENDMDL
MODEL 7
REMARK VINA RESULT:      -5.8      3.066      4.067
REMARK  Name = 
REMARK  2 active torsions:
REMARK  status: ('A' for Active; 'I' for Inactive)
REMARK    1  A    between atoms: C_2  and  C_4
REMARK    2  A    between atoms: C_8  and  N_9
REMARK                            x       y       z     vdW  Elec       q    Type
REMARK                         _______ _______ _______ _____ _____    ______ ____
ROOT
ATOM      1  C   UNL     1       3.747   3.525  17.687  0.00  0.00    +0.000 A 
ATOM      2  C   UNL     1       2.999   4.680  17.982  0.00  0.00    +0.000 A 
ATOM      3  C   UNL     1       3.481   5.942  17.639  0.00  0.00    +0.000 A 
ATOM      4  C   UNL     1       4.699   6.071  16.971  0.00  0.00    +0.000 A 
ATOM      5  C   UNL     1       5.459   4.937  16.638  0.00  0.00    +0.000 A 
ATOM      6  C   UNL     1       4.978   3.664  17.016  0.00  0.00    +0.000 A 
ENDROOT
BRANCH   1   8
ATOM      7  N   UNL     1       4.054   1.226  18.306  0.00  0.00    +0.000 NA
ATOM      8  C   UNL     1       3.225   2.183  18.078  0.00  0.00    +0.000 C 
ATOM      9  N   UNL     1       1.829   1.940  18.193  0.00  0.00    +0.000 N 
ATOM     10  H   UNL     1       3.733   0.288  18.591  0.00  0.00    +0.000 HD
ATOM     11  H   UNL     1       1.482   1.007  18.464  0.00  0.00    +0.000 HD
ATOM     12  H   UNL     1       1.134   2.647  17.919  0.00  0.00    +0.000 HD
ENDBRANCH   1   8
BRANCH   5  13
ATOM     13  N   UNL     1       6.687   5.061  15.925  0.00  0.00    +0.000 N 
ATOM     14  O   UNL     1       6.718   5.605  14.862  0.00  0.00    +0.000 OA
ATOM     15  O   UNL     1       7.795   4.526  16.396  0.00  0.00    +0.000 OA
ENDBRANCH   5  13
TORSDOF 2
ENDMDL
MODEL 8
REMARK VINA RESULT:      -5.8      3.031      4.089
REMARK  Name = 
REMARK  2 active torsions:
REMARK  status: ('A' for Active; 'I' for Inactive)
REMARK    1  A    between atoms: C_2  and  C_4
REMARK    2  A    between atoms: C_8  and  N_9
REMARK                            x       y       z     vdW  Elec       q    Type
REMARK                         _______ _______ _______ _____ _____    ______ ____
ROOT
ATOM      1  C   UNL     1       3.650   3.747  17.597  0.00  0.00    +0.000 A 
ATOM      2  C   UNL     1       2.906   4.814  18.132  0.00  0.00    +0.000 A 
ATOM      3  C   UNL     1       3.312   6.132  17.930  0.00  0.00    +0.000 A 
ATOM      4  C   UNL     1       4.446   6.408  17.167  0.00  0.00    +0.000 A 
ATOM      5  C   UNL     1       5.198   5.367  16.596  0.00  0.00    +0.000 A 
ATOM      6  C   UNL     1       4.797   4.034  16.831  0.00  0.00    +0.000 A 
ENDROOT
BRANCH   1   8
ATOM      7  N   UNL     1       1.982   2.020  17.637  0.00  0.00    +0.000 NA
ATOM      8  C   UNL     1       3.211   2.341  17.840  0.00  0.00    +0.000 C 
ATOM      9  N   UNL     1       4.125   1.354  18.300  0.00  0.00    +0.000 N 
ATOM     10  H   UNL     1       1.644   1.056  17.781  0.00  0.00    +0.000 HD
ATOM     11  H   UNL     1       3.809   0.386  18.465  0.00  0.00    +0.000 HD
ATOM     12  H   UNL     1       5.087   1.595  18.573  0.00  0.00    +0.000 HD
ENDBRANCH   1   8
BRANCH   5  13
ATOM     13  N   UNL     1       6.338   5.645  15.786  0.00  0.00    +0.000 N 
ATOM     14  O   UNL     1       6.315   5.424  14.612  0.00  0.00    +0.000 OA
ATOM     15  O   UNL     1       7.453   6.093  16.326  0.00  0.00    +0.000 OA
ENDBRANCH   5  13
TORSDOF 2
ENDMDL
MODEL 9
REMARK VINA RESULT:      -5.8      2.897      3.685
REMARK  Name = 
REMARK  2 active torsions:
REMARK  status: ('A' for Active; 'I' for Inactive)
REMARK    1  A    between atoms: C_2  and  C_4
REMARK    2  A    between atoms: C_8  and  N_9
REMARK                            x       y       z     vdW  Elec       q    Type
REMARK                         _______ _______ _______ _____ _____    ______ ____
ROOT
ATOM      1  C   UNL     1       4.347   4.111  18.941  0.00  0.00    +0.000 A 
ATOM      2  C   UNL     1       3.339   5.051  18.659  0.00  0.00    +0.000 A 
ATOM      3  C   UNL     1       3.602   6.148  17.841  0.00  0.00    +0.000 A 
ATOM      4  C   UNL     1       4.863   6.309  17.267  0.00  0.00    +0.000 A 
ATOM      5  C   UNL     1       5.886   5.376  17.507  0.00  0.00    +0.000 A 
ATOM      6  C   UNL     1       5.619   4.283  18.362  0.00  0.00    +0.000 A 
ENDROOT
BRANCH   1   8
ATOM      7  N   UNL     1       2.952   2.931  20.499  0.00  0.00    +0.000 NA
ATOM      8  C   UNL     1       4.053   2.952  19.835  0.00  0.00    +0.000 C 
ATOM      9  N   UNL     1       4.973   1.877  19.974  0.00  0.00    +0.000 N 
ATOM     10  H   UNL     1       2.707   2.143  21.117  0.00  0.00    +0.000 HD
ATOM     11  H   UNL     1       4.758   1.083  20.595  0.00  0.00    +0.000 HD
ATOM     12  H   UNL     1       5.907   1.907  19.542  0.00  0.00    +0.000 HD
ENDBRANCH   1   8
BRANCH   5  13
ATOM     13  N   UNL     1       7.166   5.517  16.895  0.00  0.00    +0.000 N 
ATOM     14  O   UNL     1       7.519   6.575  16.468  0.00  0.00    +0.000 OA
ATOM     15  O   UNL     1       7.954   4.473  16.737  0.00  0.00    +0.000 OA
ENDBRANCH   5  13
TORSDOF 2
ENDMDL
