MODEL 1
REMARK VINA RESULT:      -9.2      0.000      0.000
REMARK  Name = 
REMARK  5 active torsions:
REMARK  status: ('A' for Active; 'I' for Inactive)
REMARK    1  A    between atoms: N_1  and  C_2
REMARK    2  A    between atoms: C_2  and  C_3
REMARK    3  A    between atoms: C_2  and  C_9
REMARK    4  A    between atoms: N_16  and  C_17
REMARK    5  A    between atoms: C_21  and  C_22
REMARK                            x       y       z     vdW  Elec       q    Type
REMARK                         _______ _______ _______ _____ _____    ______ ____
ROOT
ATOM      1  C   UNL     1      -0.005  10.486  20.237  0.00  0.00    +0.000 A 
ATOM      2  C   UNL     1      -0.121  10.671  21.606  0.00  0.00    +0.000 A 
ATOM      3  S   UNL     1       0.513   9.307  22.448  0.00  0.00    +0.000 S 
ATOM      4  C   UNL     1       0.972   8.630  20.956  0.00  0.00    +0.000 A 
ATOM      5  N   UNL     1       1.678   7.461  21.018  0.00  0.00    +0.000 N 
ATOM      6  C   UNL     1       2.425   7.065  19.926  0.00  0.00    +0.000 C 
ATOM      7  O   UNL     1       2.609   7.729  18.911  0.00  0.00    +0.000 OA
ATOM      8  N   UNL     1       2.941   5.785  20.101  0.00  0.00    +0.000 N 
ATOM      9  N   UNL     1       0.610   9.288  19.887  0.00  0.00    +0.000 NA
ATOM     10  H   UNL     1       1.911   7.103  21.934  0.00  0.00    +0.000 HD
ATOM     11  H   UNL     1       2.306   5.157  20.573  0.00  0.00    +0.000 HD
ENDROOT
BRANCH   8  12
ATOM     12  C   UNL     1       3.752   5.213  19.095  0.00  0.00    +0.000 A 
ATOM     13  C   UNL     1       3.158   4.404  18.128  0.00  0.00    +0.000 A 
ATOM     14  C   UNL     1       3.918   3.925  17.060  0.00  0.00    +0.000 A 
ATOM     15  C   UNL     1       5.284   4.204  16.989  0.00  0.00    +0.000 A 
ATOM     16  C   UNL     1       5.909   4.963  17.987  0.00  0.00    +0.000 A 
ATOM     17  C   UNL     1       5.128   5.473  19.036  0.00  0.00    +0.000 A 
BRANCH  16  18
ATOM     18  C   UNL     1       7.392   5.236  17.953  0.00  0.00    +0.000 C 
ATOM     19  F   UNL     1       7.908   5.574  19.170  0.00  0.00    +0.000 F 
ATOM     20  F   UNL     1       8.124   4.172  17.525  0.00  0.00    +0.000 F 
ATOM     21  F   UNL     1       7.710   6.269  17.122  0.00  0.00    +0.000 F 
ENDBRANCH  16  18
ENDBRANCH   8  12
BRANCH   1  22
ATOM     22  C   UNL     1      -0.326  11.487  19.153  0.00  0.00    +0.000 C 
BRANCH  22  23
ATOM     23  C   UNL     1      -1.643  11.108  18.494  0.00  0.00    +0.000 A 
ATOM     24  C   UNL     1      -1.732  10.169  17.448  0.00  0.00    +0.000 A 
ATOM     25  C   UNL     1      -2.944   9.929  16.794  0.00  0.00    +0.000 A 
ATOM     26  C   UNL     1      -4.088  10.631  17.162  0.00  0.00    +0.000 A 
ATOM     27  C   UNL     1      -4.023  11.565  18.192  0.00  0.00    +0.000 A 
ATOM     28  C   UNL     1      -2.813  11.801  18.852  0.00  0.00    +0.000 A 
ENDBRANCH  22  23
BRANCH  22  29
ATOM     29  N   UNL     1       0.781  11.505  18.192  0.00  0.00    +0.000 NA
ATOM     30  H   UNL     1       0.631  10.762  17.514  0.00  0.00    +0.000 HD
ATOM     31  H   UNL     1       1.621  11.237  18.715  0.00  0.00    +0.000 HD
ENDBRANCH  22  29
ENDBRANCH   1  22
TORSDOF 5
ENDMDL
MODEL 2
REMARK VINA RESULT:      -9.1      0.172      1.195
REMARK  Name = 
REMARK  5 active torsions:
REMARK  status: ('A' for Active; 'I' for Inactive)
REMARK    1  A    between atoms: N_1  and  C_2
REMARK    2  A    between atoms: C_2  and  C_3
REMARK    3  A    between atoms: C_2  and  C_9
REMARK    4  A    between atoms: N_16  and  C_17
REMARK    5  A    between atoms: C_21  and  C_22
REMARK                            x       y       z     vdW  Elec       q    Type
REMARK                         _______ _______ _______ _____ _____    ______ ____
ROOT
ATOM      1  C   UNL     1      -0.052  10.537  20.276  0.00  0.00    +0.000 A 
ATOM      2  C   UNL     1      -0.196  10.692  21.646  0.00  0.00    +0.000 A 
ATOM      3  S   UNL     1       0.409   9.304  22.469  0.00  0.00    +0.000 S 
ATOM      4  C   UNL     1       0.894   8.657  20.973  0.00  0.00    +0.000 A 
ATOM      5  N   UNL     1       1.590   7.481  21.023  0.00  0.00    +0.000 N 
ATOM      6  C   UNL     1       2.357   7.104  19.938  0.00  0.00    +0.000 C 
ATOM      7  O   UNL     1       2.567   7.789  18.943  0.00  0.00    +0.000 OA
ATOM      8  N   UNL     1       2.859   5.815  20.096  0.00  0.00    +0.000 N 
ATOM      9  N   UNL     1       0.561   9.342  19.912  0.00  0.00    +0.000 NA
ATOM     10  H   UNL     1       1.800   7.101  21.936  0.00  0.00    +0.000 HD
ATOM     11  H   UNL     1       2.209   5.183  20.540  0.00  0.00    +0.000 HD
ENDROOT
BRANCH   8  12
ATOM     12  C   UNL     1       3.687   5.259  19.094  0.00  0.00    +0.000 A 
ATOM     13  C   UNL     1       3.106   4.484  18.092  0.00  0.00    +0.000 A 
ATOM     14  C   UNL     1       3.885   4.024  17.030  0.00  0.00    +0.000 A 
ATOM     15  C   UNL     1       5.256   4.286  16.999  0.00  0.00    +0.000 A 
ATOM     16  C   UNL     1       5.866   5.011  18.032  0.00  0.00    +0.000 A 
ATOM     17  C   UNL     1       5.067   5.503  19.074  0.00  0.00    +0.000 A 
BRANCH  16  18
ATOM     18  C   UNL     1       7.353   5.264  18.040  0.00  0.00    +0.000 C 
ATOM     19  F   UNL     1       7.741   6.238  17.167  0.00  0.00    +0.000 F 
ATOM     20  F   UNL     1       7.825   5.649  19.257  0.00  0.00    +0.000 F 
ATOM     21  F   UNL     1       8.070   4.157  17.693  0.00  0.00    +0.000 F 
ENDBRANCH  16  18
ENDBRANCH   8  12
BRANCH   1  22
ATOM     22  C   UNL     1      -0.342  11.565  19.208  0.00  0.00    +0.000 C 
BRANCH  22  23
ATOM     23  C   UNL     1      -1.702  11.276  18.591  0.00  0.00    +0.000 A 
ATOM     24  C   UNL     1      -2.875  11.953  18.975  0.00  0.00    +0.000 A 
ATOM     25  C   UNL     1      -4.123  11.583  18.465  0.00  0.00    +0.000 A 
ATOM     26  C   UNL     1      -4.226  10.521  17.571  0.00  0.00    +0.000 A 
ATOM     27  C   UNL     1      -3.079   9.836  17.179  0.00  0.00    +0.000 A 
ATOM     28  C   UNL     1      -1.830  10.210  17.683  0.00  0.00    +0.000 A 
ENDBRANCH  22  23
BRANCH  22  29
ATOM     29  N   UNL     1       0.732  11.519  18.212  0.00  0.00    +0.000 NA
ATOM     30  H   UNL     1       1.606  11.314  18.690  0.00  0.00    +0.000 HD
ATOM     31  H   UNL     1       0.832  12.473  17.851  0.00  0.00    +0.000 HD
ENDBRANCH  22  29
ENDBRANCH   1  22
TORSDOF 5
ENDMDL
MODEL 3
REMARK VINA RESULT:      -8.8      4.648      8.546
REMARK  Name = 
REMARK  5 active torsions:
REMARK  status: ('A' for Active; 'I' for Inactive)
REMARK    1  A    between atoms: N_1  and  C_2
REMARK    2  A    between atoms: C_2  and  C_3
REMARK    3  A    between atoms: C_2  and  C_9
REMARK    4  A    between atoms: N_16  and  C_17
REMARK    5  A    between atoms: C_21  and  C_22
REMARK                            x       y       z     vdW  Elec       q    Type
REMARK                         _______ _______ _______ _____ _____    ______ ____
ROOT
ATOM      1  C   UNL     1       4.759   4.446  17.881  0.00  0.00    +0.000 A 
ATOM      2  C   UNL     1       6.050   4.844  17.564  0.00  0.00    +0.000 A 
ATOM      3  S   UNL     1       6.068   6.510  17.124  0.00  0.00    +0.000 S 
ATOM      4  C   UNL     1       4.405   6.597  17.475  0.00  0.00    +0.000 A 
ATOM      5  N   UNL     1       3.836   7.836  17.386  0.00  0.00    +0.000 N 
ATOM      6  C   UNL     1       2.636   8.075  18.026  0.00  0.00    +0.000 C 
ATOM      7  O   UNL     1       2.064   7.294  18.779  0.00  0.00    +0.000 OA
ATOM      8  N   UNL     1       2.125   9.327  17.696  0.00  0.00    +0.000 N 
ATOM      9  N   UNL     1       3.824   5.473  17.800  0.00  0.00    +0.000 NA
ATOM     10  H   UNL     1       4.440   8.613  17.158  0.00  0.00    +0.000 HD
ATOM     11  H   UNL     1       2.278   9.581  16.731  0.00  0.00    +0.000 HD
ENDROOT
BRANCH   8  12
ATOM     12  C   UNL     1       0.910   9.761  18.272  0.00  0.00    +0.000 A 
ATOM     13  C   UNL     1       0.934  10.350  19.535  0.00  0.00    +0.000 A 
ATOM     14  C   UNL     1      -0.235  10.892  20.071  0.00  0.00    +0.000 A 
ATOM     15  C   UNL     1      -1.441  10.793  19.373  0.00  0.00    +0.000 A 
ATOM     16  C   UNL     1      -1.493  10.148  18.130  0.00  0.00    +0.000 A 
ATOM     17  C   UNL     1      -0.304   9.642  17.582  0.00  0.00    +0.000 A 
BRANCH  16  18
ATOM     18  C   UNL     1      -2.793   9.990  17.382  0.00  0.00    +0.000 C 
ATOM     19  F   UNL     1      -3.657   9.119  17.978  0.00  0.00    +0.000 F 
ATOM     20  F   UNL     1      -3.479  11.156  17.246  0.00  0.00    +0.000 F 
ATOM     21  F   UNL     1      -2.609   9.513  16.118  0.00  0.00    +0.000 F 
ENDBRANCH  16  18
ENDBRANCH   8  12
BRANCH   1  22
ATOM     22  C   UNL     1       4.329   3.106  18.431  0.00  0.00    +0.000 C 
BRANCH  22  23
ATOM     23  C   UNL     1       2.915   3.221  18.978  0.00  0.00    +0.000 A 
ATOM     24  C   UNL     1       2.623   3.798  20.228  0.00  0.00    +0.000 A 
ATOM     25  C   UNL     1       1.324   3.784  20.745  0.00  0.00    +0.000 A 
ATOM     26  C   UNL     1       0.293   3.182  20.030  0.00  0.00    +0.000 A 
ATOM     27  C   UNL     1       0.559   2.602  18.792  0.00  0.00    +0.000 A 
ATOM     28  C   UNL     1       1.856   2.622  18.271  0.00  0.00    +0.000 A 
ENDBRANCH  22  23
BRANCH  22  29
ATOM     29  N   UNL     1       5.284   2.698  19.465  0.00  0.00    +0.000 NA
ATOM     30  H   UNL     1       5.771   1.865  19.143  0.00  0.00    +0.000 HD
ATOM     31  H   UNL     1       4.725   2.398  20.271  0.00  0.00    +0.000 HD
ENDBRANCH  22  29
ENDBRANCH   1  22
TORSDOF 5
ENDMDL
MODEL 4
REMARK VINA RESULT:      -8.7      4.703      8.712
REMARK  Name = 
REMARK  5 active torsions:
REMARK  status: ('A' for Active; 'I' for Inactive)
REMARK    1  A    between atoms: N_1  and  C_2
REMARK    2  A    between atoms: C_2  and  C_3
REMARK    3  A    between atoms: C_2  and  C_9
REMARK    4  A    between atoms: N_16  and  C_17
REMARK    5  A    between atoms: C_21  and  C_22
REMARK                            x       y       z     vdW  Elec       q    Type
REMARK                         _______ _______ _______ _____ _____    ______ ____
ROOT
ATOM      1  C   UNL     1       4.027   3.995  17.499  0.00  0.00    +0.000 A 
ATOM      2  C   UNL     1       5.396   4.206  17.440  0.00  0.00    +0.000 A 
ATOM      3  S   UNL     1       5.735   5.893  17.346  0.00  0.00    +0.000 S 
ATOM      4  C   UNL     1       4.070   6.212  17.485  0.00  0.00    +0.000 A 
ATOM      5  N   UNL     1       3.715   7.529  17.568  0.00  0.00    +0.000 N 
ATOM      6  C   UNL     1       2.477   7.863  18.080  0.00  0.00    +0.000 C 
ATOM      7  O   UNL     1       1.679   7.078  18.581  0.00  0.00    +0.000 OA
ATOM      8  N   UNL     1       2.220   9.224  17.940  0.00  0.00    +0.000 N 
ATOM      9  N   UNL     1       3.282   5.170  17.501  0.00  0.00    +0.000 NA
ATOM     10  H   UNL     1       4.459   8.214  17.581  0.00  0.00    +0.000 HD
ATOM     11  H   UNL     1       2.564   9.610  17.073  0.00  0.00    +0.000 HD
ENDROOT
BRANCH   8  12
ATOM     12  C   UNL     1       1.006   9.762  18.425  0.00  0.00    +0.000 A 
ATOM     13  C   UNL     1       0.999  10.405  19.662  0.00  0.00    +0.000 A 
ATOM     14  C   UNL     1      -0.159  11.044  20.106  0.00  0.00    +0.000 A 
ATOM     15  C   UNL     1      -1.327  10.991  19.343  0.00  0.00    +0.000 A 
ATOM     16  C   UNL     1      -1.353  10.295  18.127  0.00  0.00    +0.000 A 
ATOM     17  C   UNL     1      -0.172   9.689  17.671  0.00  0.00    +0.000 A 
BRANCH  16  18
ATOM     18  C   UNL     1      -2.617  10.187  17.312  0.00  0.00    +0.000 C 
ATOM     19  F   UNL     1      -3.294  11.366  17.203  0.00  0.00    +0.000 F 
ATOM     20  F   UNL     1      -2.399   9.767  16.036  0.00  0.00    +0.000 F 
ATOM     21  F   UNL     1      -3.507   9.304  17.850  0.00  0.00    +0.000 F 
ENDBRANCH  16  18
ENDBRANCH   8  12
BRANCH   1  22
ATOM     22  C   UNL     1       3.317   2.679  17.711  0.00  0.00    +0.000 C 
BRANCH  22  23
ATOM     23  C   UNL     1       2.581   2.715  19.042  0.00  0.00    +0.000 A 
ATOM     24  C   UNL     1       1.208   3.009  19.149  0.00  0.00    +0.000 A 
ATOM     25  C   UNL     1       0.593   3.143  20.397  0.00  0.00    +0.000 A 
ATOM     26  C   UNL     1       1.339   2.999  21.563  0.00  0.00    +0.000 A 
ATOM     27  C   UNL     1       2.698   2.710  21.482  0.00  0.00    +0.000 A 
ATOM     28  C   UNL     1       3.313   2.570  20.234  0.00  0.00    +0.000 A 
ENDBRANCH  22  23
BRANCH  22  29
ATOM     29  N   UNL     1       4.309   1.601  17.664  0.00  0.00    +0.000 NA
ATOM     30  H   UNL     1       4.300   1.197  16.730  0.00  0.00    +0.000 HD
ATOM     31  H   UNL     1       3.963   0.864  18.288  0.00  0.00    +0.000 HD
ENDBRANCH  22  29
ENDBRANCH   1  22
TORSDOF 5
ENDMDL
MODEL 5
REMARK VINA RESULT:      -8.5      4.293      8.367
REMARK  Name = 
REMARK  5 active torsions:
REMARK  status: ('A' for Active; 'I' for Inactive)
REMARK    1  A    between atoms: N_1  and  C_2
REMARK    2  A    between atoms: C_2  and  C_3
REMARK    3  A    between atoms: C_2  and  C_9
REMARK    4  A    between atoms: N_16  and  C_17
REMARK    5  A    between atoms: C_21  and  C_22
REMARK                            x       y       z     vdW  Elec       q    Type
REMARK                         _______ _______ _______ _____ _____    ______ ____
ROOT
ATOM      1  C   UNL     1       3.911   3.678  17.362  0.00  0.00    +0.000 A 
ATOM      2  C   UNL     1       5.244   3.849  17.021  0.00  0.00    +0.000 A 
ATOM      3  S   UNL     1       5.602   5.526  16.844  0.00  0.00    +0.000 S 
ATOM      4  C   UNL     1       4.011   5.893  17.321  0.00  0.00    +0.000 A 
ATOM      5  N   UNL     1       3.717   7.219  17.465  0.00  0.00    +0.000 N 
ATOM      6  C   UNL     1       2.620   7.589  18.218  0.00  0.00    +0.000 C 
ATOM      7  O   UNL     1       1.921   6.828  18.878  0.00  0.00    +0.000 OA
ATOM      8  N   UNL     1       2.377   8.957  18.123  0.00  0.00    +0.000 N 
ATOM      9  N   UNL     1       3.215   4.874  17.507  0.00  0.00    +0.000 NA
ATOM     10  H   UNL     1       4.465   7.883  17.319  0.00  0.00    +0.000 HD
ATOM     11  H   UNL     1       2.545   9.331  17.200  0.00  0.00    +0.000 HD
ENDROOT
BRANCH   8  12
ATOM     12  C   UNL     1       1.304   9.529  18.843  0.00  0.00    +0.000 A 
ATOM     13  C   UNL     1       0.338  10.257  18.149  0.00  0.00    +0.000 A 
ATOM     14  C   UNL     1      -0.789  10.731  18.821  0.00  0.00    +0.000 A 
ATOM     15  C   UNL     1      -0.926  10.529  20.196  0.00  0.00    +0.000 A 
ATOM     16  C   UNL     1       0.068   9.854  20.918  0.00  0.00    +0.000 A 
ATOM     17  C   UNL     1       1.179   9.347  20.227  0.00  0.00    +0.000 A 
BRANCH  16  18
ATOM     18  C   UNL     1      -0.038   9.667  22.411  0.00  0.00    +0.000 C 
ATOM     19  F   UNL     1      -0.905   8.678  22.773  0.00  0.00    +0.000 F 
ATOM     20  F   UNL     1       1.148   9.351  22.998  0.00  0.00    +0.000 F 
ATOM     21  F   UNL     1      -0.482  10.791  23.044  0.00  0.00    +0.000 F 
ENDBRANCH  16  18
ENDBRANCH   8  12
BRANCH   1  22
ATOM     22  C   UNL     1       3.224   2.383  17.726  0.00  0.00    +0.000 C 
BRANCH  22  23
ATOM     23  C   UNL     1       2.520   2.548  19.064  0.00  0.00    +0.000 A 
ATOM     24  C   UNL     1       1.152   2.863  19.174  0.00  0.00    +0.000 A 
ATOM     25  C   UNL     1       0.567   3.117  20.418  0.00  0.00    +0.000 A 
ATOM     26  C   UNL     1       1.339   3.074  21.575  0.00  0.00    +0.000 A 
ATOM     27  C   UNL     1       2.694   2.767  21.491  0.00  0.00    +0.000 A 
ATOM     28  C   UNL     1       3.279   2.506  20.248  0.00  0.00    +0.000 A 
ENDBRANCH  22  23
BRANCH  22  29
ATOM     29  N   UNL     1       4.230   1.317  17.765  0.00  0.00    +0.000 NA
ATOM     30  H   UNL     1       5.070   1.683  18.207  0.00  0.00    +0.000 HD
ATOM     31  H   UNL     1       4.489   1.129  16.791  0.00  0.00    +0.000 HD
ENDBRANCH  22  29
ENDBRANCH   1  22
TORSDOF 5
ENDMDL
MODEL 6
REMARK VINA RESULT:      -8.4      1.588      2.900
REMARK  Name = 
REMARK  5 active torsions:
REMARK  status: ('A' for Active; 'I' for Inactive)
REMARK    1  A    between atoms: N_1  and  C_2
REMARK    2  A    between atoms: C_2  and  C_3
REMARK    3  A    between atoms: C_2  and  C_9
REMARK    4  A    between atoms: N_16  and  C_17
REMARK    5  A    between atoms: C_21  and  C_22
REMARK                            x       y       z     vdW  Elec       q    Type
REMARK                         _______ _______ _______ _____ _____    ______ ____
ROOT
ATOM      1  C   UNL     1      -0.085  10.505  20.076  0.00  0.00    +0.000 A 
ATOM      2  C   UNL     1      -0.146  10.770  21.436  0.00  0.00    +0.000 A 
ATOM      3  S   UNL     1       0.557   9.474  22.328  0.00  0.00    +0.000 S 
ATOM      4  C   UNL     1       0.969   8.718  20.860  0.00  0.00    +0.000 A 
ATOM      5  N   UNL     1       1.706   7.572  20.960  0.00  0.00    +0.000 N 
ATOM      6  C   UNL     1       2.415   7.128  19.861  0.00  0.00    +0.000 C 
ATOM      7  O   UNL     1       2.538   7.733  18.802  0.00  0.00    +0.000 OA
ATOM      8  N   UNL     1       2.971   5.872  20.089  0.00  0.00    +0.000 N 
ATOM      9  N   UNL     1       0.545   9.302  19.771  0.00  0.00    +0.000 NA
ATOM     10  H   UNL     1       1.987   7.275  21.884  0.00  0.00    +0.000 HD
ATOM     11  H   UNL     1       2.372   5.260  20.625  0.00  0.00    +0.000 HD
ENDROOT
BRANCH   8  12
ATOM     12  C   UNL     1       3.752   5.259  19.084  0.00  0.00    +0.000 A 
ATOM     13  C   UNL     1       3.131   4.402  18.176  0.00  0.00    +0.000 A 
ATOM     14  C   UNL     1       3.859   3.879  17.107  0.00  0.00    +0.000 A 
ATOM     15  C   UNL     1       5.220   4.162  16.976  0.00  0.00    +0.000 A 
ATOM     16  C   UNL     1       5.872   4.971  17.916  0.00  0.00    +0.000 A 
ATOM     17  C   UNL     1       5.123   5.524  18.966  0.00  0.00    +0.000 A 
BRANCH  16  18
ATOM     18  C   UNL     1       7.351   5.250  17.820  0.00  0.00    +0.000 C 
ATOM     19  F   UNL     1       7.661   6.218  16.909  0.00  0.00    +0.000 F 
ATOM     20  F   UNL     1       7.898   5.662  18.996  0.00  0.00    +0.000 F 
ATOM     21  F   UNL     1       8.063   4.151  17.440  0.00  0.00    +0.000 F 
ENDBRANCH  16  18
ENDBRANCH   8  12
BRANCH   1  22
ATOM     22  C   UNL     1      -0.477  11.431  18.950  0.00  0.00    +0.000 C 
BRANCH  22  23
ATOM     23  C   UNL     1       0.506  12.590  18.890  0.00  0.00    +0.000 A 
ATOM     24  C   UNL     1       0.117  13.933  19.062  0.00  0.00    +0.000 A 
ATOM     25  C   UNL     1       1.030  14.977  18.888  0.00  0.00    +0.000 A 
ATOM     26  C   UNL     1       2.345  14.704  18.527  0.00  0.00    +0.000 A 
ATOM     27  C   UNL     1       2.752  13.384  18.349  0.00  0.00    +0.000 A 
ATOM     28  C   UNL     1       1.842  12.338  18.529  0.00  0.00    +0.000 A 
ENDBRANCH  22  23
BRANCH  22  29
ATOM     29  N   UNL     1      -1.850  11.890  19.180  0.00  0.00    +0.000 NA
ATOM     30  H   UNL     1      -2.328  11.937  18.284  0.00  0.00    +0.000 HD
ATOM     31  H   UNL     1      -1.779  12.860  19.507  0.00  0.00    +0.000 HD
ENDBRANCH  22  29
ENDBRANCH   1  22
TORSDOF 5
ENDMDL
MODEL 7
REMARK VINA RESULT:      -8.3      1.161      1.474
REMARK  Name = 
REMARK  5 active torsions:
REMARK  status: ('A' for Active; 'I' for Inactive)
REMARK    1  A    between atoms: N_1  and  C_2
REMARK    2  A    between atoms: C_2  and  C_3
REMARK    3  A    between atoms: C_2  and  C_9
REMARK    4  A    between atoms: N_16  and  C_17
REMARK    5  A    between atoms: C_21  and  C_22
REMARK                            x       y       z     vdW  Elec       q    Type
REMARK                         _______ _______ _______ _____ _____    ______ ____
ROOT
ATOM      1  C   UNL     1      -0.003  10.661  20.371  0.00  0.00    +0.000 A 
ATOM      2  C   UNL     1       0.067  10.886  21.738  0.00  0.00    +0.000 A 
ATOM      3  S   UNL     1       0.737   9.513  22.534  0.00  0.00    +0.000 S 
ATOM      4  C   UNL     1       0.967   8.775  21.019  0.00  0.00    +0.000 A 
ATOM      5  N   UNL     1       1.618   7.574  21.027  0.00  0.00    +0.000 N 
ATOM      6  C   UNL     1       2.199   7.112  19.862  0.00  0.00    +0.000 C 
ATOM      7  O   UNL     1       2.282   7.739  18.812  0.00  0.00    +0.000 OA
ATOM      8  N   UNL     1       2.671   5.811  20.012  0.00  0.00    +0.000 N 
ATOM      9  N   UNL     1       0.503   9.424  19.984  0.00  0.00    +0.000 NA
ATOM     10  H   UNL     1       1.949   7.227  21.917  0.00  0.00    +0.000 HD
ATOM     11  H   UNL     1       2.072   5.229  20.580  0.00  0.00    +0.000 HD
ENDROOT
BRANCH   8  12
ATOM     12  C   UNL     1       3.318   5.172  18.929  0.00  0.00    +0.000 A 
ATOM     13  C   UNL     1       3.088   3.814  18.713  0.00  0.00    +0.000 A 
ATOM     14  C   UNL     1       3.622   3.191  17.584  0.00  0.00    +0.000 A 
ATOM     15  C   UNL     1       4.433   3.908  16.702  0.00  0.00    +0.000 A 
ATOM     16  C   UNL     1       4.725   5.258  16.941  0.00  0.00    +0.000 A 
ATOM     17  C   UNL     1       4.150   5.886  18.057  0.00  0.00    +0.000 A 
BRANCH  16  18
ATOM     18  C   UNL     1       5.637   6.038  16.027  0.00  0.00    +0.000 C 
ATOM     19  F   UNL     1       4.972   6.909  15.214  0.00  0.00    +0.000 F 
ATOM     20  F   UNL     1       6.556   6.784  16.695  0.00  0.00    +0.000 F 
ATOM     21  F   UNL     1       6.347   5.228  15.190  0.00  0.00    +0.000 F 
ENDBRANCH  16  18
ENDBRANCH   8  12
BRANCH   1  22
ATOM     22  C   UNL     1      -0.412  11.650  19.305  0.00  0.00    +0.000 C 
BRANCH  22  23
ATOM     23  C   UNL     1      -1.737  11.215  18.700  0.00  0.00    +0.000 A 
ATOM     24  C   UNL     1      -1.834  10.231  17.697  0.00  0.00    +0.000 A 
ATOM     25  C   UNL     1      -3.057   9.938  17.088  0.00  0.00    +0.000 A 
ATOM     26  C   UNL     1      -4.207  10.630  17.458  0.00  0.00    +0.000 A 
ATOM     27  C   UNL     1      -4.135  11.608  18.446  0.00  0.00    +0.000 A 
ATOM     28  C   UNL     1      -2.913  11.898  19.062  0.00  0.00    +0.000 A 
ENDBRANCH  22  23
BRANCH  22  29
ATOM     29  N   UNL     1       0.652  11.718  18.300  0.00  0.00    +0.000 NA
ATOM     30  H   UNL     1       1.324  12.425  18.589  0.00  0.00    +0.000 HD
ATOM     31  H   UNL     1       0.218  12.083  17.445  0.00  0.00    +0.000 HD
ENDBRANCH  22  29
ENDBRANCH   1  22
TORSDOF 5
ENDMDL
MODEL 8
REMARK VINA RESULT:      -8.3      4.289      8.369
REMARK  Name = 
REMARK  5 active torsions:
REMARK  status: ('A' for Active; 'I' for Inactive)
REMARK    1  A    between atoms: N_1  and  C_2
REMARK    2  A    between atoms: C_2  and  C_3
REMARK    3  A    between atoms: C_2  and  C_9
REMARK    4  A    between atoms: N_16  and  C_17
REMARK    5  A    between atoms: C_21  and  C_22
REMARK                            x       y       z     vdW  Elec       q    Type
REMARK                         _______ _______ _______ _____ _____    ______ ____
ROOT
ATOM      1  C   UNL     1       3.903   3.935  17.370  0.00  0.00    +0.000 A 
ATOM      2  C   UNL     1       5.222   4.121  16.982  0.00  0.00    +0.000 A 
ATOM      3  S   UNL     1       5.554   5.801  16.787  0.00  0.00    +0.000 S 
ATOM      4  C   UNL     1       3.976   6.151  17.317  0.00  0.00    +0.000 A 
ATOM      5  N   UNL     1       3.672   7.475  17.467  0.00  0.00    +0.000 N 
ATOM      6  C   UNL     1       2.598   7.835  18.257  0.00  0.00    +0.000 C 
ATOM      7  O   UNL     1       1.932   7.069  18.944  0.00  0.00    +0.000 OA
ATOM      8  N   UNL     1       2.337   9.199  18.166  0.00  0.00    +0.000 N 
ATOM      9  N   UNL     1       3.199   5.124  17.536  0.00  0.00    +0.000 NA
ATOM     10  H   UNL     1       4.407   8.146  17.293  0.00  0.00    +0.000 HD
ATOM     11  H   UNL     1       2.468   9.572  17.236  0.00  0.00    +0.000 HD
ENDROOT
BRANCH   8  12
ATOM     12  C   UNL     1       1.283   9.763  18.921  0.00  0.00    +0.000 A 
ATOM     13  C   UNL     1       0.404  10.647  18.298  0.00  0.00    +0.000 A 
ATOM     14  C   UNL     1      -0.709  11.123  18.991  0.00  0.00    +0.000 A 
ATOM     15  C   UNL     1      -0.915  10.763  20.324  0.00  0.00    +0.000 A 
ATOM     16  C   UNL     1      -0.005   9.925  20.983  0.00  0.00    +0.000 A 
ATOM     17  C   UNL     1       1.090   9.420  20.266  0.00  0.00    +0.000 A 
BRANCH  16  18
ATOM     18  C   UNL     1      -0.184   9.563  22.437  0.00  0.00    +0.000 C 
ATOM     19  F   UNL     1      -0.804  10.536  23.165  0.00  0.00    +0.000 F 
ATOM     20  F   UNL     1      -0.922   8.436  22.622  0.00  0.00    +0.000 F 
ATOM     21  F   UNL     1       1.006   9.340  23.065  0.00  0.00    +0.000 F 
ENDBRANCH  16  18
ENDBRANCH   8  12
BRANCH   1  22
ATOM     22  C   UNL     1       3.245   2.634  17.763  0.00  0.00    +0.000 C 
BRANCH  22  23
ATOM     23  C   UNL     1       2.615   2.787  19.139  0.00  0.00    +0.000 A 
ATOM     24  C   UNL     1       3.337   2.603  20.334  0.00  0.00    +0.000 A 
ATOM     25  C   UNL     1       2.698   2.642  21.577  0.00  0.00    +0.000 A 
ATOM     26  C   UNL     1       1.324   2.853  21.651  0.00  0.00    +0.000 A 
ATOM     27  C   UNL     1       0.590   3.035  20.482  0.00  0.00    +0.000 A 
ATOM     28  C   UNL     1       1.229   3.003  19.238  0.00  0.00    +0.000 A 
ENDBRANCH  22  23
BRANCH  22  29
ATOM     29  N   UNL     1       4.256   1.573  17.739  0.00  0.00    +0.000 NA
ATOM     30  H   UNL     1       4.056   0.955  16.957  0.00  0.00    +0.000 HD
ATOM     31  H   UNL     1       4.104   1.011  18.583  0.00  0.00    +0.000 HD
ENDBRANCH  22  29
ENDBRANCH   1  22
TORSDOF 5
ENDMDL
MODEL 9
REMARK VINA RESULT:      -8.3      1.711      2.876
REMARK  Name = 
REMARK  5 active torsions:
REMARK  status: ('A' for Active; 'I' for Inactive)
REMARK    1  A    between atoms: N_1  and  C_2
REMARK    2  A    between atoms: C_2  and  C_3
REMARK    3  A    between atoms: C_2  and  C_9
REMARK    4  A    between atoms: N_16  and  C_17
REMARK    5  A    between atoms: C_21  and  C_22
REMARK                            x       y       z     vdW  Elec       q    Type
REMARK                         _______ _______ _______ _____ _____    ______ ____
ROOT
ATOM      1  C   UNL     1      -0.112  10.800  19.810  0.00  0.00    +0.000 A 
ATOM      2  C   UNL     1      -0.228  11.097  21.159  0.00  0.00    +0.000 A 
ATOM      3  S   UNL     1       0.402   9.805  22.109  0.00  0.00    +0.000 S 
ATOM      4  C   UNL     1       0.860   9.006  20.679  0.00  0.00    +0.000 A 
ATOM      5  N   UNL     1       1.563   7.845  20.836  0.00  0.00    +0.000 N 
ATOM      6  C   UNL     1       2.308   7.358  19.781  0.00  0.00    +0.000 C 
ATOM      7  O   UNL     1       2.494   7.936  18.715  0.00  0.00    +0.000 OA
ATOM      8  N   UNL     1       2.821   6.095  20.061  0.00  0.00    +0.000 N 
ATOM      9  N   UNL     1       0.500   9.575  19.559  0.00  0.00    +0.000 NA
ATOM     10  H   UNL     1       1.794   7.563  21.779  0.00  0.00    +0.000 HD
ATOM     11  H   UNL     1       2.184   5.510  20.583  0.00  0.00    +0.000 HD
ENDROOT
BRANCH   8  12
ATOM     12  C   UNL     1       3.631   5.440  19.106  0.00  0.00    +0.000 A 
ATOM     13  C   UNL     1       3.025   4.610  18.163  0.00  0.00    +0.000 A 
ATOM     14  C   UNL     1       3.790   4.048  17.141  0.00  0.00    +0.000 A 
ATOM     15  C   UNL     1       5.168   4.265  17.092  0.00  0.00    +0.000 A 
ATOM     16  C   UNL     1       5.801   5.045  18.068  0.00  0.00    +0.000 A 
ATOM     17  C   UNL     1       5.018   5.639  19.070  0.00  0.00    +0.000 A 
BRANCH  16  18
ATOM     18  C   UNL     1       7.295   5.253  18.060  0.00  0.00    +0.000 C 
ATOM     19  F   UNL     1       7.986   4.192  17.553  0.00  0.00    +0.000 F 
ATOM     20  F   UNL     1       7.683   6.331  17.327  0.00  0.00    +0.000 F 
ATOM     21  F   UNL     1       7.798   5.450  19.313  0.00  0.00    +0.000 F 
ENDBRANCH  16  18
ENDBRANCH   8  12
BRANCH   1  22
ATOM     22  C   UNL     1      -0.430  11.710  18.647  0.00  0.00    +0.000 C 
BRANCH  22  23
ATOM     23  C   UNL     1       0.609  12.818  18.580  0.00  0.00    +0.000 A 
ATOM     24  C   UNL     1       1.984  12.568  18.409  0.00  0.00    +0.000 A 
ATOM     25  C   UNL     1       2.920  13.605  18.464  0.00  0.00    +0.000 A 
ATOM     26  C   UNL     1       2.503  14.911  18.705  0.00  0.00    +0.000 A 
ATOM     27  C   UNL     1       1.148  15.182  18.879  0.00  0.00    +0.000 A 
ATOM     28  C   UNL     1       0.211  14.146  18.817  0.00  0.00    +0.000 A 
ENDBRANCH  22  23
BRANCH  22  29
ATOM     29  N   UNL     1      -1.785  12.240  18.826  0.00  0.00    +0.000 NA
ATOM     30  H   UNL     1      -1.827  12.718  19.723  0.00  0.00    +0.000 HD
ATOM     31  H   UNL     1      -2.403  11.426  18.916  0.00  0.00    +0.000 HD
ENDBRANCH  22  29
ENDBRANCH   1  22
TORSDOF 5
ENDMDL
