MODEL 1
REMARK VINA RESULT:      -8.5      0.000      0.000
REMARK  Name = 
REMARK  8 active torsions:
REMARK  status: ('A' for Active; 'I' for Inactive)
REMARK    1  A    between atoms: C_1  and  N_2
REMARK    2  A    between atoms: C_3  and  C_5
REMARK    3  A    between atoms: C_10  and  C_11
REMARK    4  A    between atoms: C_11  and  C_12
REMARK    5  A    between atoms: C_12  and  N_13
REMARK    6  A    between atoms: N_16  and  C_17
REMARK    7  A    between atoms: C_21  and  O_22
REMARK    8  A    between atoms: O_22  and  C_23
REMARK                            x       y       z     vdW  Elec       q    Type
REMARK                         _______ _______ _______ _____ _____    ______ ____
ROOT
ATOM      1  C   UNL     1       2.251   6.124  21.147  0.00  0.00    +0.000 C 
ENDROOT
BRANCH   1   2
ATOM      2  N   UNL     1       2.282   7.079  20.045  0.00  0.00    +0.000 N 
ATOM      3  C   UNL     1       1.470   8.191  20.092  0.00  0.00    +0.000 C 
ATOM      4  O   UNL     1       0.750   8.411  21.059  0.00  0.00    +0.000 OA
ATOM      5  N   UNL     1       1.539   8.946  18.938  0.00  0.00    +0.000 N 
ATOM      6  H   UNL     1       3.120   7.137  19.486  0.00  0.00    +0.000 HD
ATOM      7  H   UNL     1       1.924   8.480  18.128  0.00  0.00    +0.000 HD
BRANCH   5   8
ATOM      8  C   UNL     1       0.847  10.162  18.715  0.00  0.00    +0.000 A 
ATOM      9  C   UNL     1       1.481  11.407  18.784  0.00  0.00    +0.000 A 
ATOM     10  C   UNL     1       0.763  12.586  18.609  0.00  0.00    +0.000 A 
ATOM     11  C   UNL     1      -0.597  12.531  18.329  0.00  0.00    +0.000 A 
ATOM     12  C   UNL     1      -1.245  11.300  18.201  0.00  0.00    +0.000 A 
ATOM     13  C   UNL     1      -0.526  10.117  18.417  0.00  0.00    +0.000 A 
BRANCH  12  14
ATOM     14  O   UNL     1      -2.580  11.399  17.956  0.00  0.00    +0.000 OA
BRANCH  14  15
ATOM     15  C   UNL     1      -3.118  10.907  16.739  0.00  0.00    +0.000 C 
ATOM     16  F   UNL     1      -2.444  11.290  15.636  0.00  0.00    +0.000 F 
ATOM     17  F   UNL     1      -3.139   9.557  16.785  0.00  0.00    +0.000 F 
ATOM     18  F   UNL     1      -4.393  11.342  16.622  0.00  0.00    +0.000 F 
ENDBRANCH  14  15
ENDBRANCH  12  14
ENDBRANCH   5   8
ENDBRANCH   1   2
BRANCH   1  19
ATOM     19  C   UNL     1       2.457   4.672  20.696  0.00  0.00    +0.000 C 
BRANCH  19  25
ATOM     20  C   UNL     1       6.371   4.928  15.487  0.00  0.00    +0.000 A 
ATOM     21  C   UNL     1       5.097   4.385  15.611  0.00  0.00    +0.000 A 
ATOM     22  C   UNL     1       4.455   4.445  16.851  0.00  0.00    +0.000 A 
ATOM     23  C   UNL     1       3.173   3.908  17.031  0.00  0.00    +0.000 A 
ATOM     24  C   UNL     1       2.537   3.978  18.274  0.00  0.00    +0.000 A 
ATOM     25  C   UNL     1       3.171   4.584  19.365  0.00  0.00    +0.000 A 
ATOM     26  C   UNL     1       4.456   5.123  19.188  0.00  0.00    +0.000 A 
ATOM     27  C   UNL     1       5.108   5.056  17.937  0.00  0.00    +0.000 A 
ATOM     28  C   UNL     1       6.393   5.569  17.700  0.00  0.00    +0.000 A 
ATOM     29  N   UNL     1       7.045   5.524  16.509  0.00  0.00    +0.000 NA
BRANCH  20  32
ATOM     30  C   UNL     1       7.099   3.769  11.954  0.00  0.00    +0.000 C 
ATOM     31  N   UNL     1       6.531   3.943  13.264  0.00  0.00    +0.000 N 
ATOM     32  C   UNL     1       7.058   4.852  14.157  0.00  0.00    +0.000 C 
ATOM     33  O   UNL     1       8.024   5.565  13.899  0.00  0.00    +0.000 OA
ATOM     34  H   UNL     1       5.752   3.373  13.584  0.00  0.00    +0.000 HD
ENDBRANCH  20  32
ENDBRANCH  19  25
ENDBRANCH   1  19
TORSDOF 7
ENDMDL
MODEL 2
REMARK VINA RESULT:      -8.4      5.379     10.814
REMARK  Name = 
REMARK  8 active torsions:
REMARK  status: ('A' for Active; 'I' for Inactive)
REMARK    1  A    between atoms: C_1  and  N_2
REMARK    2  A    between atoms: C_3  and  C_5
REMARK    3  A    between atoms: C_10  and  C_11
REMARK    4  A    between atoms: C_11  and  C_12
REMARK    5  A    between atoms: C_12  and  N_13
REMARK    6  A    between atoms: N_16  and  C_17
REMARK    7  A    between atoms: C_21  and  O_22
REMARK    8  A    between atoms: O_22  and  C_23
REMARK                            x       y       z     vdW  Elec       q    Type
REMARK                         _______ _______ _______ _____ _____    ______ ____
ROOT
ATOM      1  C   UNL     1       4.002   7.216  17.932  0.00  0.00    +0.000 C 
ENDROOT
BRANCH   1   2
ATOM      2  N   UNL     1       4.777   6.093  17.416  0.00  0.00    +0.000 N 
ATOM      3  C   UNL     1       5.137   6.075  16.086  0.00  0.00    +0.000 C 
ATOM      4  O   UNL     1       4.851   7.003  15.339  0.00  0.00    +0.000 OA
ATOM      5  N   UNL     1       5.780   4.907  15.728  0.00  0.00    +0.000 N 
ATOM      6  H   UNL     1       5.351   5.571  18.061  0.00  0.00    +0.000 HD
ATOM      7  H   UNL     1       5.664   4.128  16.360  0.00  0.00    +0.000 HD
BRANCH   5   8
ATOM      8  C   UNL     1       6.299   4.624  14.440  0.00  0.00    +0.000 A 
ATOM      9  C   UNL     1       7.396   5.309  13.908  0.00  0.00    +0.000 A 
ATOM     10  C   UNL     1       7.851   5.041  12.620  0.00  0.00    +0.000 A 
ATOM     11  C   UNL     1       7.232   4.056  11.860  0.00  0.00    +0.000 A 
ATOM     12  C   UNL     1       6.169   3.319  12.387  0.00  0.00    +0.000 A 
ATOM     13  C   UNL     1       5.689   3.619  13.668  0.00  0.00    +0.000 A 
BRANCH  12  14
ATOM     14  O   UNL     1       5.641   2.411  11.521  0.00  0.00    +0.000 OA
BRANCH  14  15
ATOM     15  C   UNL     1       6.425   1.316  11.076  0.00  0.00    +0.000 C 
ATOM     16  F   UNL     1       7.688   1.304  11.549  0.00  0.00    +0.000 F 
ATOM     17  F   UNL     1       5.818   0.166  11.441  0.00  0.00    +0.000 F 
ATOM     18  F   UNL     1       6.485   1.347   9.725  0.00  0.00    +0.000 F 
ENDBRANCH  14  15
ENDBRANCH  12  14
ENDBRANCH   5   8
ENDBRANCH   1   2
BRANCH   1  19
ATOM     19  C   UNL     1       2.678   6.791  18.580  0.00  0.00    +0.000 C 
BRANCH  19  25
ATOM     20  C   UNL     1      -0.422  11.186  22.267  0.00  0.00    +0.000 A 
ATOM     21  C   UNL     1      -0.155  11.206  20.903  0.00  0.00    +0.000 A 
ATOM     22  C   UNL     1       0.544  10.136  20.335  0.00  0.00    +0.000 A 
ATOM     23  C   UNL     1       0.844  10.110  18.966  0.00  0.00    +0.000 A 
ATOM     24  C   UNL     1       1.538   9.033  18.408  0.00  0.00    +0.000 A 
ATOM     25  C   UNL     1       1.949   7.959  19.207  0.00  0.00    +0.000 A 
ATOM     26  C   UNL     1       1.650   7.982  20.579  0.00  0.00    +0.000 A 
ATOM     27  C   UNL     1       0.951   9.067  21.154  0.00  0.00    +0.000 A 
ATOM     28  C   UNL     1       0.630   9.152  22.518  0.00  0.00    +0.000 A 
ATOM     29  N   UNL     1      -0.044  10.178  23.100  0.00  0.00    +0.000 NA
BRANCH  20  32
ATOM     30  C   UNL     1      -3.365  13.334  23.304  0.00  0.00    +0.000 C 
ATOM     31  N   UNL     1      -2.537  12.287  22.769  0.00  0.00    +0.000 N 
ATOM     32  C   UNL     1      -1.163  12.341  22.870  0.00  0.00    +0.000 C 
ATOM     33  O   UNL     1      -0.565  13.265  23.416  0.00  0.00    +0.000 OA
ATOM     34  H   UNL     1      -2.937  11.499  22.267  0.00  0.00    +0.000 HD
ENDBRANCH  20  32
ENDBRANCH  19  25
ENDBRANCH   1  19
TORSDOF 7
ENDMDL
MODEL 3
REMARK VINA RESULT:      -8.4      1.357      1.578
REMARK  Name = 
REMARK  8 active torsions:
REMARK  status: ('A' for Active; 'I' for Inactive)
REMARK    1  A    between atoms: C_1  and  N_2
REMARK    2  A    between atoms: C_3  and  C_5
REMARK    3  A    between atoms: C_10  and  C_11
REMARK    4  A    between atoms: C_11  and  C_12
REMARK    5  A    between atoms: C_12  and  N_13
REMARK    6  A    between atoms: N_16  and  C_17
REMARK    7  A    between atoms: C_21  and  O_22
REMARK    8  A    between atoms: O_22  and  C_23
REMARK                            x       y       z     vdW  Elec       q    Type
REMARK                         _______ _______ _______ _____ _____    ______ ____
ROOT
ATOM      1  C   UNL     1       2.148   6.552  20.956  0.00  0.00    +0.000 C 
ENDROOT
BRANCH   1   2
ATOM      2  N   UNL     1       1.067   7.468  21.300  0.00  0.00    +0.000 N 
ATOM      3  C   UNL     1       0.835   8.569  20.504  0.00  0.00    +0.000 C 
ATOM      4  O   UNL     1       1.495   8.769  19.491  0.00  0.00    +0.000 OA
ATOM      5  N   UNL     1      -0.153   9.389  21.011  0.00  0.00    +0.000 N 
ATOM      6  H   UNL     1       0.293   7.114  21.843  0.00  0.00    +0.000 HD
ATOM      7  H   UNL     1      -0.376   9.260  21.987  0.00  0.00    +0.000 HD
BRANCH   5   8
ATOM      8  C   UNL     1      -0.632  10.570  20.389  0.00  0.00    +0.000 A 
ATOM      9  C   UNL     1      -0.697  11.795  21.060  0.00  0.00    +0.000 A 
ATOM     10  C   UNL     1      -1.218  12.925  20.438  0.00  0.00    +0.000 A 
ATOM     11  C   UNL     1      -1.650  12.850  19.119  0.00  0.00    +0.000 A 
ATOM     12  C   UNL     1      -1.546  11.652  18.408  0.00  0.00    +0.000 A 
ATOM     13  C   UNL     1      -1.058  10.507  19.051  0.00  0.00    +0.000 A 
BRANCH  12  14
ATOM     14  O   UNL     1      -2.036  11.718  17.139  0.00  0.00    +0.000 OA
BRANCH  14  15
ATOM     15  C   UNL     1      -2.979  10.757  16.691  0.00  0.00    +0.000 C 
ATOM     16  F   UNL     1      -3.847  10.344  17.637  0.00  0.00    +0.000 F 
ATOM     17  F   UNL     1      -3.679  11.278  15.661  0.00  0.00    +0.000 F 
ATOM     18  F   UNL     1      -2.309   9.673  16.237  0.00  0.00    +0.000 F 
ENDBRANCH  14  15
ENDBRANCH  12  14
ENDBRANCH   5   8
ENDBRANCH   1   2
BRANCH   1  19
ATOM     19  C   UNL     1       1.677   5.335  20.149  0.00  0.00    +0.000 C 
BRANCH  19  25
ATOM     20  C   UNL     1       5.833   5.096  15.130  0.00  0.00    +0.000 A 
ATOM     21  C   UNL     1       5.166   4.062  15.776  0.00  0.00    +0.000 A 
ATOM     22  C   UNL     1       4.322   4.368  16.848  0.00  0.00    +0.000 A 
ATOM     23  C   UNL     1       3.630   3.363  17.537  0.00  0.00    +0.000 A 
ATOM     24  C   UNL     1       2.785   3.680  18.604  0.00  0.00    +0.000 A 
ATOM     25  C   UNL     1       2.615   5.010  19.007  0.00  0.00    +0.000 A 
ATOM     26  C   UNL     1       3.307   6.020  18.319  0.00  0.00    +0.000 A 
ATOM     27  C   UNL     1       4.165   5.710  17.240  0.00  0.00    +0.000 A 
ATOM     28  C   UNL     1       4.889   6.672  16.520  0.00  0.00    +0.000 A 
ATOM     29  N   UNL     1       5.718   6.408  15.476  0.00  0.00    +0.000 NA
BRANCH  20  32
ATOM     30  C   UNL     1       7.031   3.425  11.948  0.00  0.00    +0.000 C 
ATOM     31  N   UNL     1       6.255   3.837  13.087  0.00  0.00    +0.000 N 
ATOM     32  C   UNL     1       6.743   4.760  13.987  0.00  0.00    +0.000 C 
ATOM     33  O   UNL     1       7.848   5.287  13.878  0.00  0.00    +0.000 OA
ATOM     34  H   UNL     1       5.345   3.431  13.284  0.00  0.00    +0.000 HD
ENDBRANCH  20  32
ENDBRANCH  19  25
ENDBRANCH   1  19
TORSDOF 7
ENDMDL
MODEL 4
REMARK VINA RESULT:      -8.3      5.545     11.524
REMARK  Name = 
REMARK  8 active torsions:
REMARK  status: ('A' for Active; 'I' for Inactive)
REMARK    1  A    between atoms: C_1  and  N_2
REMARK    2  A    between atoms: C_3  and  C_5
REMARK    3  A    between atoms: C_10  and  C_11
REMARK    4  A    between atoms: C_11  and  C_12
REMARK    5  A    between atoms: C_12  and  N_13
REMARK    6  A    between atoms: N_16  and  C_17
REMARK    7  A    between atoms: C_21  and  O_22
REMARK    8  A    between atoms: O_22  and  C_23
REMARK                            x       y       z     vdW  Elec       q    Type
REMARK                         _______ _______ _______ _____ _____    ______ ____
ROOT
ATOM      1  C   UNL     1       1.139  10.795  18.707  0.00  0.00    +0.000 C 
ENDROOT
BRANCH   1   2
ATOM      2  N   UNL     1       1.482   9.460  19.184  0.00  0.00    +0.000 N 
ATOM      3  C   UNL     1       2.061   8.560  18.316  0.00  0.00    +0.000 C 
ATOM      4  O   UNL     1       2.328   8.874  17.162  0.00  0.00    +0.000 OA
ATOM      5  N   UNL     1       2.236   7.315  18.884  0.00  0.00    +0.000 N 
ATOM      6  H   UNL     1       1.656   9.334  20.170  0.00  0.00    +0.000 HD
ATOM      7  H   UNL     1       1.693   7.128  19.715  0.00  0.00    +0.000 HD
BRANCH   5   8
ATOM      8  C   UNL     1       2.842   6.204  18.245  0.00  0.00    +0.000 A 
ATOM      9  C   UNL     1       2.155   5.007  18.016  0.00  0.00    +0.000 A 
ATOM     10  C   UNL     1       2.792   3.917  17.430  0.00  0.00    +0.000 A 
ATOM     11  C   UNL     1       4.120   4.025  17.035  0.00  0.00    +0.000 A 
ATOM     12  C   UNL     1       4.814   5.226  17.202  0.00  0.00    +0.000 A 
ATOM     13  C   UNL     1       4.181   6.307  17.828  0.00  0.00    +0.000 A 
BRANCH  12  14
ATOM     14  O   UNL     1       6.113   5.176  16.798  0.00  0.00    +0.000 OA
BRANCH  14  15
ATOM     15  C   UNL     1       7.155   5.141  17.760  0.00  0.00    +0.000 C 
ATOM     16  F   UNL     1       7.799   6.314  17.927  0.00  0.00    +0.000 F 
ATOM     17  F   UNL     1       6.641   4.759  18.949  0.00  0.00    +0.000 F 
ATOM     18  F   UNL     1       8.064   4.215  17.380  0.00  0.00    +0.000 F 
ENDBRANCH  14  15
ENDBRANCH  12  14
ENDBRANCH   5   8
ENDBRANCH   1   2
BRANCH   1  19
ATOM     19  C   UNL     1       1.211  11.867  19.802  0.00  0.00    +0.000 C 
BRANCH  19  25
ATOM     20  C   UNL     1      -4.365  12.691  23.082  0.00  0.00    +0.000 A 
ATOM     21  C   UNL     1      -4.010  13.137  21.814  0.00  0.00    +0.000 A 
ATOM     22  C   UNL     1      -2.735  12.837  21.324  0.00  0.00    +0.000 A 
ATOM     23  C   UNL     1      -2.325  13.267  20.055  0.00  0.00    +0.000 A 
ATOM     24  C   UNL     1      -1.051  12.957  19.573  0.00  0.00    +0.000 A 
ATOM     25  C   UNL     1      -0.156  12.213  20.351  0.00  0.00    +0.000 A 
ATOM     26  C   UNL     1      -0.563  11.780  21.624  0.00  0.00    +0.000 A 
ATOM     27  C   UNL     1      -1.849  12.089  22.122  0.00  0.00    +0.000 A 
ATOM     28  C   UNL     1      -2.311  11.694  23.386  0.00  0.00    +0.000 A 
ATOM     29  N   UNL     1      -3.541  11.970  23.891  0.00  0.00    +0.000 NA
BRANCH  20  32
ATOM     30  C   UNL     1      -7.465  14.750  23.790  0.00  0.00    +0.000 C 
ATOM     31  N   UNL     1      -6.174  14.302  23.340  0.00  0.00    +0.000 N 
ATOM     32  C   UNL     1      -5.730  13.024  23.604  0.00  0.00    +0.000 C 
ATOM     33  O   UNL     1      -6.394  12.195  24.222  0.00  0.00    +0.000 OA
ATOM     34  H   UNL     1      -5.537  14.926  22.854  0.00  0.00    +0.000 HD
ENDBRANCH  20  32
ENDBRANCH  19  25
ENDBRANCH   1  19
TORSDOF 7
ENDMDL
MODEL 5
REMARK VINA RESULT:      -8.2      4.634     10.549
REMARK  Name = 
REMARK  8 active torsions:
REMARK  status: ('A' for Active; 'I' for Inactive)
REMARK    1  A    between atoms: C_1  and  N_2
REMARK    2  A    between atoms: C_3  and  C_5
REMARK    3  A    between atoms: C_10  and  C_11
REMARK    4  A    between atoms: C_11  and  C_12
REMARK    5  A    between atoms: C_12  and  N_13
REMARK    6  A    between atoms: N_16  and  C_17
REMARK    7  A    between atoms: C_21  and  O_22
REMARK    8  A    between atoms: O_22  and  C_23
REMARK                            x       y       z     vdW  Elec       q    Type
REMARK                         _______ _______ _______ _____ _____    ______ ____
ROOT
ATOM      1  C   UNL     1       1.180   7.074  20.634  0.00  0.00    +0.000 C 
ENDROOT
BRANCH   1   2
ATOM      2  N   UNL     1       2.164   6.004  20.511  0.00  0.00    +0.000 N 
ATOM      3  C   UNL     1       3.180   6.124  19.588  0.00  0.00    +0.000 C 
ATOM      4  O   UNL     1       3.294   7.130  18.897  0.00  0.00    +0.000 OA
ATOM      5  N   UNL     1       3.971   4.995  19.523  0.00  0.00    +0.000 N 
ATOM      6  H   UNL     1       2.328   5.410  21.310  0.00  0.00    +0.000 HD
ATOM      7  H   UNL     1       3.573   4.154  19.915  0.00  0.00    +0.000 HD
BRANCH   5   8
ATOM      8  C   UNL     1       5.112   4.845  18.695  0.00  0.00    +0.000 A 
ATOM      9  C   UNL     1       6.382   5.278  19.087  0.00  0.00    +0.000 A 
ATOM     10  C   UNL     1       7.474   5.161  18.232  0.00  0.00    +0.000 A 
ATOM     11  C   UNL     1       7.312   4.576  16.982  0.00  0.00    +0.000 A 
ATOM     12  C   UNL     1       6.066   4.085  16.587  0.00  0.00    +0.000 A 
ATOM     13  C   UNL     1       4.962   4.241  17.434  0.00  0.00    +0.000 A 
BRANCH  12  14
ATOM     14  O   UNL     1       6.049   3.566  15.328  0.00  0.00    +0.000 OA
BRANCH  14  15
ATOM     15  C   UNL     1       5.797   4.410  14.216  0.00  0.00    +0.000 C 
ATOM     16  F   UNL     1       4.753   4.029  13.452  0.00  0.00    +0.000 F 
ATOM     17  F   UNL     1       5.569   5.665  14.661  0.00  0.00    +0.000 F 
ATOM     18  F   UNL     1       6.900   4.437  13.434  0.00  0.00    +0.000 F 
ENDBRANCH  14  15
ENDBRANCH  12  14
ENDBRANCH   5   8
ENDBRANCH   1   2
BRANCH   1  19
ATOM     19  C   UNL     1       1.617   8.193  21.587  0.00  0.00    +0.000 C 
BRANCH  19  25
ATOM     20  C   UNL     1      -2.727  13.033  21.106  0.00  0.00    +0.000 A 
ATOM     21  C   UNL     1      -2.353  12.286  22.218  0.00  0.00    +0.000 A 
ATOM     22  C   UNL     1      -1.393  11.282  22.066  0.00  0.00    +0.000 A 
ATOM     23  C   UNL     1      -0.985  10.496  23.153  0.00  0.00    +0.000 A 
ATOM     24  C   UNL     1      -0.021   9.499  22.991  0.00  0.00    +0.000 A 
ATOM     25  C   UNL     1       0.556   9.262  21.737  0.00  0.00    +0.000 A 
ATOM     26  C   UNL     1       0.150  10.046  20.646  0.00  0.00    +0.000 A 
ATOM     27  C   UNL     1      -0.826  11.057  20.797  0.00  0.00    +0.000 A 
ATOM     28  C   UNL     1      -1.279  11.867  19.745  0.00  0.00    +0.000 A 
ATOM     29  N   UNL     1      -2.211  12.849  19.860  0.00  0.00    +0.000 NA
BRANCH  20  32
ATOM     30  C   UNL     1      -4.551  16.301  20.520  0.00  0.00    +0.000 C 
ATOM     31  N   UNL     1      -3.625  15.202  20.456  0.00  0.00    +0.000 N 
ATOM     32  C   UNL     1      -3.764  14.102  21.274  0.00  0.00    +0.000 C 
ATOM     33  O   UNL     1      -4.672  13.984  22.094  0.00  0.00    +0.000 OA
ATOM     34  H   UNL     1      -2.819  15.224  19.837  0.00  0.00    +0.000 HD
ENDBRANCH  20  32
ENDBRANCH  19  25
ENDBRANCH   1  19
TORSDOF 7
ENDMDL
MODEL 6
REMARK VINA RESULT:      -8.2      5.294     11.331
REMARK  Name = 
REMARK  8 active torsions:
REMARK  status: ('A' for Active; 'I' for Inactive)
REMARK    1  A    between atoms: C_1  and  N_2
REMARK    2  A    between atoms: C_3  and  C_5
REMARK    3  A    between atoms: C_10  and  C_11
REMARK    4  A    between atoms: C_11  and  C_12
REMARK    5  A    between atoms: C_12  and  N_13
REMARK    6  A    between atoms: N_16  and  C_17
REMARK    7  A    between atoms: C_21  and  O_22
REMARK    8  A    between atoms: O_22  and  C_23
REMARK                            x       y       z     vdW  Elec       q    Type
REMARK                         _______ _______ _______ _____ _____    ______ ____
ROOT
ATOM      1  C   UNL     1       1.565  10.497  18.235  0.00  0.00    +0.000 C 
ENDROOT
BRANCH   1   2
ATOM      2  N   UNL     1       1.700   9.194  18.876  0.00  0.00    +0.000 N 
ATOM      3  C   UNL     1       2.367   8.184  18.218  0.00  0.00    +0.000 C 
ATOM      4  O   UNL     1       2.880   8.372  17.121  0.00  0.00    +0.000 OA
ATOM      5  N   UNL     1       2.328   6.988  18.907  0.00  0.00    +0.000 N 
ATOM      6  H   UNL     1       1.665   9.150  19.884  0.00  0.00    +0.000 HD
ATOM      7  H   UNL     1       1.618   6.913  19.621  0.00  0.00    +0.000 HD
BRANCH   5   8
ATOM      8  C   UNL     1       2.958   5.788  18.494  0.00  0.00    +0.000 A 
ATOM      9  C   UNL     1       2.261   4.760  17.852  0.00  0.00    +0.000 A 
ATOM     10  C   UNL     1       2.898   3.572  17.503  0.00  0.00    +0.000 A 
ATOM     11  C   UNL     1       4.254   3.414  17.764  0.00  0.00    +0.000 A 
ATOM     12  C   UNL     1       4.986   4.446  18.354  0.00  0.00    +0.000 A 
ATOM     13  C   UNL     1       4.333   5.624  18.740  0.00  0.00    +0.000 A 
BRANCH  12  14
ATOM     14  O   UNL     1       6.294   4.139  18.577  0.00  0.00    +0.000 OA
BRANCH  14  15
ATOM     15  C   UNL     1       7.317   4.898  17.953  0.00  0.00    +0.000 C 
ATOM     16  F   UNL     1       6.974   5.424  16.760  0.00  0.00    +0.000 F 
ATOM     17  F   UNL     1       7.682   5.903  18.779  0.00  0.00    +0.000 F 
ATOM     18  F   UNL     1       8.393   4.100  17.764  0.00  0.00    +0.000 F 
ENDBRANCH  14  15
ENDBRANCH  12  14
ENDBRANCH   5   8
ENDBRANCH   1   2
BRANCH   1  19
ATOM     19  C   UNL     1       1.443  11.655  19.235  0.00  0.00    +0.000 C 
BRANCH  19  25
ATOM     20  C   UNL     1      -4.414  12.726  21.894  0.00  0.00    +0.000 A 
ATOM     21  C   UNL     1      -4.043  12.693  20.555  0.00  0.00    +0.000 A 
ATOM     22  C   UNL     1      -2.705  12.449  20.230  0.00  0.00    +0.000 A 
ATOM     23  C   UNL     1      -2.277  12.411  18.896  0.00  0.00    +0.000 A 
ATOM     24  C   UNL     1      -0.939  12.162  18.582  0.00  0.00    +0.000 A 
ATOM     25  C   UNL     1       0.003  11.947  19.596  0.00  0.00    +0.000 A 
ATOM     26  C   UNL     1      -0.422  11.985  20.934  0.00  0.00    +0.000 A 
ATOM     27  C   UNL     1      -1.773  12.239  21.262  0.00  0.00    +0.000 A 
ATOM     28  C   UNL     1      -2.257  12.297  22.578  0.00  0.00    +0.000 A 
ATOM     29  N   UNL     1      -3.548  12.533  22.926  0.00  0.00    +0.000 NA
BRANCH  20  32
ATOM     30  C   UNL     1      -7.602  12.788  23.939  0.00  0.00    +0.000 C 
ATOM     31  N   UNL     1      -6.250  12.591  23.489  0.00  0.00    +0.000 N 
ATOM     32  C   UNL     1      -5.848  12.997  22.235  0.00  0.00    +0.000 C 
ATOM     33  O   UNL     1      -6.599  13.548  21.434  0.00  0.00    +0.000 OA
ATOM     34  H   UNL     1      -5.565  12.111  24.066  0.00  0.00    +0.000 HD
ENDBRANCH  20  32
ENDBRANCH  19  25
ENDBRANCH   1  19
TORSDOF 7
ENDMDL
MODEL 7
REMARK VINA RESULT:      -8.1      1.653      1.972
REMARK  Name = 
REMARK  8 active torsions:
REMARK  status: ('A' for Active; 'I' for Inactive)
REMARK    1  A    between atoms: C_1  and  N_2
REMARK    2  A    between atoms: C_3  and  C_5
REMARK    3  A    between atoms: C_10  and  C_11
REMARK    4  A    between atoms: C_11  and  C_12
REMARK    5  A    between atoms: C_12  and  N_13
REMARK    6  A    between atoms: N_16  and  C_17
REMARK    7  A    between atoms: C_21  and  O_22
REMARK    8  A    between atoms: O_22  and  C_23
REMARK                            x       y       z     vdW  Elec       q    Type
REMARK                         _______ _______ _______ _____ _____    ______ ____
ROOT
ATOM      1  C   UNL     1       1.968   4.116  21.074  0.00  0.00    +0.000 C 
ENDROOT
BRANCH   1   2
ATOM      2  N   UNL     1       2.346   5.522  21.150  0.00  0.00    +0.000 N 
ATOM      3  C   UNL     1       1.380   6.491  20.987  0.00  0.00    +0.000 C 
ATOM      4  O   UNL     1       0.204   6.192  20.818  0.00  0.00    +0.000 OA
ATOM      5  N   UNL     1       1.906   7.768  20.988  0.00  0.00    +0.000 N 
ATOM      6  H   UNL     1       3.169   5.769  21.680  0.00  0.00    +0.000 HD
ATOM      7  H   UNL     1       2.900   7.836  20.824  0.00  0.00    +0.000 HD
BRANCH   5   8
ATOM      8  C   UNL     1       1.150   8.962  20.879  0.00  0.00    +0.000 A 
ATOM      9  C   UNL     1       0.765   9.707  21.998  0.00  0.00    +0.000 A 
ATOM     10  C   UNL     1      -0.019  10.849  21.862  0.00  0.00    +0.000 A 
ATOM     11  C   UNL     1      -0.400  11.278  20.596  0.00  0.00    +0.000 A 
ATOM     12  C   UNL     1       0.017  10.583  19.458  0.00  0.00    +0.000 A 
ATOM     13  C   UNL     1       0.772   9.412  19.602  0.00  0.00    +0.000 A 
BRANCH  12  14
ATOM     14  O   UNL     1      -0.456  11.099  18.290  0.00  0.00    +0.000 OA
BRANCH  14  15
ATOM     15  C   UNL     1      -1.677  10.625  17.747  0.00  0.00    +0.000 C 
ATOM     16  F   UNL     1      -1.552   9.989  16.564  0.00  0.00    +0.000 F 
ATOM     17  F   UNL     1      -2.251   9.781  18.632  0.00  0.00    +0.000 F 
ATOM     18  F   UNL     1      -2.510  11.676  17.571  0.00  0.00    +0.000 F 
ENDBRANCH  14  15
ENDBRANCH  12  14
ENDBRANCH   5   8
ENDBRANCH   1   2
BRANCH   1  19
ATOM     19  C   UNL     1       3.152   3.186  20.778  0.00  0.00    +0.000 C 
BRANCH  19  25
ATOM     20  C   UNL     1       6.519   4.491  15.348  0.00  0.00    +0.000 A 
ATOM     21  C   UNL     1       5.206   4.059  15.492  0.00  0.00    +0.000 A 
ATOM     22  C   UNL     1       4.706   3.836  16.778  0.00  0.00    +0.000 A 
ATOM     23  C   UNL     1       3.391   3.393  16.979  0.00  0.00    +0.000 A 
ATOM     24  C   UNL     1       2.898   3.179  18.269  0.00  0.00    +0.000 A 
ATOM     25  C   UNL     1       3.711   3.400  19.388  0.00  0.00    +0.000 A 
ATOM     26  C   UNL     1       5.029   3.843  19.190  0.00  0.00    +0.000 A 
ATOM     27  C   UNL     1       5.538   4.061  17.891  0.00  0.00    +0.000 A 
ATOM     28  C   UNL     1       6.846   4.494  17.629  0.00  0.00    +0.000 A 
ATOM     29  N   UNL     1       7.363   4.718  16.392  0.00  0.00    +0.000 NA
BRANCH  20  32
ATOM     30  C   UNL     1       8.681   5.943  12.596  0.00  0.00    +0.000 C 
ATOM     31  N   UNL     1       8.083   5.630  13.866  0.00  0.00    +0.000 N 
ATOM     32  C   UNL     1       7.053   4.719  13.966  0.00  0.00    +0.000 C 
ATOM     33  O   UNL     1       6.588   4.121  12.999  0.00  0.00    +0.000 OA
ATOM     34  H   UNL     1       8.373   6.101  14.719  0.00  0.00    +0.000 HD
ENDBRANCH  20  32
ENDBRANCH  19  25
ENDBRANCH   1  19
TORSDOF 7
ENDMDL
MODEL 8
REMARK VINA RESULT:      -8.1      5.537     11.600
REMARK  Name = 
REMARK  8 active torsions:
REMARK  status: ('A' for Active; 'I' for Inactive)
REMARK    1  A    between atoms: C_1  and  N_2
REMARK    2  A    between atoms: C_3  and  C_5
REMARK    3  A    between atoms: C_10  and  C_11
REMARK    4  A    between atoms: C_11  and  C_12
REMARK    5  A    between atoms: C_12  and  N_13
REMARK    6  A    between atoms: N_16  and  C_17
REMARK    7  A    between atoms: C_21  and  O_22
REMARK    8  A    between atoms: O_22  and  C_23
REMARK                            x       y       z     vdW  Elec       q    Type
REMARK                         _______ _______ _______ _____ _____    ______ ____
ROOT
ATOM      1  C   UNL     1       1.111   9.253  21.173  0.00  0.00    +0.000 C 
ENDROOT
BRANCH   1   2
ATOM      2  N   UNL     1       1.664   7.905  21.225  0.00  0.00    +0.000 N 
ATOM      3  C   UNL     1       2.044   7.285  20.055  0.00  0.00    +0.000 C 
ATOM      4  O   UNL     1       1.961   7.861  18.976  0.00  0.00    +0.000 OA
ATOM      5  N   UNL     1       2.455   5.983  20.255  0.00  0.00    +0.000 N 
ATOM      6  H   UNL     1       2.110   7.602  22.078  0.00  0.00    +0.000 HD
ATOM      7  H   UNL     1       2.175   5.560  21.128  0.00  0.00    +0.000 HD
BRANCH   5   8
ATOM      8  C   UNL     1       2.938   5.115  19.243  0.00  0.00    +0.000 A 
ATOM      9  C   UNL     1       2.143   4.115  18.674  0.00  0.00    +0.000 A 
ATOM     10  C   UNL     1       2.661   3.246  17.718  0.00  0.00    +0.000 A 
ATOM     11  C   UNL     1       3.977   3.391  17.294  0.00  0.00    +0.000 A 
ATOM     12  C   UNL     1       4.777   4.416  17.806  0.00  0.00    +0.000 A 
ATOM     13  C   UNL     1       4.263   5.263  18.797  0.00  0.00    +0.000 A 
BRANCH  12  14
ATOM     14  O   UNL     1       6.050   4.418  17.324  0.00  0.00    +0.000 OA
BRANCH  14  15
ATOM     15  C   UNL     1       6.297   4.774  15.973  0.00  0.00    +0.000 C 
ATOM     16  F   UNL     1       6.378   3.727  15.127  0.00  0.00    +0.000 F 
ATOM     17  F   UNL     1       5.312   5.595  15.550  0.00  0.00    +0.000 F 
ATOM     18  F   UNL     1       7.464   5.453  15.911  0.00  0.00    +0.000 F 
ENDBRANCH  14  15
ENDBRANCH  12  14
ENDBRANCH   5   8
ENDBRANCH   1   2
BRANCH   1  19
ATOM     19  C   UNL     1       0.418   9.674  22.476  0.00  0.00    +0.000 C 
BRANCH  19  25
ATOM     20  C   UNL     1      -4.492  13.964  22.551  0.00  0.00    +0.000 A 
ATOM     21  C   UNL     1      -3.605  13.653  21.528  0.00  0.00    +0.000 A 
ATOM     22  C   UNL     1      -2.618  12.691  21.758  0.00  0.00    +0.000 A 
ATOM     23  C   UNL     1      -1.694  12.344  20.762  0.00  0.00    +0.000 A 
ATOM     24  C   UNL     1      -0.715  11.377  21.002  0.00  0.00    +0.000 A 
ATOM     25  C   UNL     1      -0.634  10.736  22.244  0.00  0.00    +0.000 A 
ATOM     26  C   UNL     1      -1.557  11.081  23.245  0.00  0.00    +0.000 A 
ATOM     27  C   UNL     1      -2.551  12.059  23.014  0.00  0.00    +0.000 A 
ATOM     28  C   UNL     1      -3.495  12.453  23.975  0.00  0.00    +0.000 A 
ATOM     29  N   UNL     1      -4.464  13.385  23.783  0.00  0.00    +0.000 NA
BRANCH  20  32
ATOM     30  C   UNL     1      -7.314  16.380  23.296  0.00  0.00    +0.000 C 
ATOM     31  N   UNL     1      -6.273  15.393  23.402  0.00  0.00    +0.000 N 
ATOM     32  C   UNL     1      -5.542  15.004  22.300  0.00  0.00    +0.000 C 
ATOM     33  O   UNL     1      -5.722  15.467  21.176  0.00  0.00    +0.000 OA
ATOM     34  H   UNL     1      -6.074  14.925  24.282  0.00  0.00    +0.000 HD
ENDBRANCH  20  32
ENDBRANCH  19  25
ENDBRANCH   1  19
TORSDOF 7
ENDMDL
MODEL 9
REMARK VINA RESULT:      -8.0      5.440     11.510
REMARK  Name = 
REMARK  8 active torsions:
REMARK  status: ('A' for Active; 'I' for Inactive)
REMARK    1  A    between atoms: C_1  and  N_2
REMARK    2  A    between atoms: C_3  and  C_5
REMARK    3  A    between atoms: C_10  and  C_11
REMARK    4  A    between atoms: C_11  and  C_12
REMARK    5  A    between atoms: C_12  and  N_13
REMARK    6  A    between atoms: N_16  and  C_17
REMARK    7  A    between atoms: C_21  and  O_22
REMARK    8  A    between atoms: O_22  and  C_23
REMARK                            x       y       z     vdW  Elec       q    Type
REMARK                         _______ _______ _______ _____ _____    ______ ____
ROOT
ATOM      1  C   UNL     1       1.069   9.939  18.832  0.00  0.00    +0.000 C 
ENDROOT
BRANCH   1   2
ATOM      2  N   UNL     1       1.527   8.834  19.666  0.00  0.00    +0.000 N 
ATOM      3  C   UNL     1       2.171   7.766  19.079  0.00  0.00    +0.000 C 
ATOM      4  O   UNL     1       2.399   7.747  17.875  0.00  0.00    +0.000 OA
ATOM      5  N   UNL     1       2.456   6.760  19.980  0.00  0.00    +0.000 N 
ATOM      6  H   UNL     1       1.720   9.017  20.639  0.00  0.00    +0.000 HD
ATOM      7  H   UNL     1       1.938   6.784  20.847  0.00  0.00    +0.000 HD
BRANCH   5   8
ATOM      8  C   UNL     1       3.146   5.561  19.672  0.00  0.00    +0.000 A 
ATOM      9  C   UNL     1       2.495   4.327  19.578  0.00  0.00    +0.000 A 
ATOM     10  C   UNL     1       3.209   3.159  19.323  0.00  0.00    +0.000 A 
ATOM     11  C   UNL     1       4.583   3.219  19.126  0.00  0.00    +0.000 A 
ATOM     12  C   UNL     1       5.250   4.446  19.160  0.00  0.00    +0.000 A 
ATOM     13  C   UNL     1       4.535   5.613  19.457  0.00  0.00    +0.000 A 
BRANCH  12  14
ATOM     14  O   UNL     1       6.597   4.349  18.981  0.00  0.00    +0.000 OA
BRANCH  14  15
ATOM     15  C   UNL     1       7.219   5.025  17.901  0.00  0.00    +0.000 C 
ATOM     16  F   UNL     1       7.773   6.210  18.229  0.00  0.00    +0.000 F 
ATOM     17  F   UNL     1       8.179   4.230  17.381  0.00  0.00    +0.000 F 
ATOM     18  F   UNL     1       6.295   5.249  16.939  0.00  0.00    +0.000 F 
ENDBRANCH  14  15
ENDBRANCH  12  14
ENDBRANCH   5   8
ENDBRANCH   1   2
BRANCH   1  19
ATOM     19  C   UNL     1       1.041  11.284  19.569  0.00  0.00    +0.000 C 
BRANCH  19  25
ATOM     20  C   UNL     1      -4.601  12.672  22.530  0.00  0.00    +0.000 A 
ATOM     21  C   UNL     1      -4.291  12.666  21.175  0.00  0.00    +0.000 A 
ATOM     22  C   UNL     1      -2.990  12.339  20.781  0.00  0.00    +0.000 A 
ATOM     23  C   UNL     1      -2.623  12.323  19.428  0.00  0.00    +0.000 A 
ATOM     24  C   UNL     1      -1.322  11.990  19.045  0.00  0.00    +0.000 A 
ATOM     25  C   UNL     1      -0.356  11.666  20.006  0.00  0.00    +0.000 A 
ATOM     26  C   UNL     1      -0.720  11.681  21.362  0.00  0.00    +0.000 A 
ATOM     27  C   UNL     1      -2.032  12.019  21.761  0.00  0.00    +0.000 A 
ATOM     28  C   UNL     1      -2.454  12.059  23.099  0.00  0.00    +0.000 A 
ATOM     29  N   UNL     1      -3.708  12.375  23.514  0.00  0.00    +0.000 NA
BRANCH  20  32
ATOM     30  C   UNL     1      -7.408  14.682  24.089  0.00  0.00    +0.000 C 
ATOM     31  N   UNL     1      -6.125  14.222  23.630  0.00  0.00    +0.000 N 
ATOM     32  C   UNL     1      -5.995  13.032  22.946  0.00  0.00    +0.000 C 
ATOM     33  O   UNL     1      -6.946  12.302  22.681  0.00  0.00    +0.000 OA
ATOM     34  H   UNL     1      -5.274  14.738  23.833  0.00  0.00    +0.000 HD
ENDBRANCH  20  32
ENDBRANCH  19  25
ENDBRANCH   1  19
TORSDOF 7
ENDMDL
