MODEL 1
REMARK VINA RESULT:      -8.8      0.000      0.000
REMARK  Name = 
REMARK  7 active torsions:
REMARK  status: ('A' for Active; 'I' for Inactive)
REMARK    1  A    between atoms: C_1  and  O_2
REMARK    2  A    between atoms: O_2  and  C_3
REMARK    3  A    between atoms: C_9  and  C_10
REMARK    4  A    between atoms: C_10  and  C_11
REMARK    5  A    between atoms: C_11  and  O_13
REMARK    6  A    between atoms: C_14  and  C_15
REMARK    7  A    between atoms: N_16  and  C_17
REMARK                            x       y       z     vdW  Elec       q    Type
REMARK                         _______ _______ _______ _____ _____    ______ ____
ROOT
ATOM      1  C   UNL     1       1.659   8.576  19.143  0.00  0.00    +0.000 A 
ATOM      2  C   UNL     1       2.512   8.710  18.037  0.00  0.00    +0.000 A 
ATOM      3  C   UNL     1       3.397   7.680  17.659  0.00  0.00    +0.000 A 
ATOM      4  C   UNL     1       3.470   6.497  18.418  0.00  0.00    +0.000 A 
ATOM      5  C   UNL     1       2.605   6.369  19.532  0.00  0.00    +0.000 A 
ATOM      6  C   UNL     1       1.695   7.396  19.869  0.00  0.00    +0.000 A 
ATOM      7  C   UNL     1       2.827   5.133  20.176  0.00  0.00    +0.000 A 
ATOM      8  C   UNL     1       3.818   4.493  19.437  0.00  0.00    +0.000 A 
ATOM      9  C   UNL     1       4.306   3.105  19.786  0.00  0.00    +0.000 C 
ATOM     10  N   UNL     1       4.265   5.329  18.316  0.00  0.00    +0.000 N 
ENDROOT
BRANCH  10  11
ATOM     11  C   UNL     1       5.384   4.948  17.367  0.00  0.00    +0.000 A 
ATOM     12  C   UNL     1       6.601   5.199  17.987  0.00  0.00    +0.000 A 
ATOM     13  C   UNL     1       7.656   4.480  17.556  0.00  0.00    +0.000 A 
ATOM     14  N   UNL     1       7.969   4.749  16.308  0.00  0.00    +0.000 NA
ATOM     15  C   UNL     1       6.935   4.707  15.488  0.00  0.00    +0.000 A 
ATOM     16  C   UNL     1       7.392   4.746  14.187  0.00  0.00    +0.000 A 
ATOM     17  C   UNL     1       6.613   4.290  13.166  0.00  0.00    +0.000 A 
ATOM     18 CL   UNL     1       7.279   4.218  11.578  0.00  0.00    +0.000 Cl
ATOM     19  C   UNL     1       5.345   3.806  13.466  0.00  0.00    +0.000 A 
ATOM     20  C   UNL     1       4.804   3.969  14.794  0.00  0.00    +0.000 A 
ATOM     21  C   UNL     1       5.560   4.537  15.914  0.00  0.00    +0.000 A 
ENDBRANCH  10  11
BRANCH   1  23
ATOM     22  C   UNL     1       0.850   9.780  21.018  0.00  0.00    +0.000 C 
ATOM     23  O   UNL     1       0.770   9.496  19.633  0.00  0.00    +0.000 OA
ENDBRANCH   1  23
BRANCH   7  24
ATOM     24  C   UNL     1       2.030   4.601  21.372  0.00  0.00    +0.000 C 
BRANCH  24  25
ATOM     25  C   UNL     1       1.329   3.261  21.271  0.00  0.00    +0.000 C 
ATOM     26  O   UNL     1       1.559   2.348  22.060  0.00  0.00    +0.000 OA
BRANCH  25  27
ATOM     27  O   UNL     1       0.423   3.094  20.298  0.00  0.00    +0.000 OA
ATOM     28  H   UNL     1      -0.085   2.261  20.357  0.00  0.00    +0.000 HD
ENDBRANCH  25  27
ENDBRANCH  24  25
ENDBRANCH   7  24
TORSDOF 5
ENDMDL
MODEL 2
REMARK VINA RESULT:      -8.4      4.004      7.400
REMARK  Name = 
REMARK  7 active torsions:
REMARK  status: ('A' for Active; 'I' for Inactive)
REMARK    1  A    between atoms: C_1  and  O_2
REMARK    2  A    between atoms: O_2  and  C_3
REMARK    3  A    between atoms: C_9  and  C_10
REMARK    4  A    between atoms: C_10  and  C_11
REMARK    5  A    between atoms: C_11  and  O_13
REMARK    6  A    between atoms: C_14  and  C_15
REMARK    7  A    between atoms: N_16  and  C_17
REMARK                            x       y       z     vdW  Elec       q    Type
REMARK                         _______ _______ _______ _____ _____    ______ ____
ROOT
ATOM      1  C   UNL     1       6.264   5.442  16.701  0.00  0.00    +0.000 A 
ATOM      2  C   UNL     1       5.857   6.781  16.595  0.00  0.00    +0.000 A 
ATOM      3  C   UNL     1       4.754   7.276  17.320  0.00  0.00    +0.000 A 
ATOM      4  C   UNL     1       4.006   6.415  18.144  0.00  0.00    +0.000 A 
ATOM      5  C   UNL     1       4.424   5.066  18.247  0.00  0.00    +0.000 A 
ATOM      6  C   UNL     1       5.558   4.600  17.544  0.00  0.00    +0.000 A 
ATOM      7  C   UNL     1       3.553   4.355  19.100  0.00  0.00    +0.000 A 
ATOM      8  C   UNL     1       2.612   5.280  19.539  0.00  0.00    +0.000 A 
ATOM      9  C   UNL     1       1.521   4.910  20.519  0.00  0.00    +0.000 C 
ATOM     10  N   UNL     1       2.854   6.603  18.947  0.00  0.00    +0.000 N 
ENDROOT
BRANCH  10  11
ATOM     11  C   UNL     1       1.961   7.808  19.168  0.00  0.00    +0.000 A 
ATOM     12  C   UNL     1       2.100   8.671  18.089  0.00  0.00    +0.000 A 
ATOM     13  C   UNL     1       1.063   9.495  17.840  0.00  0.00    +0.000 A 
ATOM     14  N   UNL     1       0.868  10.361  18.810  0.00  0.00    +0.000 NA
ATOM     15  C   UNL     1       0.823   9.806  20.006  0.00  0.00    +0.000 A 
ATOM     16  C   UNL     1       0.366  10.737  20.916  0.00  0.00    +0.000 A 
ATOM     17  C   UNL     1      -0.182  10.339  22.098  0.00  0.00    +0.000 A 
ATOM     18 CL   UNL     1      -0.875  11.527  23.138  0.00  0.00    +0.000 Cl
ATOM     19  C   UNL     1      -0.250   8.978  22.372  0.00  0.00    +0.000 A 
ATOM     20  C   UNL     1       0.421   8.033  21.512  0.00  0.00    +0.000 A 
ATOM     21  C   UNL     1       1.107   8.410  20.272  0.00  0.00    +0.000 A 
ENDBRANCH  10  11
BRANCH   1  23
ATOM     22  C   UNL     1       6.998   4.265  14.779  0.00  0.00    +0.000 C 
ATOM     23  O   UNL     1       7.296   4.825  16.045  0.00  0.00    +0.000 OA
ENDBRANCH   1  23
BRANCH   7  24
ATOM     24  C   UNL     1       3.723   2.889  19.518  0.00  0.00    +0.000 C 
BRANCH  24  25
ATOM     25  C   UNL     1       3.485   1.788  18.505  0.00  0.00    +0.000 C 
ATOM     26  O   UNL     1       2.563   1.842  17.694  0.00  0.00    +0.000 OA
BRANCH  25  27
ATOM     27  O   UNL     1       4.324   0.744  18.497  0.00  0.00    +0.000 OA
ATOM     28  H   UNL     1       3.939  -0.082  18.142  0.00  0.00    +0.000 HD
ENDBRANCH  25  27
ENDBRANCH  24  25
ENDBRANCH   7  24
TORSDOF 5
ENDMDL
MODEL 3
REMARK VINA RESULT:      -8.2      3.888      7.307
REMARK  Name = 
REMARK  7 active torsions:
REMARK  status: ('A' for Active; 'I' for Inactive)
REMARK    1  A    between atoms: C_1  and  O_2
REMARK    2  A    between atoms: O_2  and  C_3
REMARK    3  A    between atoms: C_9  and  C_10
REMARK    4  A    between atoms: C_10  and  C_11
REMARK    5  A    between atoms: C_11  and  O_13
REMARK    6  A    between atoms: C_14  and  C_15
REMARK    7  A    between atoms: N_16  and  C_17
REMARK                            x       y       z     vdW  Elec       q    Type
REMARK                         _______ _______ _______ _____ _____    ______ ____
ROOT
ATOM      1  C   UNL     1       5.713   4.877  16.272  0.00  0.00    +0.000 A 
ATOM      2  C   UNL     1       5.469   6.257  16.174  0.00  0.00    +0.000 A 
ATOM      3  C   UNL     1       4.495   6.890  16.970  0.00  0.00    +0.000 A 
ATOM      4  C   UNL     1       3.709   6.136  17.861  0.00  0.00    +0.000 A 
ATOM      5  C   UNL     1       3.962   4.745  17.955  0.00  0.00    +0.000 A 
ATOM      6  C   UNL     1       4.973   4.136  17.178  0.00  0.00    +0.000 A 
ATOM      7  C   UNL     1       3.076   4.155  18.881  0.00  0.00    +0.000 A 
ATOM      8  C   UNL     1       2.293   5.195  19.374  0.00  0.00    +0.000 A 
ATOM      9  C   UNL     1       1.242   4.971  20.437  0.00  0.00    +0.000 C 
ATOM     10  N   UNL     1       2.653   6.472  18.744  0.00  0.00    +0.000 N 
ENDROOT
BRANCH  10  11
ATOM     11  C   UNL     1       1.937   7.781  19.011  0.00  0.00    +0.000 A 
ATOM     12  C   UNL     1       2.335   8.711  18.059  0.00  0.00    +0.000 A 
ATOM     13  C   UNL     1       1.475   9.716  17.803  0.00  0.00    +0.000 A 
ATOM     14  N   UNL     1       1.301  10.503  18.842  0.00  0.00    +0.000 NA
ATOM     15  C   UNL     1       1.028   9.849  19.955  0.00  0.00    +0.000 A 
ATOM     16  C   UNL     1       0.614  10.749  20.915  0.00  0.00    +0.000 A 
ATOM     17  C   UNL     1      -0.126  10.334  21.981  0.00  0.00    +0.000 A 
ATOM     18 CL   UNL     1      -0.747  11.512  23.074  0.00  0.00    +0.000 Cl
ATOM     19  C   UNL     1      -0.435   8.983  22.086  0.00  0.00    +0.000 A 
ATOM     20  C   UNL     1       0.180   8.029  21.195  0.00  0.00    +0.000 A 
ATOM     21  C   UNL     1       1.060   8.406  20.084  0.00  0.00    +0.000 A 
ENDBRANCH  10  11
BRANCH   1  23
ATOM     22  C   UNL     1       6.367   4.021  14.160  0.00  0.00    +0.000 C 
ATOM     23  O   UNL     1       6.607   4.131  15.551  0.00  0.00    +0.000 OA
ENDBRANCH   1  23
BRANCH   7  24
ATOM     24  C   UNL     1       3.093   2.683  19.309  0.00  0.00    +0.000 C 
BRANCH  24  25
ATOM     25  C   UNL     1       3.986   2.245  20.453  0.00  0.00    +0.000 C 
ATOM     26  O   UNL     1       3.577   2.193  21.611  0.00  0.00    +0.000 OA
BRANCH  25  27
ATOM     27  O   UNL     1       5.247   1.890  20.170  0.00  0.00    +0.000 OA
ATOM     28  H   UNL     1       5.380   1.563  19.259  0.00  0.00    +0.000 HD
ENDBRANCH  25  27
ENDBRANCH  24  25
ENDBRANCH   7  24
TORSDOF 5
ENDMDL
MODEL 4
REMARK VINA RESULT:      -8.1      0.838      1.042
REMARK  Name = 
REMARK  7 active torsions:
REMARK  status: ('A' for Active; 'I' for Inactive)
REMARK    1  A    between atoms: C_1  and  O_2
REMARK    2  A    between atoms: O_2  and  C_3
REMARK    3  A    between atoms: C_9  and  C_10
REMARK    4  A    between atoms: C_10  and  C_11
REMARK    5  A    between atoms: C_11  and  O_13
REMARK    6  A    between atoms: C_14  and  C_15
REMARK    7  A    between atoms: N_16  and  C_17
REMARK                            x       y       z     vdW  Elec       q    Type
REMARK                         _______ _______ _______ _____ _____    ______ ____
ROOT
ATOM      1  C   UNL     1       1.272   8.872  19.234  0.00  0.00    +0.000 A 
ATOM      2  C   UNL     1       2.119   9.140  18.147  0.00  0.00    +0.000 A 
ATOM      3  C   UNL     1       3.078   8.203  17.712  0.00  0.00    +0.000 A 
ATOM      4  C   UNL     1       3.232   6.981  18.392  0.00  0.00    +0.000 A 
ATOM      5  C   UNL     1       2.372   6.717  19.486  0.00  0.00    +0.000 A 
ATOM      6  C   UNL     1       1.389   7.652  19.880  0.00  0.00    +0.000 A 
ATOM      7  C   UNL     1       2.680   5.460  20.049  0.00  0.00    +0.000 A 
ATOM      8  C   UNL     1       3.718   4.943  19.280  0.00  0.00    +0.000 A 
ATOM      9  C   UNL     1       4.303   3.573  19.542  0.00  0.00    +0.000 C 
ATOM     10  N   UNL     1       4.110   5.881  18.221  0.00  0.00    +0.000 N 
ENDROOT
BRANCH  10  11
ATOM     11  C   UNL     1       5.259   5.645  17.260  0.00  0.00    +0.000 A 
ATOM     12  C   UNL     1       6.297   6.510  17.583  0.00  0.00    +0.000 A 
ATOM     13  C   UNL     1       7.535   6.125  17.220  0.00  0.00    +0.000 A 
ATOM     14  N   UNL     1       7.678   6.065  15.915  0.00  0.00    +0.000 NA
ATOM     15  C   UNL     1       6.720   5.384  15.314  0.00  0.00    +0.000 A 
ATOM     16  C   UNL     1       7.084   5.158  14.003  0.00  0.00    +0.000 A 
ATOM     17  C   UNL     1       6.517   4.143  13.292  0.00  0.00    +0.000 A 
ATOM     18 CL   UNL     1       7.108   3.803  11.709  0.00  0.00    +0.000 Cl
ATOM     19  C   UNL     1       5.552   3.358  13.913  0.00  0.00    +0.000 A 
ATOM     20  C   UNL     1       5.032   3.738  15.204  0.00  0.00    +0.000 A 
ATOM     21  C   UNL     1       5.538   4.876  15.980  0.00  0.00    +0.000 A 
ENDBRANCH  10  11
BRANCH   1  23
ATOM     22  C   UNL     1      -0.621  10.252  18.873  0.00  0.00    +0.000 C 
ATOM     23  O   UNL     1       0.317   9.691  19.774  0.00  0.00    +0.000 OA
ENDBRANCH   1  23
BRANCH   7  24
ATOM     24  C   UNL     1       1.916   4.794  21.200  0.00  0.00    +0.000 C 
BRANCH  24  25
ATOM     25  C   UNL     1       1.449   3.360  21.059  0.00  0.00    +0.000 C 
ATOM     26  O   UNL     1       0.789   2.985  20.091  0.00  0.00    +0.000 OA
BRANCH  25  27
ATOM     27  O   UNL     1       1.790   2.486  22.016  0.00  0.00    +0.000 OA
ATOM     28  H   UNL     1       1.929   2.886  22.897  0.00  0.00    +0.000 HD
ENDBRANCH  25  27
ENDBRANCH  24  25
ENDBRANCH   7  24
TORSDOF 5
ENDMDL
MODEL 5
REMARK VINA RESULT:      -7.9      3.746      6.948
REMARK  Name = 
REMARK  7 active torsions:
REMARK  status: ('A' for Active; 'I' for Inactive)
REMARK    1  A    between atoms: C_1  and  O_2
REMARK    2  A    between atoms: O_2  and  C_3
REMARK    3  A    between atoms: C_9  and  C_10
REMARK    4  A    between atoms: C_10  and  C_11
REMARK    5  A    between atoms: C_11  and  O_13
REMARK    6  A    between atoms: C_14  and  C_15
REMARK    7  A    between atoms: N_16  and  C_17
REMARK                            x       y       z     vdW  Elec       q    Type
REMARK                         _______ _______ _______ _____ _____    ______ ____
ROOT
ATOM      1  C   UNL     1       5.608   5.134  16.235  0.00  0.00    +0.000 A 
ATOM      2  C   UNL     1       5.438   6.512  16.447  0.00  0.00    +0.000 A 
ATOM      3  C   UNL     1       4.503   7.004  17.380  0.00  0.00    +0.000 A 
ATOM      4  C   UNL     1       3.684   6.112  18.097  0.00  0.00    +0.000 A 
ATOM      5  C   UNL     1       3.863   4.724  17.878  0.00  0.00    +0.000 A 
ATOM      6  C   UNL     1       4.835   4.251  16.969  0.00  0.00    +0.000 A 
ATOM      7  C   UNL     1       2.951   3.990  18.668  0.00  0.00    +0.000 A 
ATOM      8  C   UNL     1       2.228   4.934  19.390  0.00  0.00    +0.000 A 
ATOM      9  C   UNL     1       1.173   4.536  20.396  0.00  0.00    +0.000 C 
ATOM     10  N   UNL     1       2.652   6.299  19.050  0.00  0.00    +0.000 N 
ENDROOT
BRANCH  10  11
ATOM     11  C   UNL     1       2.008   7.552  19.611  0.00  0.00    +0.000 A 
ATOM     12  C   UNL     1       1.545   7.282  20.892  0.00  0.00    +0.000 A 
ATOM     13  C   UNL     1       1.425   8.335  21.723  0.00  0.00    +0.000 A 
ATOM     14  N   UNL     1       0.512   9.190  21.319  0.00  0.00    +0.000 NA
ATOM     15  C   UNL     1       0.640   9.533  20.051  0.00  0.00    +0.000 A 
ATOM     16  C   UNL     1      -0.186  10.607  19.790  0.00  0.00    +0.000 A 
ATOM     17  C   UNL     1       0.054  11.423  18.725  0.00  0.00    +0.000 A 
ATOM     18 CL   UNL     1      -0.911  12.836  18.524  0.00  0.00    +0.000 Cl
ATOM     19  C   UNL     1       1.136  11.134  17.901  0.00  0.00    +0.000 A 
ATOM     20  C   UNL     1       1.857   9.895  18.061  0.00  0.00    +0.000 A 
ATOM     21  C   UNL     1       1.586   8.931  19.133  0.00  0.00    +0.000 A 
ENDBRANCH  10  11
BRANCH   1  23
ATOM     22  C   UNL     1       5.898   4.102  14.121  0.00  0.00    +0.000 C 
ATOM     23  O   UNL     1       6.457   4.521  15.353  0.00  0.00    +0.000 OA
ENDBRANCH   1  23
BRANCH   7  24
ATOM     24  C   UNL     1       2.892   2.461  18.762  0.00  0.00    +0.000 C 
BRANCH  24  25
ATOM     25  C   UNL     1       4.107   1.692  19.239  0.00  0.00    +0.000 C 
ATOM     26  O   UNL     1       4.779   2.071  20.196  0.00  0.00    +0.000 OA
BRANCH  25  27
ATOM     27  O   UNL     1       4.430   0.559  18.600  0.00  0.00    +0.000 OA
ATOM     28  H   UNL     1       3.985   0.441  17.737  0.00  0.00    +0.000 HD
ENDBRANCH  25  27
ENDBRANCH  24  25
ENDBRANCH   7  24
TORSDOF 5
ENDMDL
MODEL 6
REMARK VINA RESULT:      -7.7      3.817      6.210
REMARK  Name = 
REMARK  7 active torsions:
REMARK  status: ('A' for Active; 'I' for Inactive)
REMARK    1  A    between atoms: C_1  and  O_2
REMARK    2  A    between atoms: O_2  and  C_3
REMARK    3  A    between atoms: C_9  and  C_10
REMARK    4  A    between atoms: C_10  and  C_11
REMARK    5  A    between atoms: C_11  and  O_13
REMARK    6  A    between atoms: C_14  and  C_15
REMARK    7  A    between atoms: N_16  and  C_17
REMARK                            x       y       z     vdW  Elec       q    Type
REMARK                         _______ _______ _______ _____ _____    ______ ____
ROOT
ATOM      1  C   UNL     1      -0.773  10.730  22.902  0.00  0.00    +0.000 A 
ATOM      2  C   UNL     1      -0.136   9.542  23.295  0.00  0.00    +0.000 A 
ATOM      3  C   UNL     1       0.613   8.771  22.384  0.00  0.00    +0.000 A 
ATOM      4  C   UNL     1       0.704   9.162  21.035  0.00  0.00    +0.000 A 
ATOM      5  C   UNL     1       0.060  10.362  20.646  0.00  0.00    +0.000 A 
ATOM      6  C   UNL     1      -0.651  11.142  21.585  0.00  0.00    +0.000 A 
ATOM      7  C   UNL     1       0.247  10.584  19.265  0.00  0.00    +0.000 A 
ATOM      8  C   UNL     1       1.029   9.526  18.812  0.00  0.00    +0.000 A 
ATOM      9  C   UNL     1       1.490   9.429  17.375  0.00  0.00    +0.000 C 
ATOM     10  N   UNL     1       1.335   8.590  19.902  0.00  0.00    +0.000 N 
ENDROOT
BRANCH  10  11
ATOM     11  C   UNL     1       2.107   7.298  19.719  0.00  0.00    +0.000 A 
ATOM     12  C   UNL     1       1.729   6.407  20.715  0.00  0.00    +0.000 A 
ATOM     13  C   UNL     1       1.885   5.097  20.442  0.00  0.00    +0.000 A 
ATOM     14  N   UNL     1       3.148   4.763  20.295  0.00  0.00    +0.000 NA
ATOM     15  C   UNL     1       3.806   5.554  19.469  0.00  0.00    +0.000 A 
ATOM     16  C   UNL     1       5.030   4.986  19.182  0.00  0.00    +0.000 A 
ATOM     17  C   UNL     1       5.713   5.343  18.058  0.00  0.00    +0.000 A 
ATOM     18 CL   UNL     1       7.164   4.501  17.662  0.00  0.00    +0.000 Cl
ATOM     19  C   UNL     1       5.157   6.305  17.223  0.00  0.00    +0.000 A 
ATOM     20  C   UNL     1       3.988   7.039  17.644  0.00  0.00    +0.000 A 
ATOM     21  C   UNL     1       3.260   6.764  18.887  0.00  0.00    +0.000 A 
ENDBRANCH  10  11
BRANCH   1  23
ATOM     22  C   UNL     1      -2.439  12.414  22.979  0.00  0.00    +0.000 C 
ATOM     23  O   UNL     1      -1.544  11.561  23.669  0.00  0.00    +0.000 OA
ENDBRANCH   1  23
BRANCH   7  24
ATOM     24  C   UNL     1      -0.236  11.817  18.493  0.00  0.00    +0.000 C 
BRANCH  24  25
ATOM     25  C   UNL     1      -1.666  11.879  17.997  0.00  0.00    +0.000 C 
ATOM     26  O   UNL     1      -2.615  11.992  18.769  0.00  0.00    +0.000 OA
BRANCH  25  27
ATOM     27  O   UNL     1      -1.879  11.827  16.675  0.00  0.00    +0.000 OA
ATOM     28  H   UNL     1      -1.685  10.959  16.268  0.00  0.00    +0.000 HD
ENDBRANCH  25  27
ENDBRANCH  24  25
ENDBRANCH   7  24
TORSDOF 5
ENDMDL
MODEL 7
REMARK VINA RESULT:      -7.2      4.245      8.180
REMARK  Name = 
REMARK  7 active torsions:
REMARK  status: ('A' for Active; 'I' for Inactive)
REMARK    1  A    between atoms: C_1  and  O_2
REMARK    2  A    between atoms: O_2  and  C_3
REMARK    3  A    between atoms: C_9  and  C_10
REMARK    4  A    between atoms: C_10  and  C_11
REMARK    5  A    between atoms: C_11  and  O_13
REMARK    6  A    between atoms: C_14  and  C_15
REMARK    7  A    between atoms: N_16  and  C_17
REMARK                            x       y       z     vdW  Elec       q    Type
REMARK                         _______ _______ _______ _____ _____    ______ ____
ROOT
ATOM      1  C   UNL     1       2.977   3.319  19.874  0.00  0.00    +0.000 A 
ATOM      2  C   UNL     1       2.126   3.881  20.840  0.00  0.00    +0.000 A 
ATOM      3  C   UNL     1       1.756   5.240  20.794  0.00  0.00    +0.000 A 
ATOM      4  C   UNL     1       2.271   6.080  19.790  0.00  0.00    +0.000 A 
ATOM      5  C   UNL     1       3.127   5.505  18.819  0.00  0.00    +0.000 A 
ATOM      6  C   UNL     1       3.453   4.131  18.858  0.00  0.00    +0.000 A 
ATOM      7  C   UNL     1       3.554   6.494  17.906  0.00  0.00    +0.000 A 
ATOM      8  C   UNL     1       2.936   7.674  18.308  0.00  0.00    +0.000 A 
ATOM      9  C   UNL     1       3.108   8.968  17.545  0.00  0.00    +0.000 C 
ATOM     10  N   UNL     1       2.119   7.460  19.510  0.00  0.00    +0.000 N 
ENDROOT
BRANCH  10  11
ATOM     11  C   UNL     1       1.377   8.564  20.238  0.00  0.00    +0.000 A 
ATOM     12  C   UNL     1       1.367   8.274  21.597  0.00  0.00    +0.000 A 
ATOM     13  C   UNL     1       1.235   9.321  22.434  0.00  0.00    +0.000 A 
ATOM     14  N   UNL     1       0.069   9.916  22.312  0.00  0.00    +0.000 NA
ATOM     15  C   UNL     1      -0.247  10.200  21.063  0.00  0.00    +0.000 A 
ATOM     16  C   UNL     1      -1.344  11.036  21.055  0.00  0.00    +0.000 A 
ATOM     17  C   UNL     1      -1.611  11.817  19.971  0.00  0.00    +0.000 A 
ATOM     18 CL   UNL     1      -2.903  12.955  20.062  0.00  0.00    +0.000 Cl
ATOM     19  C   UNL     1      -0.766  11.735  18.871  0.00  0.00    +0.000 A 
ATOM     20  C   UNL     1       0.246  10.708  18.811  0.00  0.00    +0.000 A 
ATOM     21  C   UNL     1       0.522   9.776  19.909  0.00  0.00    +0.000 A 
ENDBRANCH  10  11
BRANCH   1  23
ATOM     22  C   UNL     1       3.566   1.470  18.513  0.00  0.00    +0.000 C 
ATOM     23  O   UNL     1       3.432   2.029  19.807  0.00  0.00    +0.000 OA
ENDBRANCH   1  23
BRANCH   7  24
ATOM     24  C   UNL     1       4.427   6.242  16.671  0.00  0.00    +0.000 C 
BRANCH  24  25
ATOM     25  C   UNL     1       5.936   6.240  16.807  0.00  0.00    +0.000 C 
ATOM     26  O   UNL     1       6.595   7.274  16.723  0.00  0.00    +0.000 OA
BRANCH  25  27
ATOM     27  O   UNL     1       6.548   5.072  17.044  0.00  0.00    +0.000 OA
ATOM     28  H   UNL     1       7.227   5.106  17.746  0.00  0.00    +0.000 HD
ENDBRANCH  25  27
ENDBRANCH  24  25
ENDBRANCH   7  24
TORSDOF 5
ENDMDL
MODEL 8
REMARK VINA RESULT:      -7.2      4.093      7.863
REMARK  Name = 
REMARK  7 active torsions:
REMARK  status: ('A' for Active; 'I' for Inactive)
REMARK    1  A    between atoms: C_1  and  O_2
REMARK    2  A    between atoms: O_2  and  C_3
REMARK    3  A    between atoms: C_9  and  C_10
REMARK    4  A    between atoms: C_10  and  C_11
REMARK    5  A    between atoms: C_11  and  O_13
REMARK    6  A    between atoms: C_14  and  C_15
REMARK    7  A    between atoms: N_16  and  C_17
REMARK                            x       y       z     vdW  Elec       q    Type
REMARK                         _______ _______ _______ _____ _____    ______ ____
ROOT
ATOM      1  C   UNL     1       3.401   2.958  20.929  0.00  0.00    +0.000 A 
ATOM      2  C   UNL     1       2.348   3.747  21.420  0.00  0.00    +0.000 A 
ATOM      3  C   UNL     1       2.038   4.998  20.850  0.00  0.00    +0.000 A 
ATOM      4  C   UNL     1       2.813   5.505  19.790  0.00  0.00    +0.000 A 
ATOM      5  C   UNL     1       3.872   4.702  19.300  0.00  0.00    +0.000 A 
ATOM      6  C   UNL     1       4.140   3.431  19.857  0.00  0.00    +0.000 A 
ATOM      7  C   UNL     1       4.542   5.373  18.255  0.00  0.00    +0.000 A 
ATOM      8  C   UNL     1       3.874   6.582  18.090  0.00  0.00    +0.000 A 
ATOM      9  C   UNL     1       4.268   7.575  17.020  0.00  0.00    +0.000 C 
ATOM     10  N   UNL     1       2.774   6.714  19.054  0.00  0.00    +0.000 N 
ENDROOT
BRANCH  10  11
ATOM     11  C   UNL     1       1.901   7.947  19.181  0.00  0.00    +0.000 A 
ATOM     12  C   UNL     1       2.037   8.713  18.030  0.00  0.00    +0.000 A 
ATOM     13  C   UNL     1       1.009   9.528  17.724  0.00  0.00    +0.000 A 
ATOM     14  N   UNL     1       0.839  10.477  18.618  0.00  0.00    +0.000 NA
ATOM     15  C   UNL     1       0.802  10.027  19.859  0.00  0.00    +0.000 A 
ATOM     16  C   UNL     1       0.370  11.039  20.690  0.00  0.00    +0.000 A 
ATOM     17  C   UNL     1      -0.168  10.752  21.909  0.00  0.00    +0.000 A 
ATOM     18 CL   UNL     1      -0.830  12.034  22.851  0.00  0.00    +0.000 Cl
ATOM     19  C   UNL     1      -0.252   9.420  22.298  0.00  0.00    +0.000 A 
ATOM     20  C   UNL     1       0.394   8.395  21.515  0.00  0.00    +0.000 A 
ATOM     21  C   UNL     1       1.070   8.654  20.239  0.00  0.00    +0.000 A 
ENDBRANCH  10  11
BRANCH   1  23
ATOM     22  C   UNL     1       5.092   1.297  20.948  0.00  0.00    +0.000 C 
ATOM     23  O   UNL     1       3.824   1.742  21.394  0.00  0.00    +0.000 OA
ENDBRANCH   1  23
BRANCH   7  24
ATOM     24  C   UNL     1       5.692   4.793  17.423  0.00  0.00    +0.000 C 
BRANCH  24  25
ATOM     25  C   UNL     1       7.125   5.082  17.821  0.00  0.00    +0.000 C 
ATOM     26  O   UNL     1       7.506   6.219  18.089  0.00  0.00    +0.000 OA
BRANCH  25  27
ATOM     27  O   UNL     1       7.981   4.053  17.895  0.00  0.00    +0.000 OA
ATOM     28  H   UNL     1       8.444   3.974  18.753  0.00  0.00    +0.000 HD
ENDBRANCH  25  27
ENDBRANCH  24  25
ENDBRANCH   7  24
TORSDOF 5
ENDMDL
MODEL 9
REMARK VINA RESULT:      -7.1      3.835      6.423
REMARK  Name = 
REMARK  7 active torsions:
REMARK  status: ('A' for Active; 'I' for Inactive)
REMARK    1  A    between atoms: C_1  and  O_2
REMARK    2  A    between atoms: O_2  and  C_3
REMARK    3  A    between atoms: C_9  and  C_10
REMARK    4  A    between atoms: C_10  and  C_11
REMARK    5  A    between atoms: C_11  and  O_13
REMARK    6  A    between atoms: C_14  and  C_15
REMARK    7  A    between atoms: N_16  and  C_17
REMARK                            x       y       z     vdW  Elec       q    Type
REMARK                         _______ _______ _______ _____ _____    ______ ____
ROOT
ATOM      1  C   UNL     1      -0.971  10.701  22.851  0.00  0.00    +0.000 A 
ATOM      2  C   UNL     1      -0.411   9.470  23.225  0.00  0.00    +0.000 A 
ATOM      3  C   UNL     1       0.395   8.727  22.339  0.00  0.00    +0.000 A 
ATOM      4  C   UNL     1       0.624   9.194  21.031  0.00  0.00    +0.000 A 
ATOM      5  C   UNL     1       0.056  10.438  20.661  0.00  0.00    +0.000 A 
ATOM      6  C   UNL     1      -0.714  11.187  21.579  0.00  0.00    +0.000 A 
ATOM      7  C   UNL     1       0.378  10.735  19.320  0.00  0.00    +0.000 A 
ATOM      8  C   UNL     1       1.165   9.679  18.875  0.00  0.00    +0.000 A 
ATOM      9  C   UNL     1       1.755   9.650  17.482  0.00  0.00    +0.000 C 
ATOM     10  N   UNL     1       1.339   8.668  19.927  0.00  0.00    +0.000 N 
ENDROOT
BRANCH  10  11
ATOM     11  C   UNL     1       2.084   7.362  19.734  0.00  0.00    +0.000 A 
ATOM     12  C   UNL     1       1.668   6.462  20.707  0.00  0.00    +0.000 A 
ATOM     13  C   UNL     1       1.798   5.154  20.412  0.00  0.00    +0.000 A 
ATOM     14  N   UNL     1       3.056   4.794  20.282  0.00  0.00    +0.000 NA
ATOM     15  C   UNL     1       3.747   5.584  19.482  0.00  0.00    +0.000 A 
ATOM     16  C   UNL     1       4.962   4.992  19.206  0.00  0.00    +0.000 A 
ATOM     17  C   UNL     1       5.673   5.353  18.102  0.00  0.00    +0.000 A 
ATOM     18 CL   UNL     1       7.111   4.484  17.715  0.00  0.00    +0.000 Cl
ATOM     19  C   UNL     1       5.155   6.343  17.274  0.00  0.00    +0.000 A 
ATOM     20  C   UNL     1       3.996   7.097  17.688  0.00  0.00    +0.000 A 
ATOM     21  C   UNL     1       3.240   6.816  18.912  0.00  0.00    +0.000 A 
ENDBRANCH  10  11
BRANCH   1  23
ATOM     22  C   UNL     1      -1.971  12.834  23.120  0.00  0.00    +0.000 C 
ATOM     23  O   UNL     1      -1.784  11.513  23.596  0.00  0.00    +0.000 OA
ENDBRANCH   1  23
BRANCH   7  24
ATOM     24  C   UNL     1       0.008  12.030  18.586  0.00  0.00    +0.000 C 
BRANCH  24  25
ATOM     25  C   UNL     1       0.899  13.248  18.720  0.00  0.00    +0.000 C 
ATOM     26  O   UNL     1       0.504  14.285  19.249  0.00  0.00    +0.000 OA
BRANCH  25  27
ATOM     27  O   UNL     1       2.154  13.167  18.258  0.00  0.00    +0.000 OA
ATOM     28  H   UNL     1       2.278  12.520  17.536  0.00  0.00    +0.000 HD
ENDBRANCH  25  27
ENDBRANCH  24  25
ENDBRANCH   7  24
TORSDOF 5
ENDMDL
