MODEL 1
REMARK VINA RESULT:      -9.8      0.000      0.000
REMARK  Name = 
REMARK  4 active torsions:
REMARK  status: ('A' for Active; 'I' for Inactive)
REMARK    1  A    between atoms: C_2  and  C_13
REMARK    2  A    between atoms: N_3  and  C_4
REMARK    3  A    between atoms: N_22  and  C_23
REMARK    4  A    between atoms: C_23  and  C_24
REMARK                            x       y       z     vdW  Elec       q    Type
REMARK                         _______ _______ _______ _____ _____    ______ ____
ROOT
ATOM      1  C   UNL     1       3.279   6.989  17.916  0.00  0.00    +0.000 A 
ATOM      2  C   UNL     1       4.512   7.384  17.419  0.00  0.00    +0.000 A 
ATOM      3  C   UNL     1       5.149   6.262  16.832  0.00  0.00    +0.000 A 
ATOM      4  C   UNL     1       6.410   6.070  16.236  0.00  0.00    +0.000 A 
ATOM      5  C   UNL     1       6.733   4.810  15.737  0.00  0.00    +0.000 A 
ATOM      6  F   UNL     1       7.946   4.610  15.203  0.00  0.00    +0.000 F 
ATOM      7  C   UNL     1       5.828   3.760  15.778  0.00  0.00    +0.000 A 
ATOM      8  C   UNL     1       4.568   3.934  16.358  0.00  0.00    +0.000 A 
ATOM      9  C   UNL     1       4.259   5.189  16.916  0.00  0.00    +0.000 A 
ATOM     10  N   UNL     1       3.154   5.634  17.634  0.00  0.00    +0.000 N 
ENDROOT
BRANCH   1  12
ATOM     11  O   UNL     1       2.038   7.529  19.825  0.00  0.00    +0.000 OA
ATOM     12  C   UNL     1       2.306   7.775  18.658  0.00  0.00    +0.000 C 
ATOM     13  N   UNL     1       1.676   8.760  17.917  0.00  0.00    +0.000 N 
ATOM     14  H   UNL     1       1.791   8.716  16.914  0.00  0.00    +0.000 HD
BRANCH  13  15
ATOM     15  C   UNL     1       0.746   9.701  18.414  0.00  0.00    +0.000 A 
ATOM     16  C   UNL     1       1.059  10.618  19.420  0.00  0.00    +0.000 A 
ATOM     17  C   UNL     1       0.117  11.531  19.907  0.00  0.00    +0.000 A 
ATOM     18  C   UNL     1      -1.160  11.496  19.348  0.00  0.00    +0.000 A 
ATOM     19  N   UNL     1      -2.272  12.252  19.637  0.00  0.00    +0.000 N 
ATOM     20  C   UNL     1      -3.321  11.868  18.844  0.00  0.00    +0.000 A 
ATOM     21  C   UNL     1      -2.879  10.854  18.023  0.00  0.00    +0.000 A 
ATOM     22  C   UNL     1      -1.511  10.611  18.330  0.00  0.00    +0.000 A 
ATOM     23  C   UNL     1      -0.537   9.711  17.845  0.00  0.00    +0.000 A 
ATOM     24  H   UNL     1      -2.304  12.977  20.340  0.00  0.00    +0.000 HD
ENDBRANCH  13  15
ENDBRANCH   1  12
BRANCH  10  25
ATOM     25  C   UNL     1       1.970   4.817  17.924  0.00  0.00    +0.000 C 
BRANCH  25  26
ATOM     26  C   UNL     1       2.081   3.972  19.175  0.00  0.00    +0.000 A 
ATOM     27  C   UNL     1       1.047   3.913  20.122  0.00  0.00    +0.000 A 
ATOM     28  C   UNL     1       1.213   3.224  21.329  0.00  0.00    +0.000 A 
ATOM     29  C   UNL     1       2.414   2.575  21.604  0.00  0.00    +0.000 A 
ATOM     30  C   UNL     1       3.432   2.603  20.661  0.00  0.00    +0.000 A 
ATOM     31  F   UNL     1       4.586   1.976  20.920  0.00  0.00    +0.000 F 
ATOM     32  C   UNL     1       3.279   3.293  19.461  0.00  0.00    +0.000 A 
ENDBRANCH  25  26
ENDBRANCH  10  25
TORSDOF 4
ENDMDL
MODEL 2
REMARK VINA RESULT:      -9.5      1.178      1.706
REMARK  Name = 
REMARK  4 active torsions:
REMARK  status: ('A' for Active; 'I' for Inactive)
REMARK    1  A    between atoms: C_2  and  C_13
REMARK    2  A    between atoms: N_3  and  C_4
REMARK    3  A    between atoms: N_22  and  C_23
REMARK    4  A    between atoms: C_23  and  C_24
REMARK                            x       y       z     vdW  Elec       q    Type
REMARK                         _______ _______ _______ _____ _____    ______ ____
ROOT
ATOM      1  C   UNL     1       3.339   6.741  18.181  0.00  0.00    +0.000 A 
ATOM      2  C   UNL     1       4.538   7.221  17.677  0.00  0.00    +0.000 A 
ATOM      3  C   UNL     1       5.141   6.210  16.889  0.00  0.00    +0.000 A 
ATOM      4  C   UNL     1       6.364   6.125  16.196  0.00  0.00    +0.000 A 
ATOM      5  C   UNL     1       6.659   4.960  15.492  0.00  0.00    +0.000 A 
ATOM      6  F   UNL     1       7.838   4.858  14.863  0.00  0.00    +0.000 F 
ATOM      7  C   UNL     1       5.762   3.905  15.427  0.00  0.00    +0.000 A 
ATOM      8  C   UNL     1       4.539   3.973  16.101  0.00  0.00    +0.000 A 
ATOM      9  C   UNL     1       4.261   5.126  16.862  0.00  0.00    +0.000 A 
ATOM     10  N   UNL     1       3.200   5.442  17.703  0.00  0.00    +0.000 N 
ENDROOT
BRANCH   1  12
ATOM     11  O   UNL     1       2.131   6.909  20.178  0.00  0.00    +0.000 OA
ATOM     12  C   UNL     1       2.410   7.393  19.091  0.00  0.00    +0.000 C 
ATOM     13  N   UNL     1       1.834   8.549  18.594  0.00  0.00    +0.000 N 
ATOM     14  H   UNL     1       1.945   8.722  17.604  0.00  0.00    +0.000 HD
BRANCH  13  15
ATOM     15  C   UNL     1       0.956   9.404  19.299  0.00  0.00    +0.000 A 
ATOM     16  C   UNL     1       0.217  10.413  18.675  0.00  0.00    +0.000 A 
ATOM     17  C   UNL     1      -0.634  11.258  19.396  0.00  0.00    +0.000 A 
ATOM     18  C   UNL     1      -0.722  11.058  20.773  0.00  0.00    +0.000 A 
ATOM     19  N   UNL     1      -1.454  11.738  21.719  0.00  0.00    +0.000 N 
ATOM     20  C   UNL     1      -1.229  11.204  22.961  0.00  0.00    +0.000 A 
ATOM     21  C   UNL     1      -0.344  10.158  22.815  0.00  0.00    +0.000 A 
ATOM     22  C   UNL     1      -0.018  10.054  21.434  0.00  0.00    +0.000 A 
ATOM     23  C   UNL     1       0.822   9.203  20.681  0.00  0.00    +0.000 A 
ATOM     24  H   UNL     1      -2.061  12.520  21.519  0.00  0.00    +0.000 HD
ENDBRANCH  13  15
ENDBRANCH   1  12
BRANCH  10  25
ATOM     25  C   UNL     1       2.039   4.577  17.936  0.00  0.00    +0.000 C 
BRANCH  25  26
ATOM     26  C   UNL     1       2.118   3.744  19.198  0.00  0.00    +0.000 A 
ATOM     27  C   UNL     1       1.032   3.631  20.079  0.00  0.00    +0.000 A 
ATOM     28  C   UNL     1       1.161   2.958  21.300  0.00  0.00    +0.000 A 
ATOM     29  C   UNL     1       2.377   2.379  21.654  0.00  0.00    +0.000 A 
ATOM     30  C   UNL     1       3.448   2.461  20.776  0.00  0.00    +0.000 A 
ATOM     31  F   UNL     1       4.618   1.900  21.111  0.00  0.00    +0.000 F 
ATOM     32  C   UNL     1       3.332   3.136  19.564  0.00  0.00    +0.000 A 
ENDBRANCH  25  26
ENDBRANCH  10  25
TORSDOF 4
ENDMDL
MODEL 3
REMARK VINA RESULT:      -9.4      0.940      1.003
REMARK  Name = 
REMARK  4 active torsions:
REMARK  status: ('A' for Active; 'I' for Inactive)
REMARK    1  A    between atoms: C_2  and  C_13
REMARK    2  A    between atoms: N_3  and  C_4
REMARK    3  A    between atoms: N_22  and  C_23
REMARK    4  A    between atoms: C_23  and  C_24
REMARK                            x       y       z     vdW  Elec       q    Type
REMARK                         _______ _______ _______ _____ _____    ______ ____
ROOT
ATOM      1  C   UNL     1       3.192   7.220  17.953  0.00  0.00    +0.000 A 
ATOM      2  C   UNL     1       4.496   7.525  17.592  0.00  0.00    +0.000 A 
ATOM      3  C   UNL     1       5.110   6.361  17.069  0.00  0.00    +0.000 A 
ATOM      4  C   UNL     1       6.411   6.078  16.610  0.00  0.00    +0.000 A 
ATOM      5  C   UNL     1       6.695   4.798  16.139  0.00  0.00    +0.000 A 
ATOM      6  F   UNL     1       7.941   4.512  15.737  0.00  0.00    +0.000 F 
ATOM      7  C   UNL     1       5.719   3.816  16.078  0.00  0.00    +0.000 A 
ATOM      8  C   UNL     1       4.419   4.079  16.521  0.00  0.00    +0.000 A 
ATOM      9  C   UNL     1       4.143   5.354  17.051  0.00  0.00    +0.000 A 
ATOM     10  N   UNL     1       3.002   5.876  17.650  0.00  0.00    +0.000 N 
ENDROOT
BRANCH   1  12
ATOM     11  O   UNL     1       1.960   7.991  19.786  0.00  0.00    +0.000 OA
ATOM     12  C   UNL     1       2.203   8.074  18.591  0.00  0.00    +0.000 C 
ATOM     13  N   UNL     1       1.531   8.922  17.729  0.00  0.00    +0.000 N 
ATOM     14  H   UNL     1       1.634   8.737  16.740  0.00  0.00    +0.000 HD
BRANCH  13  15
ATOM     15  C   UNL     1       0.577   9.896  18.102  0.00  0.00    +0.000 A 
ATOM     16  C   UNL     1       0.913  11.060  18.798  0.00  0.00    +0.000 A 
ATOM     17  C   UNL     1      -0.051  12.003  19.170  0.00  0.00    +0.000 A 
ATOM     18  C   UNL     1      -1.375  11.741  18.820  0.00  0.00    +0.000 A 
ATOM     19  N   UNL     1      -2.514  12.470  19.065  0.00  0.00    +0.000 N 
ATOM     20  C   UNL     1      -3.606  11.827  18.544  0.00  0.00    +0.000 A 
ATOM     21  C   UNL     1      -3.165  10.668  17.946  0.00  0.00    +0.000 A 
ATOM     22  C   UNL     1      -1.753  10.602  18.110  0.00  0.00    +0.000 A 
ATOM     23  C   UNL     1      -0.758   9.674  17.732  0.00  0.00    +0.000 A 
ATOM     24  H   UNL     1      -2.535  13.348  19.565  0.00  0.00    +0.000 HD
ENDBRANCH  13  15
ENDBRANCH   1  12
BRANCH  10  25
ATOM     25  C   UNL     1       1.739   5.147  17.807  0.00  0.00    +0.000 C 
BRANCH  25  26
ATOM     26  C   UNL     1       1.719   4.165  18.959  0.00  0.00    +0.000 A 
ATOM     27  C   UNL     1       1.159   2.885  18.831  0.00  0.00    +0.000 A 
ATOM     28  C   UNL     1       1.040   2.036  19.938  0.00  0.00    +0.000 A 
ATOM     29  C   UNL     1       1.488   2.451  21.188  0.00  0.00    +0.000 A 
ATOM     30  C   UNL     1       2.070   3.704  21.320  0.00  0.00    +0.000 A 
ATOM     31  F   UNL     1       2.507   4.105  22.521  0.00  0.00    +0.000 F 
ATOM     32  C   UNL     1       2.184   4.559  20.227  0.00  0.00    +0.000 A 
ENDBRANCH  25  26
ENDBRANCH  10  25
TORSDOF 4
ENDMDL
MODEL 4
REMARK VINA RESULT:      -9.4      0.662      1.398
REMARK  Name = 
REMARK  4 active torsions:
REMARK  status: ('A' for Active; 'I' for Inactive)
REMARK    1  A    between atoms: C_2  and  C_13
REMARK    2  A    between atoms: N_3  and  C_4
REMARK    3  A    between atoms: N_22  and  C_23
REMARK    4  A    between atoms: C_23  and  C_24
REMARK                            x       y       z     vdW  Elec       q    Type
REMARK                         _______ _______ _______ _____ _____    ______ ____
ROOT
ATOM      1  C   UNL     1       3.227   7.098  17.858  0.00  0.00    +0.000 A 
ATOM      2  C   UNL     1       4.473   7.449  17.360  0.00  0.00    +0.000 A 
ATOM      3  C   UNL     1       5.109   6.285  16.859  0.00  0.00    +0.000 A 
ATOM      4  C   UNL     1       6.379   6.044  16.301  0.00  0.00    +0.000 A 
ATOM      5  C   UNL     1       6.698   4.751  15.891  0.00  0.00    +0.000 A 
ATOM      6  F   UNL     1       7.919   4.506  15.394  0.00  0.00    +0.000 F 
ATOM      7  C   UNL     1       5.783   3.714  15.983  0.00  0.00    +0.000 A 
ATOM      8  C   UNL     1       4.513   3.936  16.527  0.00  0.00    +0.000 A 
ATOM      9  C   UNL     1       4.207   5.228  16.996  0.00  0.00    +0.000 A 
ATOM     10  N   UNL     1       3.094   5.728  17.662  0.00  0.00    +0.000 N 
ENDROOT
BRANCH   1  12
ATOM     11  O   UNL     1       1.937   7.755  19.696  0.00  0.00    +0.000 OA
ATOM     12  C   UNL     1       2.248   7.939  18.528  0.00  0.00    +0.000 C 
ATOM     13  N   UNL     1       1.667   8.901  17.721  0.00  0.00    +0.000 N 
ATOM     14  H   UNL     1       1.814   8.807  16.726  0.00  0.00    +0.000 HD
BRANCH  13  15
ATOM     15  C   UNL     1       0.743   9.885  18.141  0.00  0.00    +0.000 A 
ATOM     16  C   UNL     1      -0.637   9.752  17.969  0.00  0.00    +0.000 A 
ATOM     17  C   UNL     1      -1.533  10.747  18.379  0.00  0.00    +0.000 A 
ATOM     18  C   UNL     1      -0.996  11.888  18.974  0.00  0.00    +0.000 A 
ATOM     19  N   UNL     1      -1.625  13.014  19.451  0.00  0.00    +0.000 N 
ATOM     20  C   UNL     1      -0.700  13.896  19.946  0.00  0.00    +0.000 A 
ATOM     21  C   UNL     1       0.545  13.328  19.794  0.00  0.00    +0.000 A 
ATOM     22  C   UNL     1       0.372  12.055  19.182  0.00  0.00    +0.000 A 
ATOM     23  C   UNL     1       1.253  11.029  18.774  0.00  0.00    +0.000 A 
ATOM     24  H   UNL     1      -2.624  13.164  19.428  0.00  0.00    +0.000 HD
ENDBRANCH  13  15
ENDBRANCH   1  12
BRANCH  10  25
ATOM     25  C   UNL     1       1.896   4.943  17.982  0.00  0.00    +0.000 C 
BRANCH  25  26
ATOM     26  C   UNL     1       2.033   4.059  19.204  0.00  0.00    +0.000 A 
ATOM     27  C   UNL     1       1.014   3.963  20.165  0.00  0.00    +0.000 A 
ATOM     28  C   UNL     1       1.204   3.238  21.347  0.00  0.00    +0.000 A 
ATOM     29  C   UNL     1       2.414   2.590  21.582  0.00  0.00    +0.000 A 
ATOM     30  C   UNL     1       3.416   2.655  20.626  0.00  0.00    +0.000 A 
ATOM     31  F   UNL     1       4.580   2.028  20.847  0.00  0.00    +0.000 F 
ATOM     32  C   UNL     1       3.240   3.381  19.451  0.00  0.00    +0.000 A 
ENDBRANCH  25  26
ENDBRANCH  10  25
TORSDOF 4
ENDMDL
MODEL 5
REMARK VINA RESULT:      -9.3      1.172      1.441
REMARK  Name = 
REMARK  4 active torsions:
REMARK  status: ('A' for Active; 'I' for Inactive)
REMARK    1  A    between atoms: C_2  and  C_13
REMARK    2  A    between atoms: N_3  and  C_4
REMARK    3  A    between atoms: N_22  and  C_23
REMARK    4  A    between atoms: C_23  and  C_24
REMARK                            x       y       z     vdW  Elec       q    Type
REMARK                         _______ _______ _______ _____ _____    ______ ____
ROOT
ATOM      1  C   UNL     1       3.359   7.202  17.858  0.00  0.00    +0.000 A 
ATOM      2  C   UNL     1       3.897   7.357  16.589  0.00  0.00    +0.000 A 
ATOM      3  C   UNL     1       4.913   6.387  16.402  0.00  0.00    +0.000 A 
ATOM      4  C   UNL     1       5.812   6.120  15.351  0.00  0.00    +0.000 A 
ATOM      5  C   UNL     1       6.704   5.059  15.482  0.00  0.00    +0.000 A 
ATOM      6  F   UNL     1       7.588   4.824  14.503  0.00  0.00    +0.000 F 
ATOM      7  C   UNL     1       6.699   4.242  16.602  0.00  0.00    +0.000 A 
ATOM      8  C   UNL     1       5.809   4.486  17.653  0.00  0.00    +0.000 A 
ATOM      9  C   UNL     1       4.944   5.592  17.549  0.00  0.00    +0.000 A 
ATOM     10  N   UNL     1       4.036   6.141  18.448  0.00  0.00    +0.000 N 
ENDROOT
BRANCH   1  12
ATOM     11  O   UNL     1       2.023   7.809  19.681  0.00  0.00    +0.000 OA
ATOM     12  C   UNL     1       2.342   8.005  18.517  0.00  0.00    +0.000 C 
ATOM     13  N   UNL     1       1.734   8.946  17.704  0.00  0.00    +0.000 N 
ATOM     14  H   UNL     1       1.897   8.859  16.710  0.00  0.00    +0.000 HD
BRANCH  13  15
ATOM     15  C   UNL     1       0.770   9.895  18.114  0.00  0.00    +0.000 A 
ATOM     16  C   UNL     1       1.093  11.032  18.859  0.00  0.00    +0.000 A 
ATOM     17  C   UNL     1       0.119  11.950  19.267  0.00  0.00    +0.000 A 
ATOM     18  C   UNL     1      -1.202  11.690  18.900  0.00  0.00    +0.000 A 
ATOM     19  N   UNL     1      -2.349  12.398  19.171  0.00  0.00    +0.000 N 
ATOM     20  C   UNL     1      -3.433  11.767  18.620  0.00  0.00    +0.000 A 
ATOM     21  C   UNL     1      -2.979  10.638  17.975  0.00  0.00    +0.000 A 
ATOM     22  C   UNL     1      -1.567  10.579  18.143  0.00  0.00    +0.000 A 
ATOM     23  C   UNL     1      -0.562   9.676  17.729  0.00  0.00    +0.000 A 
ATOM     24  H   UNL     1      -2.380  13.254  19.707  0.00  0.00    +0.000 HD
ENDBRANCH  13  15
ENDBRANCH   1  12
BRANCH  10  25
ATOM     25  C   UNL     1       3.743   5.586  19.774  0.00  0.00    +0.000 C 
BRANCH  25  26
ATOM     26  C   UNL     1       2.738   4.454  19.774  0.00  0.00    +0.000 A 
ATOM     27  C   UNL     1       2.138   3.998  18.590  0.00  0.00    +0.000 A 
ATOM     28  C   UNL     1       1.123   3.035  18.620  0.00  0.00    +0.000 A 
ATOM     29  C   UNL     1       0.699   2.505  19.836  0.00  0.00    +0.000 A 
ATOM     30  C   UNL     1       1.307   2.927  21.009  0.00  0.00    +0.000 A 
ATOM     31  F   UNL     1       0.905   2.416  22.181  0.00  0.00    +0.000 F 
ATOM     32  C   UNL     1       2.310   3.892  20.990  0.00  0.00    +0.000 A 
ENDBRANCH  25  26
ENDBRANCH  10  25
TORSDOF 4
ENDMDL
MODEL 6
REMARK VINA RESULT:      -9.2      0.809      1.192
REMARK  Name = 
REMARK  4 active torsions:
REMARK  status: ('A' for Active; 'I' for Inactive)
REMARK    1  A    between atoms: C_2  and  C_13
REMARK    2  A    between atoms: N_3  and  C_4
REMARK    3  A    between atoms: N_22  and  C_23
REMARK    4  A    between atoms: C_23  and  C_24
REMARK                            x       y       z     vdW  Elec       q    Type
REMARK                         _______ _______ _______ _____ _____    ______ ____
ROOT
ATOM      1  C   UNL     1       3.290   6.991  17.843  0.00  0.00    +0.000 A 
ATOM      2  C   UNL     1       4.452   7.421  17.220  0.00  0.00    +0.000 A 
ATOM      3  C   UNL     1       5.106   6.301  16.649  0.00  0.00    +0.000 A 
ATOM      4  C   UNL     1       6.325   6.142  15.962  0.00  0.00    +0.000 A 
ATOM      5  C   UNL     1       6.683   4.873  15.513  0.00  0.00    +0.000 A 
ATOM      6  F   UNL     1       7.858   4.707  14.892  0.00  0.00    +0.000 F 
ATOM      7  C   UNL     1       5.851   3.778  15.695  0.00  0.00    +0.000 A 
ATOM      8  C   UNL     1       4.633   3.918  16.368  0.00  0.00    +0.000 A 
ATOM      9  C   UNL     1       4.294   5.188  16.874  0.00  0.00    +0.000 A 
ATOM     10  N   UNL     1       3.226   5.615  17.654  0.00  0.00    +0.000 N 
ENDROOT
BRANCH   1  12
ATOM     11  O   UNL     1       2.094   7.509  19.786  0.00  0.00    +0.000 OA
ATOM     12  C   UNL     1       2.333   7.767  18.615  0.00  0.00    +0.000 C 
ATOM     13  N   UNL     1       1.684   8.758  17.900  0.00  0.00    +0.000 N 
ATOM     14  H   UNL     1       1.775   8.725  16.894  0.00  0.00    +0.000 HD
BRANCH  13  15
ATOM     15  C   UNL     1       0.765   9.693  18.429  0.00  0.00    +0.000 A 
ATOM     16  C   UNL     1       1.088  10.571  19.466  0.00  0.00    +0.000 A 
ATOM     17  C   UNL     1       0.156  11.478  19.984  0.00  0.00    +0.000 A 
ATOM     18  C   UNL     1      -1.121  11.476  19.424  0.00  0.00    +0.000 A 
ATOM     19  N   UNL     1      -2.225  12.235  19.739  0.00  0.00    +0.000 N 
ATOM     20  C   UNL     1      -3.278  11.890  18.933  0.00  0.00    +0.000 A 
ATOM     21  C   UNL     1      -2.847  10.900  18.079  0.00  0.00    +0.000 A 
ATOM     22  C   UNL     1      -1.482  10.631  18.377  0.00  0.00    +0.000 A 
ATOM     23  C   UNL     1      -0.518   9.736  17.861  0.00  0.00    +0.000 A 
ATOM     24  H   UNL     1      -2.248  12.936  20.466  0.00  0.00    +0.000 HD
ENDBRANCH  13  15
ENDBRANCH   1  12
BRANCH  10  25
ATOM     25  C   UNL     1       2.122   4.754  18.093  0.00  0.00    +0.000 C 
BRANCH  25  26
ATOM     26  C   UNL     1       2.412   3.946  19.340  0.00  0.00    +0.000 A 
ATOM     27  C   UNL     1       3.660   3.341  19.556  0.00  0.00    +0.000 A 
ATOM     28  C   UNL     1       3.874   2.499  20.653  0.00  0.00    +0.000 A 
ATOM     29  C   UNL     1       2.844   2.256  21.557  0.00  0.00    +0.000 A 
ATOM     30  C   UNL     1       1.615   2.872  21.369  0.00  0.00    +0.000 A 
ATOM     31  F   UNL     1       0.624   2.644  22.241  0.00  0.00    +0.000 F 
ATOM     32  C   UNL     1       1.391   3.704  20.276  0.00  0.00    +0.000 A 
ENDBRANCH  25  26
ENDBRANCH  10  25
TORSDOF 4
ENDMDL
MODEL 7
REMARK VINA RESULT:      -9.1      1.351      2.001
REMARK  Name = 
REMARK  4 active torsions:
REMARK  status: ('A' for Active; 'I' for Inactive)
REMARK    1  A    between atoms: C_2  and  C_13
REMARK    2  A    between atoms: N_3  and  C_4
REMARK    3  A    between atoms: N_22  and  C_23
REMARK    4  A    between atoms: C_23  and  C_24
REMARK                            x       y       z     vdW  Elec       q    Type
REMARK                         _______ _______ _______ _____ _____    ______ ____
ROOT
ATOM      1  C   UNL     1       3.354   7.241  17.860  0.00  0.00    +0.000 A 
ATOM      2  C   UNL     1       3.901   7.380  16.593  0.00  0.00    +0.000 A 
ATOM      3  C   UNL     1       4.903   6.393  16.417  0.00  0.00    +0.000 A 
ATOM      4  C   UNL     1       5.803   6.106  15.373  0.00  0.00    +0.000 A 
ATOM      5  C   UNL     1       6.678   5.032  15.516  0.00  0.00    +0.000 A 
ATOM      6  F   UNL     1       7.563   4.776  14.542  0.00  0.00    +0.000 F 
ATOM      7  C   UNL     1       6.654   4.222  16.640  0.00  0.00    +0.000 A 
ATOM      8  C   UNL     1       5.762   4.485  17.685  0.00  0.00    +0.000 A 
ATOM      9  C   UNL     1       4.915   5.605  17.570  0.00  0.00    +0.000 A 
ATOM     10  N   UNL     1       4.011   6.173  18.460  0.00  0.00    +0.000 N 
ENDROOT
BRANCH   1  12
ATOM     11  O   UNL     1       1.993   7.857  19.660  0.00  0.00    +0.000 OA
ATOM     12  C   UNL     1       2.346   8.065  18.508  0.00  0.00    +0.000 C 
ATOM     13  N   UNL     1       1.789   9.039  17.699  0.00  0.00    +0.000 N 
ATOM     14  H   UNL     1       1.974   8.964  16.707  0.00  0.00    +0.000 HD
BRANCH  13  15
ATOM     15  C   UNL     1       0.845  10.010  18.102  0.00  0.00    +0.000 A 
ATOM     16  C   UNL     1      -0.534   9.821  17.987  0.00  0.00    +0.000 A 
ATOM     17  C   UNL     1      -1.451  10.803  18.380  0.00  0.00    +0.000 A 
ATOM     18  C   UNL     1      -0.936  11.992  18.896  0.00  0.00    +0.000 A 
ATOM     19  N   UNL     1      -1.589  13.118  19.339  0.00  0.00    +0.000 N 
ATOM     20  C   UNL     1      -0.680  14.056  19.753  0.00  0.00    +0.000 A 
ATOM     21  C   UNL     1       0.579  13.525  19.585  0.00  0.00    +0.000 A 
ATOM     22  C   UNL     1       0.431  12.217  19.045  0.00  0.00    +0.000 A 
ATOM     23  C   UNL     1       1.335  11.203  18.657  0.00  0.00    +0.000 A 
ATOM     24  H   UNL     1      -2.593  13.232  19.345  0.00  0.00    +0.000 HD
ENDBRANCH  13  15
ENDBRANCH   1  12
BRANCH  10  25
ATOM     25  C   UNL     1       3.702   5.631  19.788  0.00  0.00    +0.000 C 
BRANCH  25  26
ATOM     26  C   UNL     1       2.709   4.488  19.785  0.00  0.00    +0.000 A 
ATOM     27  C   UNL     1       2.102   4.039  18.602  0.00  0.00    +0.000 A 
ATOM     28  C   UNL     1       1.098   3.065  18.632  0.00  0.00    +0.000 A 
ATOM     29  C   UNL     1       0.691   2.517  19.845  0.00  0.00    +0.000 A 
ATOM     30  C   UNL     1       1.306   2.934  21.018  0.00  0.00    +0.000 A 
ATOM     31  F   UNL     1       0.921   2.405  22.187  0.00  0.00    +0.000 F 
ATOM     32  C   UNL     1       2.299   3.909  20.999  0.00  0.00    +0.000 A 
ENDBRANCH  25  26
ENDBRANCH  10  25
TORSDOF 4
ENDMDL
MODEL 8
REMARK VINA RESULT:      -9.0      2.021      2.274
REMARK  Name = 
REMARK  4 active torsions:
REMARK  status: ('A' for Active; 'I' for Inactive)
REMARK    1  A    between atoms: C_2  and  C_13
REMARK    2  A    between atoms: N_3  and  C_4
REMARK    3  A    between atoms: N_22  and  C_23
REMARK    4  A    between atoms: C_23  and  C_24
REMARK                            x       y       z     vdW  Elec       q    Type
REMARK                         _______ _______ _______ _____ _____    ______ ____
ROOT
ATOM      1  C   UNL     1       3.084   7.305  17.881  0.00  0.00    +0.000 A 
ATOM      2  C   UNL     1       4.382   7.590  17.483  0.00  0.00    +0.000 A 
ATOM      3  C   UNL     1       4.989   6.397  17.017  0.00  0.00    +0.000 A 
ATOM      4  C   UNL     1       6.283   6.089  16.554  0.00  0.00    +0.000 A 
ATOM      5  C   UNL     1       6.561   4.785  16.153  0.00  0.00    +0.000 A 
ATOM      6  F   UNL     1       7.800   4.476  15.749  0.00  0.00    +0.000 F 
ATOM      7  C   UNL     1       5.586   3.800  16.164  0.00  0.00    +0.000 A 
ATOM      8  C   UNL     1       4.293   4.087  16.612  0.00  0.00    +0.000 A 
ATOM      9  C   UNL     1       4.023   5.391  17.072  0.00  0.00    +0.000 A 
ATOM     10  N   UNL     1       2.891   5.946  17.658  0.00  0.00    +0.000 N 
ENDROOT
BRANCH   1  12
ATOM     11  O   UNL     1       1.411   8.939  17.807  0.00  0.00    +0.000 OA
ATOM     12  C   UNL     1       2.104   8.194  18.485  0.00  0.00    +0.000 C 
ATOM     13  N   UNL     1       2.077   8.168  19.868  0.00  0.00    +0.000 N 
ATOM     14  H   UNL     1       2.851   7.706  20.327  0.00  0.00    +0.000 HD
BRANCH  13  15
ATOM     15  C   UNL     1       1.176   8.879  20.692  0.00  0.00    +0.000 A 
ATOM     16  C   UNL     1       0.330   8.252  21.610  0.00  0.00    +0.000 A 
ATOM     17  C   UNL     1      -0.565   8.976  22.405  0.00  0.00    +0.000 A 
ATOM     18  C   UNL     1      -0.586  10.362  22.249  0.00  0.00    +0.000 A 
ATOM     19  N   UNL     1      -1.362  11.310  22.874  0.00  0.00    +0.000 N 
ATOM     20  C   UNL     1      -1.053  12.558  22.402  0.00  0.00    +0.000 A 
ATOM     21  C   UNL     1      -0.056  12.417  21.463  0.00  0.00    +0.000 A 
ATOM     22  C   UNL     1       0.251  11.031  21.358  0.00  0.00    +0.000 A 
ATOM     23  C   UNL     1       1.158  10.278  20.580  0.00  0.00    +0.000 A 
ATOM     24  H   UNL     1      -2.063  11.105  23.574  0.00  0.00    +0.000 HD
ENDBRANCH  13  15
ENDBRANCH   1  12
BRANCH  10  25
ATOM     25  C   UNL     1       1.631   5.227  17.877  0.00  0.00    +0.000 C 
BRANCH  25  26
ATOM     26  C   UNL     1       1.674   4.213  19.001  0.00  0.00    +0.000 A 
ATOM     27  C   UNL     1       1.189   2.906  18.837  0.00  0.00    +0.000 A 
ATOM     28  C   UNL     1       1.124   2.020  19.918  0.00  0.00    +0.000 A 
ATOM     29  C   UNL     1       1.553   2.425  21.180  0.00  0.00    +0.000 A 
ATOM     30  C   UNL     1       2.062   3.705  21.345  0.00  0.00    +0.000 A 
ATOM     31  F   UNL     1       2.481   4.095  22.556  0.00  0.00    +0.000 F 
ATOM     32  C   UNL     1       2.122   4.596  20.278  0.00  0.00    +0.000 A 
ENDBRANCH  25  26
ENDBRANCH  10  25
TORSDOF 4
ENDMDL
MODEL 9
REMARK VINA RESULT:      -9.0      0.991      1.010
REMARK  Name = 
REMARK  4 active torsions:
REMARK  status: ('A' for Active; 'I' for Inactive)
REMARK    1  A    between atoms: C_2  and  C_13
REMARK    2  A    between atoms: N_3  and  C_4
REMARK    3  A    between atoms: N_22  and  C_23
REMARK    4  A    between atoms: C_23  and  C_24
REMARK                            x       y       z     vdW  Elec       q    Type
REMARK                         _______ _______ _______ _____ _____    ______ ____
ROOT
ATOM      1  C   UNL     1       3.070   7.380  18.034  0.00  0.00    +0.000 A 
ATOM      2  C   UNL     1       4.367   7.695  17.658  0.00  0.00    +0.000 A 
ATOM      3  C   UNL     1       4.997   6.525  17.165  0.00  0.00    +0.000 A 
ATOM      4  C   UNL     1       6.300   6.250  16.707  0.00  0.00    +0.000 A 
ATOM      5  C   UNL     1       6.602   4.962  16.272  0.00  0.00    +0.000 A 
ATOM      6  F   UNL     1       7.850   4.684  15.871  0.00  0.00    +0.000 F 
ATOM      7  C   UNL     1       5.642   3.963  16.244  0.00  0.00    +0.000 A 
ATOM      8  C   UNL     1       4.340   4.218  16.687  0.00  0.00    +0.000 A 
ATOM      9  C   UNL     1       4.046   5.504  17.181  0.00  0.00    +0.000 A 
ATOM     10  N   UNL     1       2.899   6.025  17.771  0.00  0.00    +0.000 N 
ENDROOT
BRANCH   1  12
ATOM     11  O   UNL     1       1.861   8.211  19.857  0.00  0.00    +0.000 OA
ATOM     12  C   UNL     1       2.070   8.236  18.653  0.00  0.00    +0.000 C 
ATOM     13  N   UNL     1       1.349   9.014  17.765  0.00  0.00    +0.000 N 
ATOM     14  H   UNL     1       1.432   8.779  16.785  0.00  0.00    +0.000 HD
BRANCH  13  15
ATOM     15  C   UNL     1       0.373   9.977  18.112  0.00  0.00    +0.000 A 
ATOM     16  C   UNL     1       0.679  11.150  18.806  0.00  0.00    +0.000 A 
ATOM     17  C   UNL     1      -0.306  12.082  19.152  0.00  0.00    +0.000 A 
ATOM     18  C   UNL     1      -1.619  11.798  18.777  0.00  0.00    +0.000 A 
ATOM     19  N   UNL     1      -2.773  12.513  18.994  0.00  0.00    +0.000 N 
ATOM     20  C   UNL     1      -3.845  11.850  18.456  0.00  0.00    +0.000 A 
ATOM     21  C   UNL     1      -3.375  10.693  17.875  0.00  0.00    +0.000 A 
ATOM     22  C   UNL     1      -1.966  10.649  18.068  0.00  0.00    +0.000 A 
ATOM     23  C   UNL     1      -0.951   9.733  17.717  0.00  0.00    +0.000 A 
ATOM     24  H   UNL     1      -2.817  13.394  19.486  0.00  0.00    +0.000 HD
ENDBRANCH  13  15
ENDBRANCH   1  12
BRANCH  10  25
ATOM     25  C   UNL     1       1.649   5.280  17.956  0.00  0.00    +0.000 C 
BRANCH  25  26
ATOM     26  C   UNL     1       1.659   4.316  19.124  0.00  0.00    +0.000 A 
ATOM     27  C   UNL     1       1.837   4.756  20.445  0.00  0.00    +0.000 A 
ATOM     28  C   UNL     1       1.965   3.843  21.498  0.00  0.00    +0.000 A 
ATOM     29  C   UNL     1       1.907   2.475  21.247  0.00  0.00    +0.000 A 
ATOM     30  C   UNL     1       1.703   2.031  19.948  0.00  0.00    +0.000 A 
ATOM     31  F   UNL     1       1.642   0.715  19.704  0.00  0.00    +0.000 F 
ATOM     32  C   UNL     1       1.583   2.931  18.893  0.00  0.00    +0.000 A 
ENDBRANCH  25  26
ENDBRANCH  10  25
TORSDOF 4
ENDMDL
