MODEL 1
REMARK VINA RESULT:      -7.8      0.000      0.000
REMARK  Name = 
REMARK  9 active torsions:
REMARK  status: ('A' for Active; 'I' for Inactive)
REMARK    1  A    between atoms: C_1  and  O_2
REMARK    2  A    between atoms: O_2  and  C_3
REMARK    3  A    between atoms: C_5  and  C_6
REMARK    4  A    between atoms: C_6  and  N_7
REMARK    5  A    between atoms: C_14  and  O_15
REMARK    6  A    between atoms: O_15  and  C_16
REMARK    7  A    between atoms: C_16  and  C_17
REMARK    8  A    between atoms: C_17  and  C_18
REMARK    9  A    between atoms: C_18  and  N_19
REMARK                            x       y       z     vdW  Elec       q    Type
REMARK                         _______ _______ _______ _____ _____    ______ ____
ROOT
ATOM      1  C   UNL     1       4.712   6.631  17.011  0.00  0.00    +0.000 A 
ATOM      2  C   UNL     1       4.343   5.284  16.971  0.00  0.00    +0.000 A 
ATOM      3  C   UNL     1       3.166   4.838  17.586  0.00  0.00    +0.000 A 
ATOM      4  C   UNL     1       2.368   5.775  18.262  0.00  0.00    +0.000 A 
ATOM      5  C   UNL     1       2.712   7.127  18.282  0.00  0.00    +0.000 A 
ATOM      6  C   UNL     1       3.891   7.551  17.668  0.00  0.00    +0.000 A 
ENDROOT
BRANCH   1   8
ATOM      7  C   UNL     1       7.060   6.302  16.842  0.00  0.00    +0.000 C 
ATOM      8  O   UNL     1       5.878   6.931  16.361  0.00  0.00    +0.000 OA
ENDBRANCH   1   8
BRANCH   3   9
ATOM      9  C   UNL     1       2.707   3.404  17.434  0.00  0.00    +0.000 C 
BRANCH   9  10
ATOM     10  N   UNL     1       2.529   2.653  18.698  0.00  0.00    +0.000 NA
ATOM     11  C   UNL     1       3.743   2.746  19.524  0.00  0.00    +0.000 C 
ATOM     12  C   UNL     1       3.569   2.238  20.956  0.00  0.00    +0.000 C 
ATOM     13  C   UNL     1       2.382   2.903  21.635  0.00  0.00    +0.000 C 
ATOM     14  C   UNL     1       1.135   2.656  20.804  0.00  0.00    +0.000 C 
ATOM     15  C   UNL     1       1.324   3.165  19.376  0.00  0.00    +0.000 C 
ENDBRANCH   9  10
ENDBRANCH   3   9
BRANCH   5  16
ATOM     16  O   UNL     1       1.845   7.946  18.955  0.00  0.00    +0.000 OA
BRANCH  16  17
ATOM     17  C   UNL     1       1.908   7.889  20.383  0.00  0.00    +0.000 C 
BRANCH  17  18
ATOM     18  C   UNL     1       0.775   8.735  20.953  0.00  0.00    +0.000 C 
BRANCH  18  19
ATOM     19  C   UNL     1       0.982  10.224  20.658  0.00  0.00    +0.000 C 
BRANCH  19  20
ATOM     20  N   UNL     1       0.742  10.460  19.247  0.00  0.00    +0.000 N 
ATOM     21  C   UNL     1      -0.514  10.621  18.755  0.00  0.00    +0.000 A 
ATOM     22  N   UNL     1      -0.793  10.225  17.535  0.00  0.00    +0.000 NA
ATOM     23  C   UNL     1      -2.088  10.574  17.193  0.00  0.00    +0.000 A 
ATOM     24  C   UNL     1      -2.701  10.334  15.948  0.00  0.00    +0.000 A 
ATOM     25  C   UNL     1      -4.004  10.786  15.718  0.00  0.00    +0.000 A 
ATOM     26  C   UNL     1      -4.701  11.459  16.715  0.00  0.00    +0.000 A 
ATOM     27  C   UNL     1      -4.120  11.683  17.971  0.00  0.00    +0.000 A 
ATOM     28  C   UNL     1      -2.809  11.232  18.185  0.00  0.00    +0.000 A 
ATOM     29  S   UNL     1      -1.820  11.366  19.589  0.00  0.00    +0.000 S 
ATOM     30  H   UNL     1       1.301   9.877  18.632  0.00  0.00    +0.000 HD
ENDBRANCH  19  20
ENDBRANCH  18  19
ENDBRANCH  17  18
ENDBRANCH  16  17
ENDBRANCH   5  16
TORSDOF 8
ENDMDL
MODEL 2
REMARK VINA RESULT:      -7.7      6.587      8.981
REMARK  Name = 
REMARK  9 active torsions:
REMARK  status: ('A' for Active; 'I' for Inactive)
REMARK    1  A    between atoms: C_1  and  O_2
REMARK    2  A    between atoms: O_2  and  C_3
REMARK    3  A    between atoms: C_5  and  C_6
REMARK    4  A    between atoms: C_6  and  N_7
REMARK    5  A    between atoms: C_14  and  O_15
REMARK    6  A    between atoms: O_15  and  C_16
REMARK    7  A    between atoms: C_16  and  C_17
REMARK    8  A    between atoms: C_17  and  C_18
REMARK    9  A    between atoms: C_18  and  N_19
REMARK                            x       y       z     vdW  Elec       q    Type
REMARK                         _______ _______ _______ _____ _____    ______ ____
ROOT
ATOM      1  C   UNL     1       6.210   5.456  16.100  0.00  0.00    +0.000 A 
ATOM      2  C   UNL     1       5.522   4.619  16.982  0.00  0.00    +0.000 A 
ATOM      3  C   UNL     1       5.719   4.708  18.367  0.00  0.00    +0.000 A 
ATOM      4  C   UNL     1       6.639   5.651  18.852  0.00  0.00    +0.000 A 
ATOM      5  C   UNL     1       7.309   6.512  17.981  0.00  0.00    +0.000 A 
ATOM      6  C   UNL     1       7.103   6.404  16.606  0.00  0.00    +0.000 A 
ENDROOT
BRANCH   1   8
ATOM      7  C   UNL     1       6.266   4.012  14.213  0.00  0.00    +0.000 C 
ATOM      8  O   UNL     1       5.916   5.270  14.777  0.00  0.00    +0.000 OA
ENDBRANCH   1   8
BRANCH   3   9
ATOM      9  C   UNL     1       4.882   3.887  19.323  0.00  0.00    +0.000 C 
BRANCH   9  10
ATOM     10  N   UNL     1       3.417   3.965  19.118  0.00  0.00    +0.000 NA
ATOM     11  C   UNL     1       2.889   2.658  18.694  0.00  0.00    +0.000 C 
ATOM     12  C   UNL     1       1.363   2.562  18.717  0.00  0.00    +0.000 C 
ATOM     13  C   UNL     1       0.806   2.974  20.071  0.00  0.00    +0.000 C 
ATOM     14  C   UNL     1       1.276   4.383  20.390  0.00  0.00    +0.000 C 
ATOM     15  C   UNL     1       2.801   4.467  20.360  0.00  0.00    +0.000 C 
ENDBRANCH   9  10
ENDBRANCH   3   9
BRANCH   5  16
ATOM     16  O   UNL     1       8.165   7.401  18.575  0.00  0.00    +0.000 OA
BRANCH  16  17
ATOM     17  C   UNL     1       8.208   8.710  18.001  0.00  0.00    +0.000 C 
BRANCH  17  18
ATOM     18  C   UNL     1       8.958   9.634  18.953  0.00  0.00    +0.000 C 
BRANCH  18  19
ATOM     19  C   UNL     1       9.676  10.757  18.199  0.00  0.00    +0.000 C 
BRANCH  19  20
ATOM     20  N   UNL     1      10.254  11.674  19.164  0.00  0.00    +0.000 N 
ATOM     21  C   UNL     1      10.384  13.000  18.898  0.00  0.00    +0.000 A 
ATOM     22  N   UNL     1      11.385  13.675  19.415  0.00  0.00    +0.000 NA
ATOM     23  C   UNL     1      11.275  15.020  19.110  0.00  0.00    +0.000 A 
ATOM     24  C   UNL     1      12.158  16.032  19.535  0.00  0.00    +0.000 A 
ATOM     25  C   UNL     1      11.900  17.364  19.195  0.00  0.00    +0.000 A 
ATOM     26  C   UNL     1      10.786  17.692  18.430  0.00  0.00    +0.000 A 
ATOM     27  C   UNL     1       9.911  16.697  17.974  0.00  0.00    +0.000 A 
ATOM     28  C   UNL     1      10.176  15.366  18.330  0.00  0.00    +0.000 A 
ATOM     29  S   UNL     1       9.297  13.934  17.950  0.00  0.00    +0.000 S 
ATOM     30  H   UNL     1      11.082  11.313  19.628  0.00  0.00    +0.000 HD
ENDBRANCH  19  20
ENDBRANCH  18  19
ENDBRANCH  17  18
ENDBRANCH  16  17
ENDBRANCH   5  16
TORSDOF 8
ENDMDL
MODEL 3
REMARK VINA RESULT:      -7.7      3.029      9.257
REMARK  Name = 
REMARK  9 active torsions:
REMARK  status: ('A' for Active; 'I' for Inactive)
REMARK    1  A    between atoms: C_1  and  O_2
REMARK    2  A    between atoms: O_2  and  C_3
REMARK    3  A    between atoms: C_5  and  C_6
REMARK    4  A    between atoms: C_6  and  N_7
REMARK    5  A    between atoms: C_14  and  O_15
REMARK    6  A    between atoms: O_15  and  C_16
REMARK    7  A    between atoms: C_16  and  C_17
REMARK    8  A    between atoms: C_17  and  C_18
REMARK    9  A    between atoms: C_18  and  N_19
REMARK                            x       y       z     vdW  Elec       q    Type
REMARK                         _______ _______ _______ _____ _____    ______ ____
ROOT
ATOM      1  C   UNL     1      -2.530  10.110  16.823  0.00  0.00    +0.000 A 
ATOM      2  C   UNL     1      -3.611  10.838  17.327  0.00  0.00    +0.000 A 
ATOM      3  C   UNL     1      -3.504  11.551  18.529  0.00  0.00    +0.000 A 
ATOM      4  C   UNL     1      -2.288  11.506  19.229  0.00  0.00    +0.000 A 
ATOM      5  C   UNL     1      -1.193  10.807  18.718  0.00  0.00    +0.000 A 
ATOM      6  C   UNL     1      -1.320  10.099  17.523  0.00  0.00    +0.000 A 
ENDROOT
BRANCH   1   8
ATOM      7  C   UNL     1      -3.316  10.253  14.584  0.00  0.00    +0.000 C 
ATOM      8  O   UNL     1      -2.766   9.470  15.637  0.00  0.00    +0.000 OA
ENDBRANCH   1   8
BRANCH   3   9
ATOM      9  C   UNL     1      -4.635  12.437  19.007  0.00  0.00    +0.000 C 
BRANCH   9  10
ATOM     10  N   UNL     1      -5.391  11.932  20.176  0.00  0.00    +0.000 NA
ATOM     11  C   UNL     1      -5.604  13.012  21.153  0.00  0.00    +0.000 C 
ATOM     12  C   UNL     1      -6.600  12.667  22.261  0.00  0.00    +0.000 C 
ATOM     13  C   UNL     1      -7.916  12.173  21.683  0.00  0.00    +0.000 C 
ATOM     14  C   UNL     1      -7.645  10.975  20.791  0.00  0.00    +0.000 C 
ATOM     15  C   UNL     1      -6.647  11.331  19.691  0.00  0.00    +0.000 C 
ENDBRANCH   9  10
ENDBRANCH   3   9
BRANCH   5  16
ATOM     16  O   UNL     1      -0.057  10.854  19.480  0.00  0.00    +0.000 OA
BRANCH  16  17
ATOM     17  C   UNL     1      -0.239  10.700  20.890  0.00  0.00    +0.000 C 
BRANCH  17  18
ATOM     18  C   UNL     1       0.079   9.257  21.267  0.00  0.00    +0.000 C 
BRANCH  18  19
ATOM     19  C   UNL     1       1.339   8.755  20.556  0.00  0.00    +0.000 C 
BRANCH  19  20
ATOM     20  N   UNL     1       1.681   7.445  21.078  0.00  0.00    +0.000 N 
ATOM     21  C   UNL     1       1.791   6.361  20.268  0.00  0.00    +0.000 A 
ATOM     22  N   UNL     1       1.485   5.169  20.726  0.00  0.00    +0.000 NA
ATOM     23  C   UNL     1       1.765   4.197  19.782  0.00  0.00    +0.000 A 
ATOM     24  C   UNL     1       1.591   2.810  19.956  0.00  0.00    +0.000 A 
ATOM     25  C   UNL     1       1.963   1.931  18.933  0.00  0.00    +0.000 A 
ATOM     26  C   UNL     1       2.491   2.420  17.743  0.00  0.00    +0.000 A 
ATOM     27  C   UNL     1       2.645   3.798  17.539  0.00  0.00    +0.000 A 
ATOM     28  C   UNL     1       2.277   4.668  18.576  0.00  0.00    +0.000 A 
ATOM     29  S   UNL     1       2.359   6.387  18.645  0.00  0.00    +0.000 S 
ATOM     30  H   UNL     1       1.199   7.208  21.940  0.00  0.00    +0.000 HD
ENDBRANCH  19  20
ENDBRANCH  18  19
ENDBRANCH  17  18
ENDBRANCH  16  17
ENDBRANCH   5  16
TORSDOF 8
ENDMDL
MODEL 4
REMARK VINA RESULT:      -7.6      2.063      4.165
REMARK  Name = 
REMARK  9 active torsions:
REMARK  status: ('A' for Active; 'I' for Inactive)
REMARK    1  A    between atoms: C_1  and  O_2
REMARK    2  A    between atoms: O_2  and  C_3
REMARK    3  A    between atoms: C_5  and  C_6
REMARK    4  A    between atoms: C_6  and  N_7
REMARK    5  A    between atoms: C_14  and  O_15
REMARK    6  A    between atoms: O_15  and  C_16
REMARK    7  A    between atoms: C_16  and  C_17
REMARK    8  A    between atoms: C_17  and  C_18
REMARK    9  A    between atoms: C_18  and  N_19
REMARK                            x       y       z     vdW  Elec       q    Type
REMARK                         _______ _______ _______ _____ _____    ______ ____
ROOT
ATOM      1  C   UNL     1       2.013   4.457  20.642  0.00  0.00    +0.000 A 
ATOM      2  C   UNL     1       3.177   3.988  20.027  0.00  0.00    +0.000 A 
ATOM      3  C   UNL     1       3.948   4.823  19.207  0.00  0.00    +0.000 A 
ATOM      4  C   UNL     1       3.516   6.143  19.001  0.00  0.00    +0.000 A 
ATOM      5  C   UNL     1       2.371   6.629  19.634  0.00  0.00    +0.000 A 
ATOM      6  C   UNL     1       1.614   5.781  20.443  0.00  0.00    +0.000 A 
ENDROOT
BRANCH   1   8
ATOM      7  C   UNL     1       2.120   2.420  21.864  0.00  0.00    +0.000 C 
ATOM      8  O   UNL     1       1.363   3.541  21.424  0.00  0.00    +0.000 OA
ENDBRANCH   1   8
BRANCH   3   9
ATOM      9  C   UNL     1       5.271   4.349  18.645  0.00  0.00    +0.000 C 
BRANCH   9  10
ATOM     10  N   UNL     1       5.613   4.863  17.299  0.00  0.00    +0.000 NA
ATOM     11  C   UNL     1       7.057   4.721  17.048  0.00  0.00    +0.000 C 
ATOM     12  C   UNL     1       7.469   4.969  15.597  0.00  0.00    +0.000 C 
ATOM     13  C   UNL     1       6.652   4.115  14.640  0.00  0.00    +0.000 C 
ATOM     14  C   UNL     1       5.177   4.408  14.854  0.00  0.00    +0.000 C 
ATOM     15  C   UNL     1       4.779   4.159  16.307  0.00  0.00    +0.000 C 
ENDBRANCH   9  10
ENDBRANCH   3   9
BRANCH   5  16
ATOM     16  O   UNL     1       2.064   7.937  19.372  0.00  0.00    +0.000 OA
BRANCH  16  17
ATOM     17  C   UNL     1       2.562   8.464  18.139  0.00  0.00    +0.000 C 
BRANCH  17  18
ATOM     18  C   UNL     1       1.854   9.783  17.853  0.00  0.00    +0.000 C 
BRANCH  18  19
ATOM     19  C   UNL     1       0.544   9.901  18.638  0.00  0.00    +0.000 C 
BRANCH  19  20
ATOM     20  N   UNL     1      -0.514  10.300  17.729  0.00  0.00    +0.000 N 
ATOM     21  C   UNL     1      -1.689  10.808  18.181  0.00  0.00    +0.000 A 
ATOM     22  N   UNL     1      -2.796  10.592  17.509  0.00  0.00    +0.000 NA
ATOM     23  C   UNL     1      -3.854  11.281  18.078  0.00  0.00    +0.000 A 
ATOM     24  C   UNL     1      -5.176  11.300  17.592  0.00  0.00    +0.000 A 
ATOM     25  C   UNL     1      -6.140  12.081  18.237  0.00  0.00    +0.000 A 
ATOM     26  C   UNL     1      -5.804  12.827  19.361  0.00  0.00    +0.000 A 
ATOM     27  C   UNL     1      -4.501  12.799  19.878  0.00  0.00    +0.000 A 
ATOM     28  C   UNL     1      -3.541  12.019  19.215  0.00  0.00    +0.000 A 
ATOM     29  S   UNL     1      -1.874  11.790  19.581  0.00  0.00    +0.000 S 
ATOM     30  H   UNL     1      -0.670   9.645  16.969  0.00  0.00    +0.000 HD
ENDBRANCH  19  20
ENDBRANCH  18  19
ENDBRANCH  17  18
ENDBRANCH  16  17
ENDBRANCH   5  16
TORSDOF 8
ENDMDL
MODEL 5
REMARK VINA RESULT:      -7.6      5.582      8.538
REMARK  Name = 
REMARK  9 active torsions:
REMARK  status: ('A' for Active; 'I' for Inactive)
REMARK    1  A    between atoms: C_1  and  O_2
REMARK    2  A    between atoms: O_2  and  C_3
REMARK    3  A    between atoms: C_5  and  C_6
REMARK    4  A    between atoms: C_6  and  N_7
REMARK    5  A    between atoms: C_14  and  O_15
REMARK    6  A    between atoms: O_15  and  C_16
REMARK    7  A    between atoms: C_16  and  C_17
REMARK    8  A    between atoms: C_17  and  C_18
REMARK    9  A    between atoms: C_18  and  N_19
REMARK                            x       y       z     vdW  Elec       q    Type
REMARK                         _______ _______ _______ _____ _____    ______ ____
ROOT
ATOM      1  C   UNL     1       3.452   6.380  17.733  0.00  0.00    +0.000 A 
ATOM      2  C   UNL     1       3.076   5.035  17.699  0.00  0.00    +0.000 A 
ATOM      3  C   UNL     1       4.038   4.018  17.624  0.00  0.00    +0.000 A 
ATOM      4  C   UNL     1       5.392   4.381  17.568  0.00  0.00    +0.000 A 
ATOM      5  C   UNL     1       5.779   5.720  17.631  0.00  0.00    +0.000 A 
ATOM      6  C   UNL     1       4.807   6.719  17.700  0.00  0.00    +0.000 A 
ENDROOT
BRANCH   1   8
ATOM      7  C   UNL     1       2.180   7.862  19.088  0.00  0.00    +0.000 C 
ATOM      8  O   UNL     1       2.414   7.269  17.817  0.00  0.00    +0.000 OA
ENDBRANCH   1   8
BRANCH   3   9
ATOM      9  C   UNL     1       3.633   2.562  17.714  0.00  0.00    +0.000 C 
BRANCH   9  10
ATOM     10  N   UNL     1       2.833   2.194  18.904  0.00  0.00    +0.000 NA
ATOM     11  C   UNL     1       3.495   2.662  20.132  0.00  0.00    +0.000 C 
ATOM     12  C   UNL     1       2.626   2.573  21.387  0.00  0.00    +0.000 C 
ATOM     13  C   UNL     1       1.288   3.265  21.179  0.00  0.00    +0.000 C 
ATOM     14  C   UNL     1       0.593   2.645  19.979  0.00  0.00    +0.000 C 
ATOM     15  C   UNL     1       1.472   2.738  18.734  0.00  0.00    +0.000 C 
ENDBRANCH   9  10
ENDBRANCH   3   9
BRANCH   5  16
ATOM     16  O   UNL     1       7.128   5.947  17.587  0.00  0.00    +0.000 OA
BRANCH  16  17
ATOM     17  C   UNL     1       7.534   7.230  17.103  0.00  0.00    +0.000 C 
BRANCH  17  18
ATOM     18  C   UNL     1       8.192   7.995  18.247  0.00  0.00    +0.000 C 
BRANCH  18  19
ATOM     19  C   UNL     1       8.318   9.487  17.926  0.00  0.00    +0.000 C 
BRANCH  19  20
ATOM     20  N   UNL     1       9.172  10.110  18.921  0.00  0.00    +0.000 N 
ATOM     21  C   UNL     1       9.652  11.369  18.760  0.00  0.00    +0.000 A 
ATOM     22  N   UNL     1      10.824  11.690  19.259  0.00  0.00    +0.000 NA
ATOM     23  C   UNL     1      11.078  13.038  19.078  0.00  0.00    +0.000 A 
ATOM     24  C   UNL     1      12.226  13.723  19.522  0.00  0.00    +0.000 A 
ATOM     25  C   UNL     1      12.333  15.103  19.316  0.00  0.00    +0.000 A 
ATOM     26  C   UNL     1      11.320  15.797  18.664  0.00  0.00    +0.000 A 
ATOM     27  C   UNL     1      10.183  15.129  18.189  0.00  0.00    +0.000 A 
ATOM     28  C   UNL     1      10.084  13.748  18.410  0.00  0.00    +0.000 A 
ATOM     29  S   UNL     1       8.825  12.656  17.974  0.00  0.00    +0.000 S 
ATOM     30  H   UNL     1       9.887   9.492  19.292  0.00  0.00    +0.000 HD
ENDBRANCH  19  20
ENDBRANCH  18  19
ENDBRANCH  17  18
ENDBRANCH  16  17
ENDBRANCH   5  16
TORSDOF 8
ENDMDL
MODEL 6
REMARK VINA RESULT:      -7.6      5.700      8.623
REMARK  Name = 
REMARK  9 active torsions:
REMARK  status: ('A' for Active; 'I' for Inactive)
REMARK    1  A    between atoms: C_1  and  O_2
REMARK    2  A    between atoms: O_2  and  C_3
REMARK    3  A    between atoms: C_5  and  C_6
REMARK    4  A    between atoms: C_6  and  N_7
REMARK    5  A    between atoms: C_14  and  O_15
REMARK    6  A    between atoms: O_15  and  C_16
REMARK    7  A    between atoms: C_16  and  C_17
REMARK    8  A    between atoms: C_17  and  C_18
REMARK    9  A    between atoms: C_18  and  N_19
REMARK                            x       y       z     vdW  Elec       q    Type
REMARK                         _______ _______ _______ _____ _____    ______ ____
ROOT
ATOM      1  C   UNL     1       5.643   4.223  14.836  0.00  0.00    +0.000 A 
ATOM      2  C   UNL     1       4.683   3.487  15.534  0.00  0.00    +0.000 A 
ATOM      3  C   UNL     1       4.639   3.503  16.935  0.00  0.00    +0.000 A 
ATOM      4  C   UNL     1       5.594   4.265  17.626  0.00  0.00    +0.000 A 
ATOM      5  C   UNL     1       6.538   5.026  16.936  0.00  0.00    +0.000 A 
ATOM      6  C   UNL     1       6.570   4.994  15.542  0.00  0.00    +0.000 A 
ENDROOT
BRANCH   1   8
ATOM      7  C   UNL     1       6.784   3.882  12.778  0.00  0.00    +0.000 C 
ATOM      8  O   UNL     1       5.567   4.126  13.473  0.00  0.00    +0.000 OA
ENDBRANCH   1   8
BRANCH   3   9
ATOM      9  C   UNL     1       3.522   2.806  17.683  0.00  0.00    +0.000 C 
BRANCH   9  10
ATOM     10  N   UNL     1       3.135   3.423  18.973  0.00  0.00    +0.000 NA
ATOM     11  C   UNL     1       1.740   3.887  18.920  0.00  0.00    +0.000 C 
ATOM     12  C   UNL     1       1.161   4.291  20.276  0.00  0.00    +0.000 C 
ATOM     13  C   UNL     1       1.340   3.183  21.302  0.00  0.00    +0.000 C 
ATOM     14  C   UNL     1       2.817   2.843  21.409  0.00  0.00    +0.000 C 
ATOM     15  C   UNL     1       3.383   2.445  20.048  0.00  0.00    +0.000 C 
ENDBRANCH   9  10
ENDBRANCH   3   9
BRANCH   5  16
ATOM     16  O   UNL     1       7.404   5.742  17.720  0.00  0.00    +0.000 OA
BRANCH  16  17
ATOM     17  C   UNL     1       7.100   7.130  17.884  0.00  0.00    +0.000 C 
BRANCH  17  18
ATOM     18  C   UNL     1       8.356   7.850  18.359  0.00  0.00    +0.000 C 
BRANCH  18  19
ATOM     19  C   UNL     1       8.272   9.358  18.103  0.00  0.00    +0.000 C 
BRANCH  19  20
ATOM     20  N   UNL     1       9.108  10.045  19.070  0.00  0.00    +0.000 N 
ATOM     21  C   UNL     1       9.611  11.282  18.825  0.00  0.00    +0.000 A 
ATOM     22  N   UNL     1      10.773  11.627  19.331  0.00  0.00    +0.000 NA
ATOM     23  C   UNL     1      11.051  12.954  19.053  0.00  0.00    +0.000 A 
ATOM     24  C   UNL     1      12.196  13.657  19.475  0.00  0.00    +0.000 A 
ATOM     25  C   UNL     1      12.329  15.015  19.165  0.00  0.00    +0.000 A 
ATOM     26  C   UNL     1      11.344  15.669  18.434  0.00  0.00    +0.000 A 
ATOM     27  C   UNL     1      10.210  14.980  17.980  0.00  0.00    +0.000 A 
ATOM     28  C   UNL     1      10.086  13.621  18.305  0.00  0.00    +0.000 A 
ATOM     29  S   UNL     1       8.823  12.514  17.920  0.00  0.00    +0.000 S 
ATOM     30  H   UNL     1       9.805   9.449  19.507  0.00  0.00    +0.000 HD
ENDBRANCH  19  20
ENDBRANCH  18  19
ENDBRANCH  17  18
ENDBRANCH  16  17
ENDBRANCH   5  16
TORSDOF 8
ENDMDL
MODEL 7
REMARK VINA RESULT:      -7.6      3.159      5.548
REMARK  Name = 
REMARK  9 active torsions:
REMARK  status: ('A' for Active; 'I' for Inactive)
REMARK    1  A    between atoms: C_1  and  O_2
REMARK    2  A    between atoms: O_2  and  C_3
REMARK    3  A    between atoms: C_5  and  C_6
REMARK    4  A    between atoms: C_6  and  N_7
REMARK    5  A    between atoms: C_14  and  O_15
REMARK    6  A    between atoms: O_15  and  C_16
REMARK    7  A    between atoms: C_16  and  C_17
REMARK    8  A    between atoms: C_17  and  C_18
REMARK    9  A    between atoms: C_18  and  N_19
REMARK                            x       y       z     vdW  Elec       q    Type
REMARK                         _______ _______ _______ _____ _____    ______ ____
ROOT
ATOM      1  C   UNL     1       5.880   4.633  19.024  0.00  0.00    +0.000 A 
ATOM      2  C   UNL     1       5.963   4.989  17.675  0.00  0.00    +0.000 A 
ATOM      3  C   UNL     1       5.024   4.520  16.746  0.00  0.00    +0.000 A 
ATOM      4  C   UNL     1       4.004   3.668  17.196  0.00  0.00    +0.000 A 
ATOM      5  C   UNL     1       3.896   3.331  18.547  0.00  0.00    +0.000 A 
ATOM      6  C   UNL     1       4.842   3.804  19.456  0.00  0.00    +0.000 A 
ENDROOT
BRANCH   1   8
ATOM      7  C   UNL     1       7.935   5.819  19.169  0.00  0.00    +0.000 C 
ATOM      8  O   UNL     1       6.853   5.169  19.824  0.00  0.00    +0.000 OA
ENDBRANCH   1   8
BRANCH   3   9
ATOM      9  C   UNL     1       5.044   5.006  15.312  0.00  0.00    +0.000 C 
BRANCH   9  10
ATOM     10  N   UNL     1       6.057   4.372  14.437  0.00  0.00    +0.000 NA
ATOM     11  C   UNL     1       5.409   3.754  13.269  0.00  0.00    +0.000 C 
ATOM     12  C   UNL     1       6.380   3.312  12.174  0.00  0.00    +0.000 C 
ATOM     13  C   UNL     1       7.299   4.451  11.762  0.00  0.00    +0.000 C 
ATOM     14  C   UNL     1       8.040   4.956  12.988  0.00  0.00    +0.000 C 
ATOM     15  C   UNL     1       7.059   5.391  14.075  0.00  0.00    +0.000 C 
ENDBRANCH   9  10
ENDBRANCH   3   9
BRANCH   5  16
ATOM     16  O   UNL     1       2.847   2.511  18.867  0.00  0.00    +0.000 OA
BRANCH  16  17
ATOM     17  C   UNL     1       2.125   2.850  20.054  0.00  0.00    +0.000 C 
BRANCH  17  18
ATOM     18  C   UNL     1       1.390   4.165  19.817  0.00  0.00    +0.000 C 
BRANCH  18  19
ATOM     19  C   UNL     1       1.806   5.233  20.833  0.00  0.00    +0.000 C 
BRANCH  19  20
ATOM     20  N   UNL     1       2.377   6.361  20.121  0.00  0.00    +0.000 N 
ATOM     21  C   UNL     1       1.786   7.583  20.133  0.00  0.00    +0.000 A 
ATOM     22  N   UNL     1       1.897   8.372  19.088  0.00  0.00    +0.000 NA
ATOM     23  C   UNL     1       1.318   9.603  19.344  0.00  0.00    +0.000 A 
ATOM     24  C   UNL     1       1.288  10.695  18.455  0.00  0.00    +0.000 A 
ATOM     25  C   UNL     1       0.712  11.904  18.861  0.00  0.00    +0.000 A 
ATOM     26  C   UNL     1       0.158  12.027  20.131  0.00  0.00    +0.000 A 
ATOM     27  C   UNL     1       0.152  10.943  21.019  0.00  0.00    +0.000 A 
ATOM     28  C   UNL     1       0.741   9.741  20.603  0.00  0.00    +0.000 A 
ATOM     29  S   UNL     1       0.911   8.252  21.453  0.00  0.00    +0.000 S 
ATOM     30  H   UNL     1       2.717   6.130  19.192  0.00  0.00    +0.000 HD
ENDBRANCH  19  20
ENDBRANCH  18  19
ENDBRANCH  17  18
ENDBRANCH  16  17
ENDBRANCH   5  16
TORSDOF 8
ENDMDL
MODEL 8
REMARK VINA RESULT:      -7.5      1.590      2.305
REMARK  Name = 
REMARK  9 active torsions:
REMARK  status: ('A' for Active; 'I' for Inactive)
REMARK    1  A    between atoms: C_1  and  O_2
REMARK    2  A    between atoms: O_2  and  C_3
REMARK    3  A    between atoms: C_5  and  C_6
REMARK    4  A    between atoms: C_6  and  N_7
REMARK    5  A    between atoms: C_14  and  O_15
REMARK    6  A    between atoms: O_15  and  C_16
REMARK    7  A    between atoms: C_16  and  C_17
REMARK    8  A    between atoms: C_17  and  C_18
REMARK    9  A    between atoms: C_18  and  N_19
REMARK                            x       y       z     vdW  Elec       q    Type
REMARK                         _______ _______ _______ _____ _____    ______ ____
ROOT
ATOM      1  C   UNL     1       6.114   5.366  16.605  0.00  0.00    +0.000 A 
ATOM      2  C   UNL     1       5.946   4.662  17.800  0.00  0.00    +0.000 A 
ATOM      3  C   UNL     1       4.916   4.990  18.693  0.00  0.00    +0.000 A 
ATOM      4  C   UNL     1       4.063   6.057  18.368  0.00  0.00    +0.000 A 
ATOM      5  C   UNL     1       4.205   6.746  17.163  0.00  0.00    +0.000 A 
ATOM      6  C   UNL     1       5.239   6.409  16.289  0.00  0.00    +0.000 A 
ENDROOT
BRANCH   1   8
ATOM      7  C   UNL     1       6.886   4.792  14.431  0.00  0.00    +0.000 C 
ATOM      8  O   UNL     1       7.150   4.936  15.821  0.00  0.00    +0.000 OA
ENDBRANCH   1   8
BRANCH   3   9
ATOM      9  C   UNL     1       4.660   4.147  19.924  0.00  0.00    +0.000 C 
BRANCH   9  10
ATOM     10  N   UNL     1       3.475   3.262  19.856  0.00  0.00    +0.000 NA
ATOM     11  C   UNL     1       2.277   3.975  20.329  0.00  0.00    +0.000 C 
ATOM     12  C   UNL     1       0.962   3.246  20.048  0.00  0.00    +0.000 C 
ATOM     13  C   UNL     1       0.844   2.873  18.578  0.00  0.00    +0.000 C 
ATOM     14  C   UNL     1       2.041   2.026  18.185  0.00  0.00    +0.000 C 
ATOM     15  C   UNL     1       3.347   2.763  18.474  0.00  0.00    +0.000 C 
ENDBRANCH   9  10
ENDBRANCH   3   9
BRANCH   5  16
ATOM     16  O   UNL     1       3.301   7.753  16.950  0.00  0.00    +0.000 OA
BRANCH  16  17
ATOM     17  C   UNL     1       2.472   8.097  18.063  0.00  0.00    +0.000 C 
BRANCH  17  18
ATOM     18  C   UNL     1       2.099   9.571  17.953  0.00  0.00    +0.000 C 
BRANCH  18  19
ATOM     19  C   UNL     1       0.770   9.869  18.655  0.00  0.00    +0.000 C 
BRANCH  19  20
ATOM     20  N   UNL     1      -0.172  10.382  17.678  0.00  0.00    +0.000 N 
ATOM     21  C   UNL     1      -1.408  10.812  18.037  0.00  0.00    +0.000 A 
ATOM     22  N   UNL     1      -2.414  10.683  17.202  0.00  0.00    +0.000 NA
ATOM     23  C   UNL     1      -3.554  11.275  17.716  0.00  0.00    +0.000 A 
ATOM     24  C   UNL     1      -4.802  11.351  17.068  0.00  0.00    +0.000 A 
ATOM     25  C   UNL     1      -5.862  12.026  17.682  0.00  0.00    +0.000 A 
ATOM     26  C   UNL     1      -5.694  12.610  18.932  0.00  0.00    +0.000 A 
ATOM     27  C   UNL     1      -4.468  12.521  19.606  0.00  0.00    +0.000 A 
ATOM     28  C   UNL     1      -3.411  11.850  18.975  0.00  0.00    +0.000 A 
ATOM     29  S   UNL     1      -1.798  11.587  19.522  0.00  0.00    +0.000 S 
ATOM     30  H   UNL     1      -0.210   9.839  16.821  0.00  0.00    +0.000 HD
ENDBRANCH  19  20
ENDBRANCH  18  19
ENDBRANCH  17  18
ENDBRANCH  16  17
ENDBRANCH   5  16
TORSDOF 8
ENDMDL
MODEL 9
REMARK VINA RESULT:      -7.4      3.005      3.905
REMARK  Name = 
REMARK  9 active torsions:
REMARK  status: ('A' for Active; 'I' for Inactive)
REMARK    1  A    between atoms: C_1  and  O_2
REMARK    2  A    between atoms: O_2  and  C_3
REMARK    3  A    between atoms: C_5  and  C_6
REMARK    4  A    between atoms: C_6  and  N_7
REMARK    5  A    between atoms: C_14  and  O_15
REMARK    6  A    between atoms: O_15  and  C_16
REMARK    7  A    between atoms: C_16  and  C_17
REMARK    8  A    between atoms: C_17  and  C_18
REMARK    9  A    between atoms: C_18  and  N_19
REMARK                            x       y       z     vdW  Elec       q    Type
REMARK                         _______ _______ _______ _____ _____    ______ ____
ROOT
ATOM      1  C   UNL     1       5.419   5.874  16.461  0.00  0.00    +0.000 A 
ATOM      2  C   UNL     1       4.743   4.658  16.590  0.00  0.00    +0.000 A 
ATOM      3  C   UNL     1       3.514   4.582  17.261  0.00  0.00    +0.000 A 
ATOM      4  C   UNL     1       2.982   5.755  17.817  0.00  0.00    +0.000 A 
ATOM      5  C   UNL     1       3.635   6.980  17.668  0.00  0.00    +0.000 A 
ATOM      6  C   UNL     1       4.859   7.035  17.002  0.00  0.00    +0.000 A 
ENDROOT
BRANCH   1   8
ATOM      7  C   UNL     1       6.852   4.615  15.042  0.00  0.00    +0.000 C 
ATOM      8  O   UNL     1       6.601   5.808  15.775  0.00  0.00    +0.000 OA
ENDBRANCH   1   8
BRANCH   3   9
ATOM      9  C   UNL     1       2.726   3.290  17.290  0.00  0.00    +0.000 C 
BRANCH   9  10
ATOM     10  N   UNL     1       2.446   2.744  18.637  0.00  0.00    +0.000 NA
ATOM     11  C   UNL     1       3.629   2.879  19.501  0.00  0.00    +0.000 C 
ATOM     12  C   UNL     1       3.362   2.596  20.980  0.00  0.00    +0.000 C 
ATOM     13  C   UNL     1       2.198   3.427  21.497  0.00  0.00    +0.000 C 
ATOM     14  C   UNL     1       0.972   3.141  20.649  0.00  0.00    +0.000 C 
ATOM     15  C   UNL     1       1.253   3.424  19.174  0.00  0.00    +0.000 C 
ENDBRANCH   9  10
ENDBRANCH   3   9
BRANCH   5  16
ATOM     16  O   UNL     1       3.008   8.055  18.237  0.00  0.00    +0.000 OA
BRANCH  16  17
ATOM     17  C   UNL     1       1.985   7.754  19.190  0.00  0.00    +0.000 C 
BRANCH  17  18
ATOM     18  C   UNL     1       1.299   9.054  19.595  0.00  0.00    +0.000 C 
BRANCH  18  19
ATOM     19  C   UNL     1       0.952   9.911  18.374  0.00  0.00    +0.000 C 
BRANCH  19  20
ATOM     20  N   UNL     1       2.078  10.775  18.072  0.00  0.00    +0.000 N 
ATOM     21  C   UNL     1       2.079  12.089  18.412  0.00  0.00    +0.000 A 
ATOM     22  N   UNL     1       2.719  12.958  17.663  0.00  0.00    +0.000 NA
ATOM     23  C   UNL     1       2.684  14.216  18.238  0.00  0.00    +0.000 A 
ATOM     24  C   UNL     1       3.300  15.372  17.718  0.00  0.00    +0.000 A 
ATOM     25  C   UNL     1       3.229  16.574  18.430  0.00  0.00    +0.000 A 
ATOM     26  C   UNL     1       2.544  16.637  19.638  0.00  0.00    +0.000 A 
ATOM     27  C   UNL     1       1.901  15.505  20.158  0.00  0.00    +0.000 A 
ATOM     28  C   UNL     1       1.987  14.304  19.439  0.00  0.00    +0.000 A 
ATOM     29  S   UNL     1       1.333  12.754  19.811  0.00  0.00    +0.000 S 
ATOM     30  H   UNL     1       2.462  10.639  17.142  0.00  0.00    +0.000 HD
ENDBRANCH  19  20
ENDBRANCH  18  19
ENDBRANCH  17  18
ENDBRANCH  16  17
ENDBRANCH   5  16
TORSDOF 8
ENDMDL
