MODEL 1
REMARK VINA RESULT:      -7.4      0.000      0.000
REMARK  Name = 
REMARK  3 active torsions:
REMARK  status: ('A' for Active; 'I' for Inactive)
REMARK    1  A    between atoms: N_1  and  C_2
REMARK    2  A    between atoms: C_2  and  C_3
REMARK    3  A    between atoms: C_2  and  C_12
REMARK                            x       y       z     vdW  Elec       q    Type
REMARK                         _______ _______ _______ _____ _____    ______ ____
ROOT
ATOM      1  C   UNL     1       4.386   3.274  19.241  0.00  0.00    +0.000 C 
ENDROOT
BRANCH   1   2
ATOM      2  C   UNL     1       5.523   4.265  18.844  0.00  0.00    +0.000 C 
ATOM      3  O   UNL     1       6.066   4.978  19.689  0.00  0.00    +0.000 OA
ATOM      4  N   UNL     1       5.975   4.200  17.541  0.00  0.00    +0.000 N 
ATOM      5  C   UNL     1       7.151   4.935  17.095  0.00  0.00    +0.000 C 
ATOM      6  C   UNL     1       6.792   5.366  15.682  0.00  0.00    +0.000 C 
ATOM      7  F   UNL     1       5.991   6.466  15.766  0.00  0.00    +0.000 F 
ATOM      8  C   UNL     1       5.993   4.180  15.169  0.00  0.00    +0.000 C 
ATOM      9  F   UNL     1       5.150   4.547  14.176  0.00  0.00    +0.000 F 
ATOM     10  C   UNL     1       5.230   3.691  16.396  0.00  0.00    +0.000 C 
ENDBRANCH   1   2
BRANCH   1  11
ATOM     11  C   UNL     1       3.198   3.991  19.950  0.00  0.00    +0.000 C 
ATOM     12  C   UNL     1       2.343   4.816  18.963  0.00  0.00    +0.000 C 
ATOM     13  C   UNL     1       1.533   3.946  17.999  0.00  0.00    +0.000 C 
ATOM     14  C   UNL     1       0.676   2.916  18.732  0.00  0.00    +0.000 C 
ATOM     15  C   UNL     1       1.476   2.112  19.753  0.00  0.00    +0.000 C 
ATOM     16  C   UNL     1       2.253   3.026  20.700  0.00  0.00    +0.000 C 
ENDBRANCH   1  11
BRANCH   1  17
ATOM     17  N   UNL     1       5.035   2.268  20.115  0.00  0.00    +0.000 NA
ATOM     18  H   UNL     1       5.968   2.053  19.777  0.00  0.00    +0.000 HD
ATOM     19  H   UNL     1       4.496   1.399  20.039  0.00  0.00    +0.000 HD
ENDBRANCH   1  17
TORSDOF 3
ENDMDL
MODEL 2
REMARK VINA RESULT:      -6.8      2.222      2.721
REMARK  Name = 
REMARK  3 active torsions:
REMARK  status: ('A' for Active; 'I' for Inactive)
REMARK    1  A    between atoms: N_1  and  C_2
REMARK    2  A    between atoms: C_2  and  C_3
REMARK    3  A    between atoms: C_2  and  C_12
REMARK                            x       y       z     vdW  Elec       q    Type
REMARK                         _______ _______ _______ _____ _____    ______ ____
ROOT
ATOM      1  C   UNL     1       3.159   5.422  19.187  0.00  0.00    +0.000 C 
ENDROOT
BRANCH   1   2
ATOM      2  C   UNL     1       3.915   6.297  18.140  0.00  0.00    +0.000 C 
ATOM      3  O   UNL     1       3.316   7.134  17.463  0.00  0.00    +0.000 OA
ATOM      4  N   UNL     1       5.291   6.180  18.111  0.00  0.00    +0.000 N 
ATOM      5  C   UNL     1       6.123   7.071  17.315  0.00  0.00    +0.000 C 
ATOM      6  C   UNL     1       7.237   6.167  16.810  0.00  0.00    +0.000 C 
ATOM      7  F   UNL     1       6.761   5.466  15.741  0.00  0.00    +0.000 F 
ATOM      8  C   UNL     1       7.461   5.232  17.986  0.00  0.00    +0.000 C 
ATOM      9  F   UNL     1       7.999   4.056  17.585  0.00  0.00    +0.000 F 
ATOM     10  C   UNL     1       6.066   5.035  18.572  0.00  0.00    +0.000 C 
ENDBRANCH   1   2
BRANCH   1  11
ATOM     11  C   UNL     1       1.955   4.658  18.559  0.00  0.00    +0.000 C 
ATOM     12  C   UNL     1       2.390   3.745  17.392  0.00  0.00    +0.000 C 
ATOM     13  C   UNL     1       3.208   2.535  17.848  0.00  0.00    +0.000 C 
ATOM     14  C   UNL     1       2.492   1.729  18.930  0.00  0.00    +0.000 C 
ATOM     15  C   UNL     1       2.004   2.603  20.081  0.00  0.00    +0.000 C 
ATOM     16  C   UNL     1       1.180   3.787  19.573  0.00  0.00    +0.000 C 
ENDBRANCH   1  11
BRANCH   1  17
ATOM     17  N   UNL     1       2.732   6.367  20.246  0.00  0.00    +0.000 NA
ATOM     18  H   UNL     1       3.540   6.797  20.685  0.00  0.00    +0.000 HD
ATOM     19  H   UNL     1       2.266   5.820  20.978  0.00  0.00    +0.000 HD
ENDBRANCH   1  17
TORSDOF 3
ENDMDL
MODEL 3
REMARK VINA RESULT:      -6.7      1.943      2.244
REMARK  Name = 
REMARK  3 active torsions:
REMARK  status: ('A' for Active; 'I' for Inactive)
REMARK    1  A    between atoms: N_1  and  C_2
REMARK    2  A    between atoms: C_2  and  C_3
REMARK    3  A    between atoms: C_2  and  C_12
REMARK                            x       y       z     vdW  Elec       q    Type
REMARK                         _______ _______ _______ _____ _____    ______ ____
ROOT
ATOM      1  C   UNL     1       3.019   5.171  19.218  0.00  0.00    +0.000 C 
ENDROOT
BRANCH   1   2
ATOM      2  C   UNL     1       3.639   6.136  18.160  0.00  0.00    +0.000 C 
ATOM      3  O   UNL     1       3.162   7.255  17.966  0.00  0.00    +0.000 OA
ATOM      4  N   UNL     1       4.813   5.726  17.560  0.00  0.00    +0.000 N 
ATOM      5  C   UNL     1       5.587   6.609  16.698  0.00  0.00    +0.000 C 
ATOM      6  C   UNL     1       6.118   5.682  15.616  0.00  0.00    +0.000 C 
ATOM      7  F   UNL     1       5.122   5.476  14.709  0.00  0.00    +0.000 F 
ATOM      8  C   UNL     1       6.392   4.401  16.386  0.00  0.00    +0.000 C 
ATOM      9  F   UNL     1       6.356   3.320  15.572  0.00  0.00    +0.000 F 
ATOM     10  C   UNL     1       5.277   4.351  17.427  0.00  0.00    +0.000 C 
ENDBRANCH   1   2
BRANCH   1  11
ATOM     11  C   UNL     1       1.625   4.631  18.780  0.00  0.00    +0.000 C 
ATOM     12  C   UNL     1       1.711   3.762  17.507  0.00  0.00    +0.000 C 
ATOM     13  C   UNL     1       2.405   2.419  17.742  0.00  0.00    +0.000 C 
ATOM     14  C   UNL     1       1.775   1.637  18.892  0.00  0.00    +0.000 C 
ATOM     15  C   UNL     1       1.628   2.476  20.158  0.00  0.00    +0.000 C 
ATOM     16  C   UNL     1       0.916   3.798  19.872  0.00  0.00    +0.000 C 
ENDBRANCH   1  11
BRANCH   1  17
ATOM     17  N   UNL     1       2.946   5.964  20.469  0.00  0.00    +0.000 NA
ATOM     18  H   UNL     1       3.713   6.628  20.514  0.00  0.00    +0.000 HD
ATOM     19  H   UNL     1       3.081   5.317  21.252  0.00  0.00    +0.000 HD
ENDBRANCH   1  17
TORSDOF 3
ENDMDL
MODEL 4
REMARK VINA RESULT:      -6.7      3.226      5.777
REMARK  Name = 
REMARK  3 active torsions:
REMARK  status: ('A' for Active; 'I' for Inactive)
REMARK    1  A    between atoms: N_1  and  C_2
REMARK    2  A    between atoms: C_2  and  C_3
REMARK    3  A    between atoms: C_2  and  C_12
REMARK                            x       y       z     vdW  Elec       q    Type
REMARK                         _______ _______ _______ _____ _____    ______ ____
ROOT
ATOM      1  C   UNL     1       4.540   3.497  17.500  0.00  0.00    +0.000 C 
ENDROOT
BRANCH   1   2
ATOM      2  C   UNL     1       3.000   3.317  17.669  0.00  0.00    +0.000 C 
ATOM      3  O   UNL     1       2.240   3.422  16.705  0.00  0.00    +0.000 OA
ATOM      4  N   UNL     1       2.557   2.905  18.910  0.00  0.00    +0.000 N 
ATOM      5  C   UNL     1       1.171   2.522  19.145  0.00  0.00    +0.000 C 
ATOM      6  C   UNL     1       0.888   3.039  20.546  0.00  0.00    +0.000 C 
ATOM      7  F   UNL     1       0.627   4.374  20.461  0.00  0.00    +0.000 F 
ATOM      8  C   UNL     1       2.213   2.812  21.255  0.00  0.00    +0.000 C 
ATOM      9  F   UNL     1       2.360   3.655  22.304  0.00  0.00    +0.000 F 
ATOM     10  C   UNL     1       3.258   3.078  20.176  0.00  0.00    +0.000 C 
ENDBRANCH   1   2
BRANCH   1  11
ATOM     11  C   UNL     1       4.929   4.969  17.167  0.00  0.00    +0.000 C 
ATOM     12  C   UNL     1       5.064   5.837  18.438  0.00  0.00    +0.000 C 
ATOM     13  C   UNL     1       6.282   5.472  19.288  0.00  0.00    +0.000 C 
ATOM     14  C   UNL     1       7.577   5.489  18.479  0.00  0.00    +0.000 C 
ATOM     15  C   UNL     1       7.470   4.680  17.189  0.00  0.00    +0.000 C 
ATOM     16  C   UNL     1       6.247   5.094  16.371  0.00  0.00    +0.000 C 
ENDBRANCH   1  11
BRANCH   1  17
ATOM     17  N   UNL     1       4.925   2.559  16.419  0.00  0.00    +0.000 NA
ATOM     18  H   UNL     1       5.428   3.049  15.686  0.00  0.00    +0.000 HD
ATOM     19  H   UNL     1       4.062   2.211  15.990  0.00  0.00    +0.000 HD
ENDBRANCH   1  17
TORSDOF 3
ENDMDL
MODEL 5
REMARK VINA RESULT:      -6.6      2.273      2.985
REMARK  Name = 
REMARK  3 active torsions:
REMARK  status: ('A' for Active; 'I' for Inactive)
REMARK    1  A    between atoms: N_1  and  C_2
REMARK    2  A    between atoms: C_2  and  C_3
REMARK    3  A    between atoms: C_2  and  C_12
REMARK                            x       y       z     vdW  Elec       q    Type
REMARK                         _______ _______ _______ _____ _____    ______ ____
ROOT
ATOM      1  C   UNL     1       3.263   5.629  19.537  0.00  0.00    +0.000 C 
ENDROOT
BRANCH   1   2
ATOM      2  C   UNL     1       3.883   6.251  18.247  0.00  0.00    +0.000 C 
ATOM      3  O   UNL     1       3.182   6.857  17.436  0.00  0.00    +0.000 OA
ATOM      4  N   UNL     1       5.258   6.204  18.136  0.00  0.00    +0.000 N 
ATOM      5  C   UNL     1       5.970   6.909  17.078  0.00  0.00    +0.000 C 
ATOM      6  C   UNL     1       7.110   5.969  16.723  0.00  0.00    +0.000 C 
ATOM      7  F   UNL     1       6.617   4.996  15.904  0.00  0.00    +0.000 F 
ATOM      8  C   UNL     1       7.479   5.374  18.072  0.00  0.00    +0.000 C 
ATOM      9  F   UNL     1       8.073   4.166  17.931  0.00  0.00    +0.000 F 
ATOM     10  C   UNL     1       6.144   5.257  18.800  0.00  0.00    +0.000 C 
ENDBRANCH   1   2
BRANCH   1  11
ATOM     11  C   UNL     1       2.317   4.432  19.219  0.00  0.00    +0.000 C 
ATOM     12  C   UNL     1       3.101   3.138  18.911  0.00  0.00    +0.000 C 
ATOM     13  C   UNL     1       3.798   2.550  20.139  0.00  0.00    +0.000 C 
ATOM     14  C   UNL     1       2.833   2.337  21.304  0.00  0.00    +0.000 C 
ATOM     15  C   UNL     1       2.004   3.581  21.610  0.00  0.00    +0.000 C 
ATOM     16  C   UNL     1       1.317   4.118  20.354  0.00  0.00    +0.000 C 
ENDBRANCH   1  11
BRANCH   1  17
ATOM     17  N   UNL     1       2.550   6.745  20.202  0.00  0.00    +0.000 NA
ATOM     18  H   UNL     1       2.524   6.601  21.207  0.00  0.00    +0.000 HD
ATOM     19  H   UNL     1       1.575   6.722  19.885  0.00  0.00    +0.000 HD
ENDBRANCH   1  17
TORSDOF 3
ENDMDL
MODEL 6
REMARK VINA RESULT:      -6.6      2.327      3.285
REMARK  Name = 
REMARK  3 active torsions:
REMARK  status: ('A' for Active; 'I' for Inactive)
REMARK    1  A    between atoms: N_1  and  C_2
REMARK    2  A    between atoms: C_2  and  C_3
REMARK    3  A    between atoms: C_2  and  C_12
REMARK                            x       y       z     vdW  Elec       q    Type
REMARK                         _______ _______ _______ _____ _____    ______ ____
ROOT
ATOM      1  C   UNL     1       3.057   4.486  18.424  0.00  0.00    +0.000 C 
ENDROOT
BRANCH   1   2
ATOM      2  C   UNL     1       4.216   4.519  17.380  0.00  0.00    +0.000 C 
ATOM      3  O   UNL     1       4.069   4.040  16.255  0.00  0.00    +0.000 OA
ATOM      4  N   UNL     1       5.349   5.224  17.733  0.00  0.00    +0.000 N 
ATOM      5  C   UNL     1       6.421   5.488  16.782  0.00  0.00    +0.000 C 
ATOM      6  C   UNL     1       7.683   5.381  17.623  0.00  0.00    +0.000 C 
ATOM      7  F   UNL     1       7.981   4.059  17.773  0.00  0.00    +0.000 F 
ATOM      8  C   UNL     1       7.242   5.968  18.954  0.00  0.00    +0.000 C 
ATOM      9  F   UNL     1       8.000   5.500  19.974  0.00  0.00    +0.000 F 
ATOM     10  C   UNL     1       5.789   5.522  19.090  0.00  0.00    +0.000 C 
ENDBRANCH   1   2
BRANCH   1  11
ATOM     11  C   UNL     1       2.438   3.064  18.575  0.00  0.00    +0.000 C 
ATOM     12  C   UNL     1       3.325   2.131  19.428  0.00  0.00    +0.000 C 
ATOM     13  C   UNL     1       3.354   2.518  20.908  0.00  0.00    +0.000 C 
ATOM     14  C   UNL     1       1.951   2.630  21.503  0.00  0.00    +0.000 C 
ATOM     15  C   UNL     1       1.029   3.507  20.662  0.00  0.00    +0.000 C 
ATOM     16  C   UNL     1       1.024   3.069  19.197  0.00  0.00    +0.000 C 
ENDBRANCH   1  11
BRANCH   1  17
ATOM     17  N   UNL     1       2.069   5.478  17.939  0.00  0.00    +0.000 NA
ATOM     18  H   UNL     1       1.779   5.256  16.991  0.00  0.00    +0.000 HD
ATOM     19  H   UNL     1       2.542   6.386  17.888  0.00  0.00    +0.000 HD
ENDBRANCH   1  17
TORSDOF 3
ENDMDL
MODEL 7
REMARK VINA RESULT:      -6.5      1.283      1.978
REMARK  Name = 
REMARK  3 active torsions:
REMARK  status: ('A' for Active; 'I' for Inactive)
REMARK    1  A    between atoms: N_1  and  C_2
REMARK    2  A    between atoms: C_2  and  C_3
REMARK    3  A    between atoms: C_2  and  C_12
REMARK                            x       y       z     vdW  Elec       q    Type
REMARK                         _______ _______ _______ _____ _____    ______ ____
ROOT
ATOM      1  C   UNL     1       3.900   5.040  19.445  0.00  0.00    +0.000 C 
ENDROOT
BRANCH   1   2
ATOM      2  C   UNL     1       5.402   5.072  19.026  0.00  0.00    +0.000 C 
ATOM      3  O   UNL     1       6.271   5.451  19.812  0.00  0.00    +0.000 OA
ATOM      4  N   UNL     1       5.714   4.532  17.794  0.00  0.00    +0.000 N 
ATOM      5  C   UNL     1       7.092   4.332  17.367  0.00  0.00    +0.000 C 
ATOM      6  C   UNL     1       7.057   4.646  15.880  0.00  0.00    +0.000 C 
ATOM      7  F   UNL     1       7.084   6.001  15.732  0.00  0.00    +0.000 F 
ATOM      8  C   UNL     1       5.700   4.104  15.461  0.00  0.00    +0.000 C 
ATOM      9  F   UNL     1       5.242   4.728  14.350  0.00  0.00    +0.000 F 
ATOM     10  C   UNL     1       4.805   4.383  16.665  0.00  0.00    +0.000 C 
ENDBRANCH   1   2
BRANCH   1  11
ATOM     11  C   UNL     1       3.190   3.728  18.996  0.00  0.00    +0.000 C 
ATOM     12  C   UNL     1       3.492   2.548  19.947  0.00  0.00    +0.000 C 
ATOM     13  C   UNL     1       2.832   2.699  21.319  0.00  0.00    +0.000 C 
ATOM     14  C   UNL     1       1.328   2.941  21.214  0.00  0.00    +0.000 C 
ATOM     15  C   UNL     1       0.985   4.069  20.246  0.00  0.00    +0.000 C 
ATOM     16  C   UNL     1       1.654   3.863  18.887  0.00  0.00    +0.000 C 
ENDBRANCH   1  11
BRANCH   1  17
ATOM     17  N   UNL     1       3.298   6.244  18.823  0.00  0.00    +0.000 NA
ATOM     18  H   UNL     1       2.286   6.156  18.788  0.00  0.00    +0.000 HD
ATOM     19  H   UNL     1       3.616   6.280  17.850  0.00  0.00    +0.000 HD
ENDBRANCH   1  17
TORSDOF 3
ENDMDL
MODEL 8
REMARK VINA RESULT:      -6.4      3.257      5.813
REMARK  Name = 
REMARK  3 active torsions:
REMARK  status: ('A' for Active; 'I' for Inactive)
REMARK    1  A    between atoms: N_1  and  C_2
REMARK    2  A    between atoms: C_2  and  C_3
REMARK    3  A    between atoms: C_2  and  C_12
REMARK                            x       y       z     vdW  Elec       q    Type
REMARK                         _______ _______ _______ _____ _____    ______ ____
ROOT
ATOM      1  C   UNL     1       4.910   4.282  18.223  0.00  0.00    +0.000 C 
ENDROOT
BRANCH   1   2
ATOM      2  C   UNL     1       3.498   3.698  17.912  0.00  0.00    +0.000 C 
ATOM      3  O   UNL     1       3.040   3.719  16.769  0.00  0.00    +0.000 OA
ATOM      4  N   UNL     1       2.856   3.044  18.946  0.00  0.00    +0.000 N 
ATOM      5  C   UNL     1       1.623   2.296  18.737  0.00  0.00    +0.000 C 
ATOM      6  C   UNL     1       0.827   2.556  20.006  0.00  0.00    +0.000 C 
ATOM      7  F   UNL     1       0.241   3.782  19.895  0.00  0.00    +0.000 F 
ATOM      8  C   UNL     1       1.908   2.591  21.073  0.00  0.00    +0.000 C 
ATOM      9  F   UNL     1       1.516   3.314  22.148  0.00  0.00    +0.000 F 
ATOM     10  C   UNL     1       3.097   3.240  20.370  0.00  0.00    +0.000 C 
ENDBRANCH   1   2
BRANCH   1  11
ATOM     11  C   UNL     1       5.719   4.593  16.928  0.00  0.00    +0.000 C 
ATOM     12  C   UNL     1       5.306   5.939  16.293  0.00  0.00    +0.000 C 
ATOM     13  C   UNL     1       5.740   7.151  17.121  0.00  0.00    +0.000 C 
ATOM     14  C   UNL     1       7.234   7.132  17.434  0.00  0.00    +0.000 C 
ATOM     15  C   UNL     1       7.692   5.800  18.019  0.00  0.00    +0.000 C 
ATOM     16  C   UNL     1       7.248   4.625  17.148  0.00  0.00    +0.000 C 
ENDBRANCH   1  11
BRANCH   1  17
ATOM     17  N   UNL     1       5.575   3.262  19.067  0.00  0.00    +0.000 NA
ATOM     18  H   UNL     1       5.307   3.376  20.040  0.00  0.00    +0.000 HD
ATOM     19  H   UNL     1       6.584   3.437  19.027  0.00  0.00    +0.000 HD
ENDBRANCH   1  17
TORSDOF 3
ENDMDL
MODEL 9
REMARK VINA RESULT:      -6.3      3.264      5.596
REMARK  Name = 
REMARK  3 active torsions:
REMARK  status: ('A' for Active; 'I' for Inactive)
REMARK    1  A    between atoms: N_1  and  C_2
REMARK    2  A    between atoms: C_2  and  C_3
REMARK    3  A    between atoms: C_2  and  C_12
REMARK                            x       y       z     vdW  Elec       q    Type
REMARK                         _______ _______ _______ _____ _____    ______ ____
ROOT
ATOM      1  C   UNL     1       3.309   6.239  17.908  0.00  0.00    +0.000 C 
ENDROOT
BRANCH   1   2
ATOM      2  C   UNL     1       2.635   5.920  19.279  0.00  0.00    +0.000 C 
ATOM      3  O   UNL     1       2.701   6.714  20.218  0.00  0.00    +0.000 OA
ATOM      4  N   UNL     1       1.856   4.781  19.337  0.00  0.00    +0.000 N 
ATOM      5  C   UNL     1       1.027   4.472  20.494  0.00  0.00    +0.000 C 
ATOM      6  C   UNL     1       1.127   2.960  20.615  0.00  0.00    +0.000 C 
ATOM      7  F   UNL     1       2.306   2.661  21.232  0.00  0.00    +0.000 F 
ATOM      8  C   UNL     1       1.174   2.516  19.162  0.00  0.00    +0.000 C 
ATOM      9  F   UNL     1       1.783   1.313  19.035  0.00  0.00    +0.000 F 
ATOM     10  C   UNL     1       1.967   3.618  18.466  0.00  0.00    +0.000 C 
ENDBRANCH   1   2
BRANCH   1  11
ATOM     11  C   UNL     1       4.854   6.044  17.952  0.00  0.00    +0.000 C 
ATOM     12  C   UNL     1       5.254   4.553  17.915  0.00  0.00    +0.000 C 
ATOM     13  C   UNL     1       4.985   3.891  16.562  0.00  0.00    +0.000 C 
ATOM     14  C   UNL     1       5.630   4.656  15.407  0.00  0.00    +0.000 C 
ATOM     15  C   UNL     1       5.297   6.145  15.435  0.00  0.00    +0.000 C 
ATOM     16  C   UNL     1       5.598   6.759  16.802  0.00  0.00    +0.000 C 
ENDBRANCH   1  11
BRANCH   1  17
ATOM     17  N   UNL     1       2.929   7.639  17.605  0.00  0.00    +0.000 NA
ATOM     18  H   UNL     1       2.835   8.175  18.463  0.00  0.00    +0.000 HD
ATOM     19  H   UNL     1       1.998   7.620  17.176  0.00  0.00    +0.000 HD
ENDBRANCH   1  17
TORSDOF 3
ENDMDL
