MODEL 1
REMARK VINA RESULT:      -7.8      0.000      0.000
REMARK  Name = 
REMARK  12 active torsions:
REMARK  status: ('A' for Active; 'I' for Inactive)
REMARK    1  A    between atoms: C_1  and  O_2
REMARK    2  A    between atoms: O_2  and  C_3
REMARK    3  A    between atoms: C_5  and  C_6
REMARK    4  A    between atoms: C_6  and  C_8
REMARK    5  A    between atoms: N_11  and  C_12
REMARK    6  A    between atoms: C_15  and  C_16
REMARK    7  A    between atoms: C_16  and  C_17
REMARK    8  A    between atoms: C_16  and  C_18
REMARK    9  A    between atoms: C_23  and  O_24
REMARK   10  A    between atoms: O_24  and  C_25
REMARK   11  A    between atoms: C_26  and  O_27
REMARK   12  A    between atoms: O_27  and  C_28
REMARK                            x       y       z     vdW  Elec       q    Type
REMARK                         _______ _______ _______ _____ _____    ______ ____
ROOT
ATOM      1  C   UNL     1       6.178   6.018  16.483  0.00  0.00    +0.000 C 
ATOM      2  O   UNL     1       6.515   5.708  15.347  0.00  0.00    +0.000 OA
ENDROOT
BRANCH   1   5
ATOM      3  C   UNL     1       3.263   3.830  17.469  0.00  0.00    +0.000 A 
ATOM      4  C   UNL     1       4.427   4.278  16.838  0.00  0.00    +0.000 A 
ATOM      5  C   UNL     1       4.856   5.592  16.993  0.00  0.00    +0.000 A 
ATOM      6  C   UNL     1       4.032   6.509  17.633  0.00  0.00    +0.000 A 
ATOM      7  C   UNL     1       2.805   6.107  18.185  0.00  0.00    +0.000 A 
ATOM      8  C   UNL     1       2.413   4.748  18.125  0.00  0.00    +0.000 A 
BRANCH   3  10
ATOM      9  C   UNL     1       3.597   1.651  18.356  0.00  0.00    +0.000 C 
ATOM     10  O   UNL     1       2.938   2.498  17.408  0.00  0.00    +0.000 OA
ENDBRANCH   3  10
BRANCH   7  11
ATOM     11  O   UNL     1       2.151   7.169  18.760  0.00  0.00    +0.000 OA
ATOM     12  C   UNL     1       2.230   8.453  18.162  0.00  0.00    +0.000 C 
ENDBRANCH   7  11
BRANCH   8  13
ATOM     13  O   UNL     1       1.215   4.441  18.713  0.00  0.00    +0.000 OA
ATOM     14  C   UNL     1       1.162   3.986  20.054  0.00  0.00    +0.000 C 
ENDBRANCH   8  13
ENDBRANCH   1   5
BRANCH   1  15
ATOM     15  C   UNL     1       7.050   6.788  17.360  0.00  0.00    +0.000 A 
ATOM     16  C   UNL     1       7.810   6.421  18.493  0.00  0.00    +0.000 A 
ATOM     17  N   UNL     1       8.525   7.431  18.993  0.00  0.00    +0.000 NA
ATOM     18  N   UNL     1       8.177   8.504  18.231  0.00  0.00    +0.000 N 
ATOM     19  C   UNL     1       7.300   8.137  17.236  0.00  0.00    +0.000 A 
BRANCH  18  20
ATOM     20  C   UNL     1       8.701   9.801  18.483  0.00  0.00    +0.000 A 
ATOM     21  C   UNL     1       8.418  10.863  17.611  0.00  0.00    +0.000 A 
ATOM     22  C   UNL     1       8.919  12.145  17.885  0.00  0.00    +0.000 A 
ATOM     23  C   UNL     1       9.710  12.383  19.017  0.00  0.00    +0.000 A 
ATOM     24  C   UNL     1      10.010  11.307  19.861  0.00  0.00    +0.000 A 
ATOM     25  C   UNL     1       9.510  10.033  19.604  0.00  0.00    +0.000 A 
BRANCH  23  26
ATOM     26  C   UNL     1      10.208  13.784  19.334  0.00  0.00    +0.000 C 
ATOM     27  C   UNL     1       9.547  14.322  20.607  0.00  0.00    +0.000 C 
ATOM     28  C   UNL     1      11.733  13.837  19.454  0.00  0.00    +0.000 C 
ENDBRANCH  23  26
ENDBRANCH  18  20
ENDBRANCH   1  15
TORSDOF 7
ENDMDL
MODEL 2
REMARK VINA RESULT:      -7.7      0.459      2.515
REMARK  Name = 
REMARK  12 active torsions:
REMARK  status: ('A' for Active; 'I' for Inactive)
REMARK    1  A    between atoms: C_1  and  O_2
REMARK    2  A    between atoms: O_2  and  C_3
REMARK    3  A    between atoms: C_5  and  C_6
REMARK    4  A    between atoms: C_6  and  C_8
REMARK    5  A    between atoms: N_11  and  C_12
REMARK    6  A    between atoms: C_15  and  C_16
REMARK    7  A    between atoms: C_16  and  C_17
REMARK    8  A    between atoms: C_16  and  C_18
REMARK    9  A    between atoms: C_23  and  O_24
REMARK   10  A    between atoms: O_24  and  C_25
REMARK   11  A    between atoms: C_26  and  O_27
REMARK   12  A    between atoms: O_27  and  C_28
REMARK                            x       y       z     vdW  Elec       q    Type
REMARK                         _______ _______ _______ _____ _____    ______ ____
ROOT
ATOM      1  C   UNL     1       6.328   6.000  16.660  0.00  0.00    +0.000 C 
ATOM      2  O   UNL     1       6.664   5.636  15.540  0.00  0.00    +0.000 OA
ENDROOT
BRANCH   1   5
ATOM      3  C   UNL     1       2.879   6.107  18.195  0.00  0.00    +0.000 A 
ATOM      4  C   UNL     1       4.179   6.474  17.835  0.00  0.00    +0.000 A 
ATOM      5  C   UNL     1       5.024   5.564  17.207  0.00  0.00    +0.000 A 
ATOM      6  C   UNL     1       4.636   4.235  17.096  0.00  0.00    +0.000 A 
ATOM      7  C   UNL     1       3.373   3.817  17.548  0.00  0.00    +0.000 A 
ATOM      8  C   UNL     1       2.466   4.760  18.088  0.00  0.00    +0.000 A 
BRANCH   3  10
ATOM      9  C   UNL     1       2.010   8.308  17.984  0.00  0.00    +0.000 C 
ATOM     10  O   UNL     1       2.026   7.062  18.688  0.00  0.00    +0.000 OA
ENDBRANCH   3  10
BRANCH   7  11
ATOM     11  O   UNL     1       3.200   2.470  17.350  0.00  0.00    +0.000 OA
ATOM     12  C   UNL     1       3.533   1.556  18.383  0.00  0.00    +0.000 C 
ENDBRANCH   7  11
BRANCH   8  13
ATOM     13  O   UNL     1       1.249   4.270  18.477  0.00  0.00    +0.000 OA
ATOM     14  C   UNL     1       1.030   3.853  19.814  0.00  0.00    +0.000 C 
ENDBRANCH   8  13
ENDBRANCH   1   5
BRANCH   1  15
ATOM     15  C   UNL     1       7.183   6.846  17.483  0.00  0.00    +0.000 A 
ATOM     16  C   UNL     1       7.976   6.564  18.618  0.00  0.00    +0.000 A 
ATOM     17  N   UNL     1       8.659   7.624  19.055  0.00  0.00    +0.000 NA
ATOM     18  N   UNL     1       8.257   8.644  18.248  0.00  0.00    +0.000 N 
ATOM     19  C   UNL     1       7.378   8.195  17.289  0.00  0.00    +0.000 A 
BRANCH  18  20
ATOM     20  C   UNL     1       8.734   9.971  18.427  0.00  0.00    +0.000 A 
ATOM     21  C   UNL     1       8.311  10.999  17.571  0.00  0.00    +0.000 A 
ATOM     22  C   UNL     1       8.769  12.310  17.774  0.00  0.00    +0.000 A 
ATOM     23  C   UNL     1       9.653  12.611  18.819  0.00  0.00    +0.000 A 
ATOM     24  C   UNL     1      10.089  11.570  19.646  0.00  0.00    +0.000 A 
ATOM     25  C   UNL     1       9.635  10.267  19.459  0.00  0.00    +0.000 A 
BRANCH  23  26
ATOM     26  C   UNL     1      10.104  14.042  19.063  0.00  0.00    +0.000 C 
ATOM     27  C   UNL     1      11.161  14.099  20.172  0.00  0.00    +0.000 C 
ATOM     28  C   UNL     1      10.628  14.704  17.785  0.00  0.00    +0.000 C 
ENDBRANCH  23  26
ENDBRANCH  18  20
ENDBRANCH   1  15
TORSDOF 7
ENDMDL
MODEL 3
REMARK VINA RESULT:      -7.5      5.314      7.900
REMARK  Name = 
REMARK  12 active torsions:
REMARK  status: ('A' for Active; 'I' for Inactive)
REMARK    1  A    between atoms: C_1  and  O_2
REMARK    2  A    between atoms: O_2  and  C_3
REMARK    3  A    between atoms: C_5  and  C_6
REMARK    4  A    between atoms: C_6  and  C_8
REMARK    5  A    between atoms: N_11  and  C_12
REMARK    6  A    between atoms: C_15  and  C_16
REMARK    7  A    between atoms: C_16  and  C_17
REMARK    8  A    between atoms: C_16  and  C_18
REMARK    9  A    between atoms: C_23  and  O_24
REMARK   10  A    between atoms: O_24  and  C_25
REMARK   11  A    between atoms: C_26  and  O_27
REMARK   12  A    between atoms: O_27  and  C_28
REMARK                            x       y       z     vdW  Elec       q    Type
REMARK                         _______ _______ _______ _____ _____    ______ ____
ROOT
ATOM      1  C   UNL     1       2.550   7.773  18.138  0.00  0.00    +0.000 C 
ATOM      2  O   UNL     1       2.816   8.579  17.256  0.00  0.00    +0.000 OA
ENDROOT
BRANCH   1   5
ATOM      3  C   UNL     1       4.693   4.670  17.939  0.00  0.00    +0.000 A 
ATOM      4  C   UNL     1       4.301   6.011  17.911  0.00  0.00    +0.000 A 
ATOM      5  C   UNL     1       2.956   6.358  17.980  0.00  0.00    +0.000 A 
ATOM      6  C   UNL     1       1.988   5.365  17.899  0.00  0.00    +0.000 A 
ATOM      7  C   UNL     1       2.356   4.012  17.819  0.00  0.00    +0.000 A 
ATOM      8  C   UNL     1       3.723   3.645  17.858  0.00  0.00    +0.000 A 
BRANCH   3  10
ATOM      9  C   UNL     1       6.814   4.740  16.870  0.00  0.00    +0.000 C 
ATOM     10  O   UNL     1       6.029   4.363  18.006  0.00  0.00    +0.000 OA
ENDBRANCH   3  10
BRANCH   7  11
ATOM     11  O   UNL     1       1.249   3.204  17.741  0.00  0.00    +0.000 OA
ATOM     12  C   UNL     1       0.638   2.726  18.929  0.00  0.00    +0.000 C 
ENDBRANCH   7  11
BRANCH   8  13
ATOM     13  O   UNL     1       3.988   2.304  17.803  0.00  0.00    +0.000 OA
ATOM     14  C   UNL     1       3.968   1.513  18.979  0.00  0.00    +0.000 C 
ENDBRANCH   8  13
ENDBRANCH   1   5
BRANCH   1  15
ATOM     15  C   UNL     1       1.851   8.167  19.355  0.00  0.00    +0.000 A 
ATOM     16  C   UNL     1       1.780   7.573  20.635  0.00  0.00    +0.000 A 
ATOM     17  N   UNL     1       1.060   8.288  21.503  0.00  0.00    +0.000 NA
ATOM     18  N   UNL     1       0.583   9.331  20.772  0.00  0.00    +0.000 N 
ATOM     19  C   UNL     1       1.056   9.284  19.480  0.00  0.00    +0.000 A 
BRANCH  18  20
ATOM     20  C   UNL     1      -0.279  10.309  21.339  0.00  0.00    +0.000 A 
ATOM     21  C   UNL     1      -0.844  11.310  20.534  0.00  0.00    +0.000 A 
ATOM     22  C   UNL     1      -1.714  12.254  21.100  0.00  0.00    +0.000 A 
ATOM     23  C   UNL     1      -2.023  12.221  22.467  0.00  0.00    +0.000 A 
ATOM     24  C   UNL     1      -1.428  11.235  23.263  0.00  0.00    +0.000 A 
ATOM     25  C   UNL     1      -0.570  10.287  22.709  0.00  0.00    +0.000 A 
BRANCH  23  26
ATOM     26  C   UNL     1      -3.005  13.215  23.064  0.00  0.00    +0.000 C 
ATOM     27  C   UNL     1      -3.955  12.523  24.047  0.00  0.00    +0.000 C 
ATOM     28  C   UNL     1      -2.292  14.389  23.741  0.00  0.00    +0.000 C 
ENDBRANCH  23  26
ENDBRANCH  18  20
ENDBRANCH   1  15
TORSDOF 7
ENDMDL
MODEL 4
REMARK VINA RESULT:      -7.4      5.270      7.946
REMARK  Name = 
REMARK  12 active torsions:
REMARK  status: ('A' for Active; 'I' for Inactive)
REMARK    1  A    between atoms: C_1  and  O_2
REMARK    2  A    between atoms: O_2  and  C_3
REMARK    3  A    between atoms: C_5  and  C_6
REMARK    4  A    between atoms: C_6  and  C_8
REMARK    5  A    between atoms: N_11  and  C_12
REMARK    6  A    between atoms: C_15  and  C_16
REMARK    7  A    between atoms: C_16  and  C_17
REMARK    8  A    between atoms: C_16  and  C_18
REMARK    9  A    between atoms: C_23  and  O_24
REMARK   10  A    between atoms: O_24  and  C_25
REMARK   11  A    between atoms: C_26  and  O_27
REMARK   12  A    between atoms: O_27  and  C_28
REMARK                            x       y       z     vdW  Elec       q    Type
REMARK                         _______ _______ _______ _____ _____    ______ ____
ROOT
ATOM      1  C   UNL     1       2.434   7.825  18.232  0.00  0.00    +0.000 C 
ATOM      2  O   UNL     1       2.599   8.550  17.260  0.00  0.00    +0.000 OA
ENDROOT
BRANCH   1   5
ATOM      3  C   UNL     1       4.781   4.885  18.563  0.00  0.00    +0.000 A 
ATOM      4  C   UNL     1       4.312   6.193  18.411  0.00  0.00    +0.000 A 
ATOM      5  C   UNL     1       2.959   6.441  18.207  0.00  0.00    +0.000 A 
ATOM      6  C   UNL     1       2.095   5.377  17.978  0.00  0.00    +0.000 A 
ATOM      7  C   UNL     1       2.563   4.054  18.019  0.00  0.00    +0.000 A 
ATOM      8  C   UNL     1       3.918   3.790  18.335  0.00  0.00    +0.000 A 
BRANCH   3  10
ATOM      9  C   UNL     1       7.027   4.700  17.811  0.00  0.00    +0.000 C 
ATOM     10  O   UNL     1       6.096   4.679  18.898  0.00  0.00    +0.000 OA
ENDBRANCH   3  10
BRANCH   7  11
ATOM     11  O   UNL     1       1.550   3.164  17.758  0.00  0.00    +0.000 OA
ATOM     12  C   UNL     1       0.788   2.629  18.829  0.00  0.00    +0.000 C 
ENDBRANCH   7  11
BRANCH   8  13
ATOM     13  O   UNL     1       4.279   2.471  18.381  0.00  0.00    +0.000 OA
ATOM     14  C   UNL     1       4.294   1.767  19.611  0.00  0.00    +0.000 C 
ENDBRANCH   8  13
ENDBRANCH   1   5
BRANCH   1  15
ATOM     15  C   UNL     1       1.743   8.288  19.428  0.00  0.00    +0.000 A 
ATOM     16  C   UNL     1       1.693   7.778  20.745  0.00  0.00    +0.000 A 
ATOM     17  N   UNL     1       0.972   8.538  21.573  0.00  0.00    +0.000 NA
ATOM     18  N   UNL     1       0.473   9.525  20.780  0.00  0.00    +0.000 N 
ATOM     19  C   UNL     1       0.933   9.400  19.489  0.00  0.00    +0.000 A 
BRANCH  18  20
ATOM     20  C   UNL     1      -0.398  10.527  21.292  0.00  0.00    +0.000 A 
ATOM     21  C   UNL     1      -0.706  10.568  22.660  0.00  0.00    +0.000 A 
ATOM     22  C   UNL     1      -1.545  11.577  23.156  0.00  0.00    +0.000 A 
ATOM     23  C   UNL     1      -2.092  12.545  22.303  0.00  0.00    +0.000 A 
ATOM     24  C   UNL     1      -1.799  12.473  20.936  0.00  0.00    +0.000 A 
ATOM     25  C   UNL     1      -0.960  11.481  20.434  0.00  0.00    +0.000 A 
BRANCH  23  26
ATOM     26  C   UNL     1      -2.959  13.664  22.856  0.00  0.00    +0.000 C 
ATOM     27  C   UNL     1      -2.255  14.378  24.015  0.00  0.00    +0.000 C 
ATOM     28  C   UNL     1      -3.361  14.667  21.770  0.00  0.00    +0.000 C 
ENDBRANCH  23  26
ENDBRANCH  18  20
ENDBRANCH   1  15
TORSDOF 7
ENDMDL
MODEL 5
REMARK VINA RESULT:      -7.4      0.758      1.199
REMARK  Name = 
REMARK  12 active torsions:
REMARK  status: ('A' for Active; 'I' for Inactive)
REMARK    1  A    between atoms: C_1  and  O_2
REMARK    2  A    between atoms: O_2  and  C_3
REMARK    3  A    between atoms: C_5  and  C_6
REMARK    4  A    between atoms: C_6  and  C_8
REMARK    5  A    between atoms: N_11  and  C_12
REMARK    6  A    between atoms: C_15  and  C_16
REMARK    7  A    between atoms: C_16  and  C_17
REMARK    8  A    between atoms: C_16  and  C_18
REMARK    9  A    between atoms: C_23  and  O_24
REMARK   10  A    between atoms: O_24  and  C_25
REMARK   11  A    between atoms: C_26  and  O_27
REMARK   12  A    between atoms: O_27  and  C_28
REMARK                            x       y       z     vdW  Elec       q    Type
REMARK                         _______ _______ _______ _____ _____    ______ ____
ROOT
ATOM      1  C   UNL     1       6.377   6.289  16.708  0.00  0.00    +0.000 C 
ATOM      2  O   UNL     1       6.678   5.937  15.574  0.00  0.00    +0.000 OA
ENDROOT
BRANCH   1   5
ATOM      3  C   UNL     1       3.730   4.071  18.235  0.00  0.00    +0.000 A 
ATOM      4  C   UNL     1       4.858   4.486  17.523  0.00  0.00    +0.000 A 
ATOM      5  C   UNL     1       5.096   5.837  17.295  0.00  0.00    +0.000 A 
ATOM      6  C   UNL     1       4.118   6.768  17.624  0.00  0.00    +0.000 A 
ATOM      7  C   UNL     1       2.926   6.365  18.246  0.00  0.00    +0.000 A 
ATOM      8  C   UNL     1       2.725   5.004  18.579  0.00  0.00    +0.000 A 
BRANCH   3  10
ATOM      9  C   UNL     1       2.823   1.955  17.648  0.00  0.00    +0.000 C 
ATOM     10  O   UNL     1       3.592   2.745  18.561  0.00  0.00    +0.000 OA
ENDBRANCH   3  10
BRANCH   7  11
ATOM     11  O   UNL     1       2.101   7.439  18.474  0.00  0.00    +0.000 OA
ATOM     12  C   UNL     1       2.330   8.661  17.791  0.00  0.00    +0.000 C 
ENDBRANCH   7  11
BRANCH   8  13
ATOM     13  O   UNL     1       1.547   4.705  19.208  0.00  0.00    +0.000 OA
ATOM     14  C   UNL     1       1.467   4.682  20.623  0.00  0.00    +0.000 C 
ENDBRANCH   8  13
ENDBRANCH   1   5
BRANCH   1  15
ATOM     15  C   UNL     1       7.253   7.135  17.509  0.00  0.00    +0.000 A 
ATOM     16  C   UNL     1       8.056   6.858  18.638  0.00  0.00    +0.000 A 
ATOM     17  N   UNL     1       8.757   7.916  19.052  0.00  0.00    +0.000 NA
ATOM     18  N   UNL     1       8.359   8.929  18.236  0.00  0.00    +0.000 N 
ATOM     19  C   UNL     1       7.463   8.479  17.293  0.00  0.00    +0.000 A 
BRANCH  18  20
ATOM     20  C   UNL     1       8.854  10.253  18.391  0.00  0.00    +0.000 A 
ATOM     21  C   UNL     1       9.886  10.523  19.302  0.00  0.00    +0.000 A 
ATOM     22  C   UNL     1      10.384  11.829  19.427  0.00  0.00    +0.000 A 
ATOM     23  C   UNL     1       9.860  12.877  18.658  0.00  0.00    +0.000 A 
ATOM     24  C   UNL     1       8.810  12.598  17.775  0.00  0.00    +0.000 A 
ATOM     25  C   UNL     1       8.314  11.303  17.637  0.00  0.00    +0.000 A 
BRANCH  23  26
ATOM     26  C   UNL     1      10.438  14.278  18.762  0.00  0.00    +0.000 C 
ATOM     27  C   UNL     1       9.349  15.336  18.552  0.00  0.00    +0.000 C 
ATOM     28  C   UNL     1      11.158  14.504  20.095  0.00  0.00    +0.000 C 
ENDBRANCH  23  26
ENDBRANCH  18  20
ENDBRANCH   1  15
TORSDOF 7
ENDMDL
MODEL 6
REMARK VINA RESULT:      -7.3      4.951      8.021
REMARK  Name = 
REMARK  12 active torsions:
REMARK  status: ('A' for Active; 'I' for Inactive)
REMARK    1  A    between atoms: C_1  and  O_2
REMARK    2  A    between atoms: O_2  and  C_3
REMARK    3  A    between atoms: C_5  and  C_6
REMARK    4  A    between atoms: C_6  and  C_8
REMARK    5  A    between atoms: N_11  and  C_12
REMARK    6  A    between atoms: C_15  and  C_16
REMARK    7  A    between atoms: C_16  and  C_17
REMARK    8  A    between atoms: C_16  and  C_18
REMARK    9  A    between atoms: C_23  and  O_24
REMARK   10  A    between atoms: O_24  and  C_25
REMARK   11  A    between atoms: C_26  and  O_27
REMARK   12  A    between atoms: O_27  and  C_28
REMARK                            x       y       z     vdW  Elec       q    Type
REMARK                         _______ _______ _______ _____ _____    ______ ____
ROOT
ATOM      1  C   UNL     1       2.505   7.831  18.221  0.00  0.00    +0.000 C 
ATOM      2  O   UNL     1       2.827   8.587  17.314  0.00  0.00    +0.000 OA
ENDROOT
BRANCH   1   5
ATOM      3  C   UNL     1       2.179   4.087  17.847  0.00  0.00    +0.000 A 
ATOM      4  C   UNL     1       1.861   5.424  18.106  0.00  0.00    +0.000 A 
ATOM      5  C   UNL     1       2.856   6.396  18.133  0.00  0.00    +0.000 A 
ATOM      6  C   UNL     1       4.190   6.011  18.079  0.00  0.00    +0.000 A 
ATOM      7  C   UNL     1       4.539   4.659  17.926  0.00  0.00    +0.000 A 
ATOM      8  C   UNL     1       3.529   3.677  17.787  0.00  0.00    +0.000 A 
BRANCH   3  10
ATOM      9  C   UNL     1       0.593   2.666  18.901  0.00  0.00    +0.000 C 
ATOM     10  O   UNL     1       1.165   3.175  17.692  0.00  0.00    +0.000 OA
ENDBRANCH   3  10
BRANCH   7  11
ATOM     11  O   UNL     1       5.903   4.503  17.903  0.00  0.00    +0.000 OA
ATOM     12  C   UNL     1       6.729   5.406  18.623  0.00  0.00    +0.000 C 
ENDBRANCH   7  11
BRANCH   8  13
ATOM     13  O   UNL     1       3.961   2.390  17.615  0.00  0.00    +0.000 OA
ATOM     14  C   UNL     1       3.938   1.468  18.691  0.00  0.00    +0.000 C 
ENDBRANCH   8  13
ENDBRANCH   1   5
BRANCH   1  15
ATOM     15  C   UNL     1       1.792   8.304  19.401  0.00  0.00    +0.000 A 
ATOM     16  C   UNL     1       1.760   7.837  20.734  0.00  0.00    +0.000 A 
ATOM     17  N   UNL     1       1.007   8.593  21.535  0.00  0.00    +0.000 NA
ATOM     18  N   UNL     1       0.468   9.532  20.710  0.00  0.00    +0.000 N 
ATOM     19  C   UNL     1       0.936   9.383  19.424  0.00  0.00    +0.000 A 
BRANCH  18  20
ATOM     20  C   UNL     1      -0.444  10.513  21.187  0.00  0.00    +0.000 A 
ATOM     21  C   UNL     1      -1.071  11.394  20.293  0.00  0.00    +0.000 A 
ATOM     22  C   UNL     1      -1.988  12.340  20.773  0.00  0.00    +0.000 A 
ATOM     23  C   UNL     1      -2.286  12.427  22.140  0.00  0.00    +0.000 A 
ATOM     24  C   UNL     1      -1.629  11.562  23.023  0.00  0.00    +0.000 A 
ATOM     25  C   UNL     1      -0.723  10.612  22.556  0.00  0.00    +0.000 A 
BRANCH  23  26
ATOM     26  C   UNL     1      -3.318  13.421  22.647  0.00  0.00    +0.000 C 
ATOM     27  C   UNL     1      -4.702  13.114  22.065  0.00  0.00    +0.000 C 
ATOM     28  C   UNL     1      -3.374  13.460  24.177  0.00  0.00    +0.000 C 
ENDBRANCH  23  26
ENDBRANCH  18  20
ENDBRANCH   1  15
TORSDOF 7
ENDMDL
MODEL 7
REMARK VINA RESULT:      -7.3      0.818      2.724
REMARK  Name = 
REMARK  12 active torsions:
REMARK  status: ('A' for Active; 'I' for Inactive)
REMARK    1  A    between atoms: C_1  and  O_2
REMARK    2  A    between atoms: O_2  and  C_3
REMARK    3  A    between atoms: C_5  and  C_6
REMARK    4  A    between atoms: C_6  and  C_8
REMARK    5  A    between atoms: N_11  and  C_12
REMARK    6  A    between atoms: C_15  and  C_16
REMARK    7  A    between atoms: C_16  and  C_17
REMARK    8  A    between atoms: C_16  and  C_18
REMARK    9  A    between atoms: C_23  and  O_24
REMARK   10  A    between atoms: O_24  and  C_25
REMARK   11  A    between atoms: C_26  and  O_27
REMARK   12  A    between atoms: O_27  and  C_28
REMARK                            x       y       z     vdW  Elec       q    Type
REMARK                         _______ _______ _______ _____ _____    ______ ____
ROOT
ATOM      1  C   UNL     1       6.298   6.415  16.810  0.00  0.00    +0.000 C 
ATOM      2  O   UNL     1       6.530   6.076  15.657  0.00  0.00    +0.000 OA
ENDROOT
BRANCH   1   5
ATOM      3  C   UNL     1       2.772   6.426  18.162  0.00  0.00    +0.000 A 
ATOM      4  C   UNL     1       4.017   6.873  17.709  0.00  0.00    +0.000 A 
ATOM      5  C   UNL     1       5.046   5.971  17.463  0.00  0.00    +0.000 A 
ATOM      6  C   UNL     1       4.894   4.641  17.836  0.00  0.00    +0.000 A 
ATOM      7  C   UNL     1       3.688   4.187  18.393  0.00  0.00    +0.000 A 
ATOM      8  C   UNL     1       2.598   5.078  18.545  0.00  0.00    +0.000 A 
BRANCH   3  10
ATOM      9  C   UNL     1       2.005   8.644  17.791  0.00  0.00    +0.000 C 
ATOM     10  O   UNL     1       1.736   7.320  18.265  0.00  0.00    +0.000 OA
ENDBRANCH   3  10
BRANCH   7  11
ATOM     11  O   UNL     1       3.757   2.849  18.694  0.00  0.00    +0.000 OA
ATOM     12  C   UNL     1       3.104   1.904  17.860  0.00  0.00    +0.000 C 
ENDBRANCH   7  11
BRANCH   8  13
ATOM     13  O   UNL     1       1.453   4.543  19.070  0.00  0.00    +0.000 OA
ATOM     14  C   UNL     1       1.232   4.538  20.470  0.00  0.00    +0.000 C 
ENDBRANCH   8  13
ENDBRANCH   1   5
BRANCH   1  15
ATOM     15  C   UNL     1       7.229   7.238  17.572  0.00  0.00    +0.000 A 
ATOM     16  C   UNL     1       8.104   6.930  18.638  0.00  0.00    +0.000 A 
ATOM     17  N   UNL     1       8.836   7.975  19.031  0.00  0.00    +0.000 NA
ATOM     18  N   UNL     1       8.388   9.010  18.270  0.00  0.00    +0.000 N 
ATOM     19  C   UNL     1       7.430   8.586  17.378  0.00  0.00    +0.000 A 
BRANCH  18  20
ATOM     20  C   UNL     1       8.899  10.328  18.425  0.00  0.00    +0.000 A 
ATOM     21  C   UNL     1       9.904  10.595  19.366  0.00  0.00    +0.000 A 
ATOM     22  C   UNL     1      10.417  11.894  19.492  0.00  0.00    +0.000 A 
ATOM     23  C   UNL     1       9.935  12.940  18.693  0.00  0.00    +0.000 A 
ATOM     24  C   UNL     1       8.911  12.665  17.779  0.00  0.00    +0.000 A 
ATOM     25  C   UNL     1       8.400  11.377  17.640  0.00  0.00    +0.000 A 
BRANCH  23  26
ATOM     26  C   UNL     1      10.531  14.334  18.799  0.00  0.00    +0.000 C 
ATOM     27  C   UNL     1      11.806  14.319  19.650  0.00  0.00    +0.000 C 
ATOM     28  C   UNL     1      10.810  14.944  17.422  0.00  0.00    +0.000 C 
ENDBRANCH  23  26
ENDBRANCH  18  20
ENDBRANCH   1  15
TORSDOF 7
ENDMDL
MODEL 8
REMARK VINA RESULT:      -7.2      4.023      6.889
REMARK  Name = 
REMARK  12 active torsions:
REMARK  status: ('A' for Active; 'I' for Inactive)
REMARK    1  A    between atoms: C_1  and  O_2
REMARK    2  A    between atoms: O_2  and  C_3
REMARK    3  A    between atoms: C_5  and  C_6
REMARK    4  A    between atoms: C_6  and  C_8
REMARK    5  A    between atoms: N_11  and  C_12
REMARK    6  A    between atoms: C_15  and  C_16
REMARK    7  A    between atoms: C_16  and  C_17
REMARK    8  A    between atoms: C_16  and  C_18
REMARK    9  A    between atoms: C_23  and  O_24
REMARK   10  A    between atoms: O_24  and  C_25
REMARK   11  A    between atoms: C_26  and  O_27
REMARK   12  A    between atoms: O_27  and  C_28
REMARK                            x       y       z     vdW  Elec       q    Type
REMARK                         _______ _______ _______ _____ _____    ______ ____
ROOT
ATOM      1  C   UNL     1       4.174   3.589  17.438  0.00  0.00    +0.000 C 
ATOM      2  O   UNL     1       3.801   2.423  17.404  0.00  0.00    +0.000 OA
ENDROOT
BRANCH   1   5
ATOM      3  C   UNL     1       6.274   3.966  14.323  0.00  0.00    +0.000 A 
ATOM      4  C   UNL     1       5.399   3.430  15.271  0.00  0.00    +0.000 A 
ATOM      5  C   UNL     1       5.231   4.044  16.508  0.00  0.00    +0.000 A 
ATOM      6  C   UNL     1       6.067   5.094  16.870  0.00  0.00    +0.000 A 
ATOM      7  C   UNL     1       7.029   5.584  15.972  0.00  0.00    +0.000 A 
ATOM      8  C   UNL     1       7.131   5.035  14.672  0.00  0.00    +0.000 A 
BRANCH   3  10
ATOM      9  C   UNL     1       5.068   3.355  12.369  0.00  0.00    +0.000 C 
ATOM     10  O   UNL     1       6.317   3.419  13.065  0.00  0.00    +0.000 OA
ENDBRANCH   3  10
BRANCH   7  11
ATOM     11  O   UNL     1       7.747   6.612  16.533  0.00  0.00    +0.000 OA
ATOM     12  C   UNL     1       7.342   7.157  17.779  0.00  0.00    +0.000 C 
ENDBRANCH   7  11
BRANCH   8  13
ATOM     13  O   UNL     1       8.077   5.592  13.855  0.00  0.00    +0.000 OA
ATOM     14  C   UNL     1       7.925   5.564  12.446  0.00  0.00    +0.000 C 
ENDBRANCH   8  13
ENDBRANCH   1   5
BRANCH   1  15
ATOM     15  C   UNL     1       3.596   4.554  18.365  0.00  0.00    +0.000 A 
ATOM     16  C   UNL     1       3.403   4.518  19.764  0.00  0.00    +0.000 A 
ATOM     17  N   UNL     1       2.874   5.645  20.248  0.00  0.00    +0.000 NA
ATOM     18  N   UNL     1       2.641   6.411  19.147  0.00  0.00    +0.000 N 
ATOM     19  C   UNL     1       3.078   5.778  18.006  0.00  0.00    +0.000 A 
BRANCH  18  20
ATOM     20  C   UNL     1       2.031   7.692  19.243  0.00  0.00    +0.000 A 
ATOM     21  C   UNL     1       1.950   8.526  18.118  0.00  0.00    +0.000 A 
ATOM     22  C   UNL     1       1.322   9.776  18.219  0.00  0.00    +0.000 A 
ATOM     23  C   UNL     1       0.779  10.214  19.435  0.00  0.00    +0.000 A 
ATOM     24  C   UNL     1       0.895   9.384  20.556  0.00  0.00    +0.000 A 
ATOM     25  C   UNL     1       1.508   8.137  20.465  0.00  0.00    +0.000 A 
BRANCH  23  26
ATOM     26  C   UNL     1       0.057  11.548  19.524  0.00  0.00    +0.000 C 
ATOM     27  C   UNL     1       1.055  12.711  19.518  0.00  0.00    +0.000 C 
ATOM     28  C   UNL     1      -0.975  11.718  18.405  0.00  0.00    +0.000 C 
ENDBRANCH  23  26
ENDBRANCH  18  20
ENDBRANCH   1  15
TORSDOF 7
ENDMDL
MODEL 9
REMARK VINA RESULT:      -7.2      6.187      9.373
REMARK  Name = 
REMARK  12 active torsions:
REMARK  status: ('A' for Active; 'I' for Inactive)
REMARK    1  A    between atoms: C_1  and  O_2
REMARK    2  A    between atoms: O_2  and  C_3
REMARK    3  A    between atoms: C_5  and  C_6
REMARK    4  A    between atoms: C_6  and  C_8
REMARK    5  A    between atoms: N_11  and  C_12
REMARK    6  A    between atoms: C_15  and  C_16
REMARK    7  A    between atoms: C_16  and  C_17
REMARK    8  A    between atoms: C_16  and  C_18
REMARK    9  A    between atoms: C_23  and  O_24
REMARK   10  A    between atoms: O_24  and  C_25
REMARK   11  A    between atoms: C_26  and  O_27
REMARK   12  A    between atoms: O_27  and  C_28
REMARK                            x       y       z     vdW  Elec       q    Type
REMARK                         _______ _______ _______ _____ _____    ______ ____
ROOT
ATOM      1  C   UNL     1      -0.133  11.800  18.978  0.00  0.00    +0.000 C 
ATOM      2  O   UNL     1       0.519  12.826  18.839  0.00  0.00    +0.000 OA
ENDROOT
BRANCH   1   5
ATOM      3  C   UNL     1      -3.438  11.088  17.295  0.00  0.00    +0.000 A 
ATOM      4  C   UNL     1      -2.064  11.238  17.502  0.00  0.00    +0.000 A 
ATOM      5  C   UNL     1      -1.582  11.809  18.675  0.00  0.00    +0.000 A 
ATOM      6  C   UNL     1      -2.472  12.393  19.568  0.00  0.00    +0.000 A 
ATOM      7  C   UNL     1      -3.856  12.349  19.330  0.00  0.00    +0.000 A 
ATOM      8  C   UNL     1      -4.359  11.674  18.192  0.00  0.00    +0.000 A 
BRANCH   3  10
ATOM      9  C   UNL     1      -3.005  10.414  15.058  0.00  0.00    +0.000 C 
ATOM     10  O   UNL     1      -3.879  10.401  16.192  0.00  0.00    +0.000 OA
ENDBRANCH   3  10
BRANCH   7  11
ATOM     11  O   UNL     1      -4.547  12.990  20.328  0.00  0.00    +0.000 OA
ATOM     12  C   UNL     1      -4.336  12.620  21.682  0.00  0.00    +0.000 C 
ENDBRANCH   7  11
BRANCH   8  13
ATOM     13  O   UNL     1      -5.720  11.658  18.055  0.00  0.00    +0.000 OA
ATOM     14  C   UNL     1      -6.382  12.649  17.287  0.00  0.00    +0.000 C 
ENDBRANCH   8  13
ENDBRANCH   1   5
BRANCH   1  15
ATOM     15  C   UNL     1       0.479  10.554  19.424  0.00  0.00    +0.000 A 
ATOM     16  C   UNL     1       0.520   9.924  20.688  0.00  0.00    +0.000 A 
ATOM     17  N   UNL     1       1.153   8.748  20.665  0.00  0.00    +0.000 NA
ATOM     18  N   UNL     1       1.605   8.630  19.387  0.00  0.00    +0.000 N 
ATOM     19  C   UNL     1       1.201   9.700  18.621  0.00  0.00    +0.000 A 
BRANCH  18  20
ATOM     20  C   UNL     1       2.380   7.514  18.968  0.00  0.00    +0.000 A 
ATOM     21  C   UNL     1       2.356   6.318  19.700  0.00  0.00    +0.000 A 
ATOM     22  C   UNL     1       3.104   5.215  19.262  0.00  0.00    +0.000 A 
ATOM     23  C   UNL     1       3.888   5.290  18.103  0.00  0.00    +0.000 A 
ATOM     24  C   UNL     1       3.926   6.500  17.399  0.00  0.00    +0.000 A 
ATOM     25  C   UNL     1       3.180   7.598  17.820  0.00  0.00    +0.000 A 
BRANCH  23  26
ATOM     26  C   UNL     1       4.656   4.076  17.606  0.00  0.00    +0.000 C 
ATOM     27  C   UNL     1       3.787   2.816  17.673  0.00  0.00    +0.000 C 
ATOM     28  C   UNL     1       5.200   4.282  16.189  0.00  0.00    +0.000 C 
ENDBRANCH  23  26
ENDBRANCH  18  20
ENDBRANCH   1  15
TORSDOF 7
ENDMDL
