MODEL 1
REMARK VINA RESULT:      -7.2      0.000      0.000
REMARK  Name = 
REMARK  5 active torsions:
REMARK  status: ('A' for Active; 'I' for Inactive)
REMARK    1  A    between atoms: C_1  and  C_2
REMARK    2  A    between atoms: C_2  and  N_3
REMARK    3  A    between atoms: N_9  and  C_10
REMARK    4  A    between atoms: N_13  and  C_14
REMARK    5  A    between atoms: C_14  and  C_15
REMARK                            x       y       z     vdW  Elec       q    Type
REMARK                         _______ _______ _______ _____ _____    ______ ____
ROOT
ATOM      1  N   UNL     1       7.719   6.955  16.450  0.00  0.00    +0.000 N 
ATOM      2  C   UNL     1       6.997   5.769  16.184  0.00  0.00    +0.000 A 
ATOM      3  C   UNL     1       7.121   5.221  14.924  0.00  0.00    +0.000 A 
ATOM      4  C   UNL     1       6.414   4.070  14.692  0.00  0.00    +0.000 A 
ATOM      5  N   UNL     1       5.616   3.498  15.604  0.00  0.00    +0.000 NA
ATOM      6  C   UNL     1       5.497   4.119  16.784  0.00  0.00    +0.000 A 
ATOM      7  N   UNL     1       4.664   3.597  17.758  0.00  0.00    +0.000 N 
ATOM      8  N   UNL     1       6.162   5.241  17.102  0.00  0.00    +0.000 NA
ATOM      9  H   UNL     1       8.617   6.917  15.978  0.00  0.00    +0.000 HD
ATOM     10  H   UNL     1       4.394   4.306  18.424  0.00  0.00    +0.000 HD
ENDROOT
BRANCH   7  11
ATOM     11  C   UNL     1       3.768   2.493  17.429  0.00  0.00    +0.000 C 
ATOM     12  C   UNL     1       2.363   2.974  17.060  0.00  0.00    +0.000 C 
ATOM     13  C   UNL     1       1.535   3.450  18.258  0.00  0.00    +0.000 C 
ATOM     14  N   UNL     1       1.496   2.484  19.370  0.00  0.00    +0.000 NA
ATOM     15  C   UNL     1       2.871   2.099  19.765  0.00  0.00    +0.000 C 
ATOM     16  C   UNL     1       3.685   1.523  18.607  0.00  0.00    +0.000 C 
BRANCH  14  17
ATOM     17  C   UNL     1       0.838   3.100  20.564  0.00  0.00    +0.000 C 
BRANCH  17  18
ATOM     18  C   UNL     1       1.830   3.810  21.488  0.00  0.00    +0.000 C 
ATOM     19  N   UNL     1       2.056   5.125  21.201  0.00  0.00    +0.000 N 
ATOM     20  O   UNL     1       2.352   3.273  22.461  0.00  0.00    +0.000 OA
ATOM     21  H   UNL     1       1.812   5.454  20.274  0.00  0.00    +0.000 HD
ATOM     22  H   UNL     1       2.773   5.607  21.729  0.00  0.00    +0.000 HD
ENDBRANCH  17  18
ENDBRANCH  14  17
ENDBRANCH   7  11
BRANCH   1  24
ATOM     23  C   UNL     1       8.180   8.712  18.067  0.00  0.00    +0.000 C 
ATOM     24  C   UNL     1       7.891   7.231  17.875  0.00  0.00    +0.000 C 
ENDBRANCH   1  24
TORSDOF 4
ENDMDL
MODEL 2
REMARK VINA RESULT:      -6.9      2.495      4.365
REMARK  Name = 
REMARK  5 active torsions:
REMARK  status: ('A' for Active; 'I' for Inactive)
REMARK    1  A    between atoms: C_1  and  C_2
REMARK    2  A    between atoms: C_2  and  N_3
REMARK    3  A    between atoms: N_9  and  C_10
REMARK    4  A    between atoms: N_13  and  C_14
REMARK    5  A    between atoms: C_14  and  C_15
REMARK                            x       y       z     vdW  Elec       q    Type
REMARK                         _______ _______ _______ _____ _____    ______ ____
ROOT
ATOM      1  N   UNL     1       5.543   3.139  11.480  0.00  0.00    +0.000 N 
ATOM      2  C   UNL     1       5.992   3.845  12.620  0.00  0.00    +0.000 A 
ATOM      3  C   UNL     1       7.245   4.419  12.555  0.00  0.00    +0.000 A 
ATOM      4  C   UNL     1       7.656   5.101  13.671  0.00  0.00    +0.000 A 
ATOM      5  N   UNL     1       6.923   5.197  14.789  0.00  0.00    +0.000 NA
ATOM      6  C   UNL     1       5.744   4.563  14.801  0.00  0.00    +0.000 A 
ATOM      7  N   UNL     1       4.953   4.597  15.936  0.00  0.00    +0.000 N 
ATOM      8  N   UNL     1       5.257   3.885  13.749  0.00  0.00    +0.000 NA
ATOM      9  H   UNL     1       5.861   3.614  10.641  0.00  0.00    +0.000 HD
ATOM     10  H   UNL     1       4.300   3.827  15.947  0.00  0.00    +0.000 HD
ENDROOT
BRANCH   7  11
ATOM     11  C   UNL     1       5.489   5.149  17.176  0.00  0.00    +0.000 C 
ATOM     12  C   UNL     1       5.374   4.170  18.346  0.00  0.00    +0.000 C 
ATOM     13  C   UNL     1       3.950   4.013  18.887  0.00  0.00    +0.000 C 
ATOM     14  N   UNL     1       3.291   5.295  19.194  0.00  0.00    +0.000 NA
ATOM     15  C   UNL     1       3.341   6.193  18.018  0.00  0.00    +0.000 C 
ATOM     16  C   UNL     1       4.762   6.449  17.522  0.00  0.00    +0.000 C 
BRANCH  14  17
ATOM     17  C   UNL     1       1.850   5.066  19.529  0.00  0.00    +0.000 C 
BRANCH  17  18
ATOM     18  C   UNL     1       1.658   4.064  20.670  0.00  0.00    +0.000 C 
ATOM     19  N   UNL     1       0.738   3.084  20.436  0.00  0.00    +0.000 N 
ATOM     20  O   UNL     1       2.316   4.085  21.706  0.00  0.00    +0.000 OA
ATOM     21  H   UNL     1       0.058   3.240  19.701  0.00  0.00    +0.000 HD
ATOM     22  H   UNL     1       0.513   2.456  21.198  0.00  0.00    +0.000 HD
ENDBRANCH  17  18
ENDBRANCH  14  17
ENDBRANCH   7  11
BRANCH   1  24
ATOM     23  C   UNL     1       3.505   3.752  10.302  0.00  0.00    +0.000 C 
ATOM     24  C   UNL     1       4.095   2.940  11.446  0.00  0.00    +0.000 C 
ENDBRANCH   1  24
TORSDOF 4
ENDMDL
MODEL 3
REMARK VINA RESULT:      -6.9      2.249      4.254
REMARK  Name = 
REMARK  5 active torsions:
REMARK  status: ('A' for Active; 'I' for Inactive)
REMARK    1  A    between atoms: C_1  and  C_2
REMARK    2  A    between atoms: C_2  and  N_3
REMARK    3  A    between atoms: N_9  and  C_10
REMARK    4  A    between atoms: N_13  and  C_14
REMARK    5  A    between atoms: C_14  and  C_15
REMARK                            x       y       z     vdW  Elec       q    Type
REMARK                         _______ _______ _______ _____ _____    ______ ____
ROOT
ATOM      1  N   UNL     1       6.851   2.830  11.764  0.00  0.00    +0.000 N 
ATOM      2  C   UNL     1       6.774   3.763  12.824  0.00  0.00    +0.000 A 
ATOM      3  C   UNL     1       7.678   4.805  12.816  0.00  0.00    +0.000 A 
ATOM      4  C   UNL     1       7.581   5.698  13.852  0.00  0.00    +0.000 A 
ATOM      5  N   UNL     1       6.692   5.578  14.848  0.00  0.00    +0.000 NA
ATOM      6  C   UNL     1       5.888   4.508  14.822  0.00  0.00    +0.000 A 
ATOM      7  N   UNL     1       4.970   4.310  15.838  0.00  0.00    +0.000 N 
ATOM      8  N   UNL     1       5.904   3.593  13.840  0.00  0.00    +0.000 NA
ATOM      9  H   UNL     1       7.088   3.314  10.904  0.00  0.00    +0.000 HD
ATOM     10  H   UNL     1       4.693   3.341  15.894  0.00  0.00    +0.000 HD
ENDROOT
BRANCH   7  11
ATOM     11  C   UNL     1       5.016   5.151  17.030  0.00  0.00    +0.000 C 
ATOM     12  C   UNL     1       5.751   4.475  18.190  0.00  0.00    +0.000 C 
ATOM     13  C   UNL     1       4.953   3.353  18.862  0.00  0.00    +0.000 C 
ATOM     14  N   UNL     1       3.588   3.751  19.251  0.00  0.00    +0.000 NA
ATOM     15  C   UNL     1       2.869   4.324  18.090  0.00  0.00    +0.000 C 
ATOM     16  C   UNL     1       3.596   5.513  17.465  0.00  0.00    +0.000 C 
BRANCH  14  17
ATOM     17  C   UNL     1       2.817   2.557  19.717  0.00  0.00    +0.000 C 
BRANCH  17  18
ATOM     18  C   UNL     1       2.038   2.821  21.008  0.00  0.00    +0.000 C 
ATOM     19  N   UNL     1       0.713   3.106  20.841  0.00  0.00    +0.000 N 
ATOM     20  O   UNL     1       2.532   2.730  22.127  0.00  0.00    +0.000 OA
ATOM     21  H   UNL     1       0.408   3.410  19.924  0.00  0.00    +0.000 HD
ATOM     22  H   UNL     1       0.183   3.377  21.659  0.00  0.00    +0.000 HD
ENDBRANCH  17  18
ENDBRANCH  14  17
ENDBRANCH   7  11
BRANCH   1  24
ATOM     23  C   UNL     1       6.014   0.646  11.096  0.00  0.00    +0.000 C 
ATOM     24  C   UNL     1       5.636   2.034  11.594  0.00  0.00    +0.000 C 
ENDBRANCH   1  24
TORSDOF 4
ENDMDL
MODEL 4
REMARK VINA RESULT:      -6.9      2.681      4.604
REMARK  Name = 
REMARK  5 active torsions:
REMARK  status: ('A' for Active; 'I' for Inactive)
REMARK    1  A    between atoms: C_1  and  C_2
REMARK    2  A    between atoms: C_2  and  N_3
REMARK    3  A    between atoms: N_9  and  C_10
REMARK    4  A    between atoms: N_13  and  C_14
REMARK    5  A    between atoms: C_14  and  C_15
REMARK                            x       y       z     vdW  Elec       q    Type
REMARK                         _______ _______ _______ _____ _____    ______ ____
ROOT
ATOM      1  N   UNL     1       5.521   3.002  11.449  0.00  0.00    +0.000 N 
ATOM      2  C   UNL     1       5.968   3.769  12.550  0.00  0.00    +0.000 A 
ATOM      3  C   UNL     1       7.237   4.303  12.475  0.00  0.00    +0.000 A 
ATOM      4  C   UNL     1       7.647   5.045  13.552  0.00  0.00    +0.000 A 
ATOM      5  N   UNL     1       6.895   5.235  14.645  0.00  0.00    +0.000 NA
ATOM      6  C   UNL     1       5.699   4.635  14.673  0.00  0.00    +0.000 A 
ATOM      7  N   UNL     1       4.887   4.766  15.787  0.00  0.00    +0.000 N 
ATOM      8  N   UNL     1       5.212   3.903  13.658  0.00  0.00    +0.000 NA
ATOM      9  H   UNL     1       5.869   3.412  10.588  0.00  0.00    +0.000 HD
ATOM     10  H   UNL     1       4.212   4.016  15.834  0.00  0.00    +0.000 HD
ENDROOT
BRANCH   7  11
ATOM     11  C   UNL     1       5.414   5.383  16.999  0.00  0.00    +0.000 C 
ATOM     12  C   UNL     1       5.760   4.351  18.074  0.00  0.00    +0.000 C 
ATOM     13  C   UNL     1       4.538   3.743  18.769  0.00  0.00    +0.000 C 
ATOM     14  N   UNL     1       3.587   4.748  19.277  0.00  0.00    +0.000 NA
ATOM     15  C   UNL     1       3.202   5.684  18.196  0.00  0.00    +0.000 C 
ATOM     16  C   UNL     1       4.401   6.382  17.556  0.00  0.00    +0.000 C 
BRANCH  14  17
ATOM     17  C   UNL     1       2.340   4.078  19.762  0.00  0.00    +0.000 C 
BRANCH  17  18
ATOM     18  C   UNL     1       1.736   3.127  18.726  0.00  0.00    +0.000 C 
ATOM     19  N   UNL     1       1.826   1.800  19.031  0.00  0.00    +0.000 N 
ATOM     20  O   UNL     1       1.154   3.509  17.715  0.00  0.00    +0.000 OA
ATOM     21  H   UNL     1       2.511   1.520  19.724  0.00  0.00    +0.000 HD
ATOM     22  H   UNL     1       1.522   1.134  18.332  0.00  0.00    +0.000 HD
ENDBRANCH  17  18
ENDBRANCH  14  17
ENDBRANCH   7  11
BRANCH   1  24
ATOM     23  C   UNL     1       3.501   3.755  10.322  0.00  0.00    +0.000 C 
ATOM     24  C   UNL     1       4.068   2.841  11.398  0.00  0.00    +0.000 C 
ENDBRANCH   1  24
TORSDOF 4
ENDMDL
MODEL 5
REMARK VINA RESULT:      -6.8      3.391      7.274
REMARK  Name = 
REMARK  5 active torsions:
REMARK  status: ('A' for Active; 'I' for Inactive)
REMARK    1  A    between atoms: C_1  and  C_2
REMARK    2  A    between atoms: C_2  and  N_3
REMARK    3  A    between atoms: N_9  and  C_10
REMARK    4  A    between atoms: N_13  and  C_14
REMARK    5  A    between atoms: C_14  and  C_15
REMARK                            x       y       z     vdW  Elec       q    Type
REMARK                         _______ _______ _______ _____ _____    ______ ____
ROOT
ATOM      1  N   UNL     1       0.729   3.885  20.262  0.00  0.00    +0.000 N 
ATOM      2  C   UNL     1       1.722   4.845  19.958  0.00  0.00    +0.000 A 
ATOM      3  C   UNL     1       1.390   6.173  20.122  0.00  0.00    +0.000 A 
ATOM      4  C   UNL     1       2.370   7.084  19.824  0.00  0.00    +0.000 A 
ATOM      5  N   UNL     1       3.583   6.739  19.368  0.00  0.00    +0.000 NA
ATOM      6  C   UNL     1       3.812   5.435  19.175  0.00  0.00    +0.000 A 
ATOM      7  N   UNL     1       5.034   5.016  18.676  0.00  0.00    +0.000 N 
ATOM      8  N   UNL     1       2.916   4.475  19.453  0.00  0.00    +0.000 NA
ATOM      9  H   UNL     1       0.191   4.198  21.064  0.00  0.00    +0.000 HD
ATOM     10  H   UNL     1       4.960   4.100  18.257  0.00  0.00    +0.000 HD
ENDROOT
BRANCH   7  11
ATOM     11  C   UNL     1       5.987   6.000  18.174  0.00  0.00    +0.000 C 
ATOM     12  C   UNL     1       5.440   6.784  16.980  0.00  0.00    +0.000 C 
ATOM     13  C   UNL     1       5.396   5.981  15.676  0.00  0.00    +0.000 C 
ATOM     14  N   UNL     1       6.672   5.323  15.346  0.00  0.00    +0.000 NA
ATOM     15  C   UNL     1       7.138   4.502  16.487  0.00  0.00    +0.000 C 
ATOM     16  C   UNL     1       7.290   5.305  17.777  0.00  0.00    +0.000 C 
BRANCH  14  17
ATOM     17  C   UNL     1       6.492   4.409  14.174  0.00  0.00    +0.000 C 
BRANCH  17  18
ATOM     18  C   UNL     1       7.378   4.787  12.986  0.00  0.00    +0.000 C 
ATOM     19  N   UNL     1       8.331   5.730  13.245  0.00  0.00    +0.000 N 
ATOM     20  O   UNL     1       7.297   4.252  11.884  0.00  0.00    +0.000 OA
ATOM     21  H   UNL     1       8.208   6.311  14.066  0.00  0.00    +0.000 HD
ATOM     22  H   UNL     1       8.877   6.075  12.466  0.00  0.00    +0.000 HD
ENDBRANCH  17  18
ENDBRANCH  14  17
ENDBRANCH   7  11
BRANCH   1  24
ATOM     23  C   UNL     1       1.734   2.422  21.925  0.00  0.00    +0.000 C 
ATOM     24  C   UNL     1       1.259   2.541  20.484  0.00  0.00    +0.000 C 
ENDBRANCH   1  24
TORSDOF 4
ENDMDL
MODEL 6
REMARK VINA RESULT:      -6.6      4.218      5.969
REMARK  Name = 
REMARK  5 active torsions:
REMARK  status: ('A' for Active; 'I' for Inactive)
REMARK    1  A    between atoms: C_1  and  C_2
REMARK    2  A    between atoms: C_2  and  N_3
REMARK    3  A    between atoms: N_9  and  C_10
REMARK    4  A    between atoms: N_13  and  C_14
REMARK    5  A    between atoms: C_14  and  C_15
REMARK                            x       y       z     vdW  Elec       q    Type
REMARK                         _______ _______ _______ _____ _____    ______ ____
ROOT
ATOM      1  N   UNL     1      -0.278  10.216  20.902  0.00  0.00    +0.000 N 
ATOM      2  C   UNL     1       0.624   9.663  19.964  0.00  0.00    +0.000 A 
ATOM      3  C   UNL     1       0.749  10.308  18.751  0.00  0.00    +0.000 A 
ATOM      4  C   UNL     1       1.632   9.756  17.860  0.00  0.00    +0.000 A 
ATOM      5  N   UNL     1       2.328   8.637  18.108  0.00  0.00    +0.000 NA
ATOM      6  C   UNL     1       2.108   8.031  19.282  0.00  0.00    +0.000 A 
ATOM      7  N   UNL     1       2.771   6.855  19.586  0.00  0.00    +0.000 N 
ATOM      8  N   UNL     1       1.274   8.510  20.218  0.00  0.00    +0.000 NA
ATOM      9  H   UNL     1      -0.247  11.229  20.845  0.00  0.00    +0.000 HD
ATOM     10  H   UNL     1       2.280   6.335  20.298  0.00  0.00    +0.000 HD
ENDROOT
BRANCH   7  11
ATOM     11  C   UNL     1       3.547   6.173  18.555  0.00  0.00    +0.000 C 
ATOM     12  C   UNL     1       2.671   5.315  17.640  0.00  0.00    +0.000 C 
ATOM     13  C   UNL     1       2.172   4.022  18.292  0.00  0.00    +0.000 C 
ATOM     14  N   UNL     1       3.243   3.223  18.914  0.00  0.00    +0.000 NA
ATOM     15  C   UNL     1       4.023   4.055  19.859  0.00  0.00    +0.000 C 
ATOM     16  C   UNL     1       4.620   5.300  19.206  0.00  0.00    +0.000 C 
BRANCH  14  17
ATOM     17  C   UNL     1       2.654   2.087  19.690  0.00  0.00    +0.000 C 
BRANCH  17  18
ATOM     18  C   UNL     1       2.049   2.531  21.024  0.00  0.00    +0.000 C 
ATOM     19  N   UNL     1       0.747   2.935  20.968  0.00  0.00    +0.000 N 
ATOM     20  O   UNL     1       2.654   2.479  22.091  0.00  0.00    +0.000 OA
ATOM     21  H   UNL     1       0.371   3.195  20.064  0.00  0.00    +0.000 HD
ATOM     22  H   UNL     1       0.337   3.322  21.809  0.00  0.00    +0.000 HD
ENDBRANCH  17  18
ENDBRANCH  14  17
ENDBRANCH   7  11
BRANCH   1  24
ATOM     23  C   UNL     1      -1.019  10.478  23.204  0.00  0.00    +0.000 C 
ATOM     24  C   UNL     1      -0.048   9.765  22.273  0.00  0.00    +0.000 C 
ENDBRANCH   1  24
TORSDOF 4
ENDMDL
MODEL 7
REMARK VINA RESULT:      -6.6      2.765      4.898
REMARK  Name = 
REMARK  5 active torsions:
REMARK  status: ('A' for Active; 'I' for Inactive)
REMARK    1  A    between atoms: C_1  and  C_2
REMARK    2  A    between atoms: C_2  and  N_3
REMARK    3  A    between atoms: N_9  and  C_10
REMARK    4  A    between atoms: N_13  and  C_14
REMARK    5  A    between atoms: C_14  and  C_15
REMARK                            x       y       z     vdW  Elec       q    Type
REMARK                         _______ _______ _______ _____ _____    ______ ____
ROOT
ATOM      1  N   UNL     1       5.587   2.911  11.407  0.00  0.00    +0.000 N 
ATOM      2  C   UNL     1       6.131   3.786  12.376  0.00  0.00    +0.000 A 
ATOM      3  C   UNL     1       7.415   4.244  12.165  0.00  0.00    +0.000 A 
ATOM      4  C   UNL     1       7.919   5.093  13.115  0.00  0.00    +0.000 A 
ATOM      5  N   UNL     1       7.242   5.455  14.215  0.00  0.00    +0.000 NA
ATOM      6  C   UNL     1       6.025   4.922  14.383  0.00  0.00    +0.000 A 
ATOM      7  N   UNL     1       5.288   5.230  15.513  0.00  0.00    +0.000 N 
ATOM      8  N   UNL     1       5.449   4.095  13.497  0.00  0.00    +0.000 NA
ATOM      9  H   UNL     1       5.900   3.193  10.483  0.00  0.00    +0.000 HD
ATOM     10  H   UNL     1       4.586   4.527  15.692  0.00  0.00    +0.000 HD
ENDROOT
BRANCH   7  11
ATOM     11  C   UNL     1       5.912   5.968  16.607  0.00  0.00    +0.000 C 
ATOM     12  C   UNL     1       6.694   5.053  17.552  0.00  0.00    +0.000 C 
ATOM     13  C   UNL     1       5.809   4.203  18.468  0.00  0.00    +0.000 C 
ATOM     14  N   UNL     1       4.792   4.982  19.195  0.00  0.00    +0.000 NA
ATOM     15  C   UNL     1       3.992   5.794  18.249  0.00  0.00    +0.000 C 
ATOM     16  C   UNL     1       4.846   6.728  17.395  0.00  0.00    +0.000 C 
BRANCH  14  17
ATOM     17  C   UNL     1       3.852   4.062  19.910  0.00  0.00    +0.000 C 
BRANCH  17  18
ATOM     18  C   UNL     1       4.017   2.600  19.488  0.00  0.00    +0.000 C 
ATOM     19  N   UNL     1       4.959   1.896  20.181  0.00  0.00    +0.000 N 
ATOM     20  O   UNL     1       3.323   2.061  18.631  0.00  0.00    +0.000 OA
ATOM     21  H   UNL     1       5.662   2.421  20.688  0.00  0.00    +0.000 HD
ATOM     22  H   UNL     1       5.164   0.954  19.873  0.00  0.00    +0.000 HD
ENDBRANCH  17  18
ENDBRANCH  14  17
ENDBRANCH   7  11
BRANCH   1  24
ATOM     23  C   UNL     1       3.533   3.718  10.383  0.00  0.00    +0.000 C 
ATOM     24  C   UNL     1       4.129   2.816  11.455  0.00  0.00    +0.000 C 
ENDBRANCH   1  24
TORSDOF 4
ENDMDL
MODEL 8
REMARK VINA RESULT:      -6.6      2.675      4.702
REMARK  Name = 
REMARK  5 active torsions:
REMARK  status: ('A' for Active; 'I' for Inactive)
REMARK    1  A    between atoms: C_1  and  C_2
REMARK    2  A    between atoms: C_2  and  N_3
REMARK    3  A    between atoms: N_9  and  C_10
REMARK    4  A    between atoms: N_13  and  C_14
REMARK    5  A    between atoms: C_14  and  C_15
REMARK                            x       y       z     vdW  Elec       q    Type
REMARK                         _______ _______ _______ _____ _____    ______ ____
ROOT
ATOM      1  N   UNL     1       5.530   3.060  11.397  0.00  0.00    +0.000 N 
ATOM      2  C   UNL     1       6.097   3.824  12.442  0.00  0.00    +0.000 A 
ATOM      3  C   UNL     1       7.357   4.346  12.233  0.00  0.00    +0.000 A 
ATOM      4  C   UNL     1       7.884   5.086  13.260  0.00  0.00    +0.000 A 
ATOM      5  N   UNL     1       7.252   5.285  14.425  0.00  0.00    +0.000 NA
ATOM      6  C   UNL     1       6.060   4.696  14.580  0.00  0.00    +0.000 A 
ATOM      7  N   UNL     1       5.370   4.837  15.772  0.00  0.00    +0.000 N 
ATOM      8  N   UNL     1       5.463   3.967  13.623  0.00  0.00    +0.000 NA
ATOM      9  H   UNL     1       5.790   3.465  10.503  0.00  0.00    +0.000 HD
ATOM     10  H   UNL     1       4.697   4.094  15.892  0.00  0.00    +0.000 HD
ENDROOT
BRANCH   7  11
ATOM     11  C   UNL     1       6.027   5.451  16.921  0.00  0.00    +0.000 C 
ATOM     12  C   UNL     1       6.086   4.512  18.128  0.00  0.00    +0.000 C 
ATOM     13  C   UNL     1       4.741   4.330  18.839  0.00  0.00    +0.000 C 
ATOM     14  N   UNL     1       4.077   5.600  19.179  0.00  0.00    +0.000 NA
ATOM     15  C   UNL     1       3.956   6.456  17.977  0.00  0.00    +0.000 C 
ATOM     16  C   UNL     1       5.300   6.738  17.308  0.00  0.00    +0.000 C 
BRANCH  14  17
ATOM     17  C   UNL     1       2.695   5.338  19.690  0.00  0.00    +0.000 C 
BRANCH  17  18
ATOM     18  C   UNL     1       2.068   4.080  19.084  0.00  0.00    +0.000 C 
ATOM     19  N   UNL     1       1.491   4.249  17.858  0.00  0.00    +0.000 N 
ATOM     20  O   UNL     1       2.119   2.975  19.616  0.00  0.00    +0.000 OA
ATOM     21  H   UNL     1       1.253   5.192  17.575  0.00  0.00    +0.000 HD
ATOM     22  H   UNL     1       0.985   3.466  17.464  0.00  0.00    +0.000 HD
ENDBRANCH  17  18
ENDBRANCH  14  17
ENDBRANCH   7  11
BRANCH   1  24
ATOM     23  C   UNL     1       3.420   3.634  10.331  0.00  0.00    +0.000 C 
ATOM     24  C   UNL     1       4.079   2.912  11.498  0.00  0.00    +0.000 C 
ENDBRANCH   1  24
TORSDOF 4
ENDMDL
MODEL 9
REMARK VINA RESULT:      -6.5      4.133      5.933
REMARK  Name = 
REMARK  5 active torsions:
REMARK  status: ('A' for Active; 'I' for Inactive)
REMARK    1  A    between atoms: C_1  and  C_2
REMARK    2  A    between atoms: C_2  and  N_3
REMARK    3  A    between atoms: N_9  and  C_10
REMARK    4  A    between atoms: N_13  and  C_14
REMARK    5  A    between atoms: C_14  and  C_15
REMARK                            x       y       z     vdW  Elec       q    Type
REMARK                         _______ _______ _______ _____ _____    ______ ____
ROOT
ATOM      1  N   UNL     1      -0.365   9.720  20.773  0.00  0.00    +0.000 N 
ATOM      2  C   UNL     1       0.658   9.261  19.911  0.00  0.00    +0.000 A 
ATOM      3  C   UNL     1       0.856   9.957  18.737  0.00  0.00    +0.000 A 
ATOM      4  C   UNL     1       1.855   9.495  17.921  0.00  0.00    +0.000 A 
ATOM      5  N   UNL     1       2.596   8.414  18.202  0.00  0.00    +0.000 NA
ATOM      6  C   UNL     1       2.306   7.753  19.329  0.00  0.00    +0.000 A 
ATOM      7  N   UNL     1       3.014   6.610  19.660  0.00  0.00    +0.000 N 
ATOM      8  N   UNL     1       1.355   8.142  20.193  0.00  0.00    +0.000 NA
ATOM      9  H   UNL     1      -0.396  10.734  20.751  0.00  0.00    +0.000 HD
ATOM     10  H   UNL     1       2.492   6.034  20.304  0.00  0.00    +0.000 HD
ENDROOT
BRANCH   7  11
ATOM     11  C   UNL     1       3.929   6.018  18.690  0.00  0.00    +0.000 C 
ATOM     12  C   UNL     1       3.194   5.401  17.498  0.00  0.00    +0.000 C 
ATOM     13  C   UNL     1       2.486   4.081  17.820  0.00  0.00    +0.000 C 
ATOM     14  N   UNL     1       3.353   3.093  18.484  0.00  0.00    +0.000 NA
ATOM     15  C   UNL     1       3.987   3.688  19.683  0.00  0.00    +0.000 C 
ATOM     16  C   UNL     1       4.787   4.951  19.370  0.00  0.00    +0.000 C 
BRANCH  14  17
ATOM     17  C   UNL     1       2.544   1.918  18.936  0.00  0.00    +0.000 C 
BRANCH  17  18
ATOM     18  C   UNL     1       1.093   2.286  19.257  0.00  0.00    +0.000 C 
ATOM     19  N   UNL     1       0.890   2.833  20.491  0.00  0.00    +0.000 N 
ATOM     20  O   UNL     1       0.171   2.161  18.457  0.00  0.00    +0.000 OA
ATOM     21  H   UNL     1       1.606   2.692  21.193  0.00  0.00    +0.000 HD
ATOM     22  H   UNL     1      -0.065   3.006  20.778  0.00  0.00    +0.000 HD
ENDBRANCH  17  18
ENDBRANCH  14  17
ENDBRANCH   7  11
BRANCH   1  24
ATOM     23  C   UNL     1      -0.667  10.332  23.107  0.00  0.00    +0.000 C 
ATOM     24  C   UNL     1      -0.238   9.233  22.146  0.00  0.00    +0.000 C 
ENDBRANCH   1  24
TORSDOF 4
ENDMDL
