MODEL 1
REMARK VINA RESULT:      -7.3      0.000      0.000
REMARK  Name = 
REMARK  9 active torsions:
REMARK  status: ('A' for Active; 'I' for Inactive)
REMARK    1  A    between atoms: C_1  and  O_2
REMARK    2  A    between atoms: O_2  and  C_3
REMARK    3  A    between atoms: C_3  and  C_5
REMARK    4  A    between atoms: C_5  and  C_21
REMARK    5  A    between atoms: C_10  and  C_11
REMARK    6  A    between atoms: C_14  and  O_15
REMARK    7  A    between atoms: O_15  and  C_16
REMARK    8  A    between atoms: C_19  and  O_20
REMARK    9  A    between atoms: C_25  and  C_26
REMARK                            x       y       z     vdW  Elec       q    Type
REMARK                         _______ _______ _______ _____ _____    ______ ____
ROOT
ATOM      1  C   UNL     1       0.441  10.290  20.593  0.00  0.00    +0.000 C 
ATOM      2  C   UNL     1       1.224   9.364  19.999  0.00  0.00    +0.000 C 
ATOM      3  O   UNL     1       1.655   9.535  18.674  0.00  0.00    +0.000 OA
ATOM      4  C   UNL     1       2.159   8.323  18.279  0.00  0.00    +0.000 C 
ATOM      5  O   UNL     1       2.550   8.069  17.153  0.00  0.00    +0.000 OA
ATOM      6  C   UNL     1       2.209   7.397  19.420  0.00  0.00    +0.000 C 
ATOM      7  C   UNL     1       1.708   8.093  20.437  0.00  0.00    +0.000 C 
ENDROOT
BRANCH   6   8
ATOM      8  C   UNL     1       2.778   6.060  19.419  0.00  0.00    +0.000 A 
ATOM      9  C   UNL     1       1.963   4.953  19.676  0.00  0.00    +0.000 A 
ATOM     10  C   UNL     1       2.505   3.661  19.675  0.00  0.00    +0.000 A 
ATOM     11  C   UNL     1       3.860   3.467  19.409  0.00  0.00    +0.000 A 
ATOM     12  C   UNL     1       4.682   4.571  19.188  0.00  0.00    +0.000 A 
ATOM     13  C   UNL     1       4.143   5.863  19.192  0.00  0.00    +0.000 A 
BRANCH  11  14
ATOM     14  O   UNL     1       4.278   2.166  19.433  0.00  0.00    +0.000 OA
ATOM     15  C   UNL     1       3.687   1.320  18.451  0.00  0.00    +0.000 C 
ENDBRANCH  11  14
ENDBRANCH   6   8
BRANCH   1  16
ATOM     16  C   UNL     1       0.285  11.599  19.907  0.00  0.00    +0.000 A 
ATOM     17  C   UNL     1      -0.928  11.978  19.320  0.00  0.00    +0.000 A 
ATOM     18  C   UNL     1      -1.031  13.196  18.646  0.00  0.00    +0.000 A 
ATOM     19  C   UNL     1       0.068  14.051  18.558  0.00  0.00    +0.000 A 
ATOM     20  C   UNL     1       1.288  13.699  19.152  0.00  0.00    +0.000 A 
ATOM     21  C   UNL     1       1.385  12.466  19.824  0.00  0.00    +0.000 A 
BRANCH  20  22
ATOM     22  C   UNL     1       2.488  14.610  19.084  0.00  0.00    +0.000 C 
ATOM     23  F   UNL     1       2.222  15.896  19.447  0.00  0.00    +0.000 F 
ATOM     24  F   UNL     1       3.503  14.198  19.892  0.00  0.00    +0.000 F 
ATOM     25  F   UNL     1       3.017  14.681  17.830  0.00  0.00    +0.000 F 
ENDBRANCH  20  22
ENDBRANCH   1  16
BRANCH   1  26
ATOM     26  C   UNL     1      -0.246  10.131  21.911  0.00  0.00    +0.000 C 
ATOM     27  O   UNL     1      -0.707   9.064  22.296  0.00  0.00    +0.000 OA
BRANCH  26  29
ATOM     28  C   UNL     1      -1.434  11.771  23.113  0.00  0.00    +0.000 C 
ATOM     29  O   UNL     1      -0.178  11.259  22.660  0.00  0.00    +0.000 OA
ENDBRANCH  26  29
ENDBRANCH   1  26
BRANCH   7  30
ATOM     30  O   UNL     1       1.740   7.754  21.759  0.00  0.00    +0.000 OA
ATOM     31  H   UNL     1       1.566   8.553  22.290  0.00  0.00    +0.000 HD
ENDBRANCH   7  30
TORSDOF 7
ENDMDL
MODEL 2
REMARK VINA RESULT:      -7.2      4.955      9.083
REMARK  Name = 
REMARK  9 active torsions:
REMARK  status: ('A' for Active; 'I' for Inactive)
REMARK    1  A    between atoms: C_1  and  O_2
REMARK    2  A    between atoms: O_2  and  C_3
REMARK    3  A    between atoms: C_3  and  C_5
REMARK    4  A    between atoms: C_5  and  C_21
REMARK    5  A    between atoms: C_10  and  C_11
REMARK    6  A    between atoms: C_14  and  O_15
REMARK    7  A    between atoms: O_15  and  C_16
REMARK    8  A    between atoms: C_19  and  O_20
REMARK    9  A    between atoms: C_25  and  C_26
REMARK                            x       y       z     vdW  Elec       q    Type
REMARK                         _______ _______ _______ _____ _____    ______ ____
ROOT
ATOM      1  C   UNL     1       4.475   4.537  17.284  0.00  0.00    +0.000 C 
ATOM      2  C   UNL     1       3.841   5.701  17.542  0.00  0.00    +0.000 C 
ATOM      3  O   UNL     1       4.268   6.897  16.943  0.00  0.00    +0.000 OA
ATOM      4  C   UNL     1       3.636   7.907  17.621  0.00  0.00    +0.000 C 
ATOM      5  O   UNL     1       3.831   9.096  17.432  0.00  0.00    +0.000 OA
ATOM      6  C   UNL     1       2.656   7.351  18.565  0.00  0.00    +0.000 C 
ATOM      7  C   UNL     1       2.767   6.033  18.424  0.00  0.00    +0.000 C 
ENDROOT
BRANCH   6   8
ATOM      8  C   UNL     1       1.722   8.109  19.381  0.00  0.00    +0.000 A 
ATOM      9  C   UNL     1       1.026   9.188  18.828  0.00  0.00    +0.000 A 
ATOM     10  C   UNL     1       0.123   9.922  19.609  0.00  0.00    +0.000 A 
ATOM     11  C   UNL     1      -0.095   9.577  20.941  0.00  0.00    +0.000 A 
ATOM     12  C   UNL     1       0.623   8.524  21.506  0.00  0.00    +0.000 A 
ATOM     13  C   UNL     1       1.528   7.792  20.728  0.00  0.00    +0.000 A 
BRANCH  11  14
ATOM     14  O   UNL     1      -0.998  10.360  21.606  0.00  0.00    +0.000 OA
ATOM     15  C   UNL     1      -0.828  10.416  23.019  0.00  0.00    +0.000 C 
ENDBRANCH  11  14
ENDBRANCH   6   8
BRANCH   1  16
ATOM     16  C   UNL     1       5.442   4.518  16.155  0.00  0.00    +0.000 A 
ATOM     17  C   UNL     1       6.744   5.010  16.298  0.00  0.00    +0.000 A 
ATOM     18  C   UNL     1       7.616   5.016  15.207  0.00  0.00    +0.000 A 
ATOM     19  C   UNL     1       7.202   4.526  13.968  0.00  0.00    +0.000 A 
ATOM     20  C   UNL     1       5.906   4.016  13.806  0.00  0.00    +0.000 A 
ATOM     21  C   UNL     1       5.032   4.018  14.909  0.00  0.00    +0.000 A 
BRANCH  20  22
ATOM     22  C   UNL     1       5.436   3.468  12.481  0.00  0.00    +0.000 C 
ATOM     23  F   UNL     1       5.624   2.126  12.346  0.00  0.00    +0.000 F 
ATOM     24  F   UNL     1       4.108   3.681  12.270  0.00  0.00    +0.000 F 
ATOM     25  F   UNL     1       6.078   4.041  11.424  0.00  0.00    +0.000 F 
ENDBRANCH  20  22
ENDBRANCH   1  16
BRANCH   1  26
ATOM     26  C   UNL     1       4.253   3.248  18.006  0.00  0.00    +0.000 C 
ATOM     27  O   UNL     1       3.605   2.324  17.533  0.00  0.00    +0.000 OA
BRANCH  26  29
ATOM     28  C   UNL     1       4.389   2.350  20.179  0.00  0.00    +0.000 C 
ATOM     29  O   UNL     1       4.952   3.187  19.166  0.00  0.00    +0.000 OA
ENDBRANCH  26  29
ENDBRANCH   1  26
BRANCH   7  30
ATOM     30  O   UNL     1       1.924   5.081  18.920  0.00  0.00    +0.000 OA
ATOM     31  H   UNL     1       1.819   5.226  19.879  0.00  0.00    +0.000 HD
ENDBRANCH   7  30
TORSDOF 7
ENDMDL
MODEL 3
REMARK VINA RESULT:      -7.1      4.939      9.068
REMARK  Name = 
REMARK  9 active torsions:
REMARK  status: ('A' for Active; 'I' for Inactive)
REMARK    1  A    between atoms: C_1  and  O_2
REMARK    2  A    between atoms: O_2  and  C_3
REMARK    3  A    between atoms: C_3  and  C_5
REMARK    4  A    between atoms: C_5  and  C_21
REMARK    5  A    between atoms: C_10  and  C_11
REMARK    6  A    between atoms: C_14  and  O_15
REMARK    7  A    between atoms: O_15  and  C_16
REMARK    8  A    between atoms: C_19  and  O_20
REMARK    9  A    between atoms: C_25  and  C_26
REMARK                            x       y       z     vdW  Elec       q    Type
REMARK                         _______ _______ _______ _____ _____    ______ ____
ROOT
ATOM      1  C   UNL     1       4.398   4.602  17.294  0.00  0.00    +0.000 C 
ATOM      2  C   UNL     1       3.782   5.776  17.543  0.00  0.00    +0.000 C 
ATOM      3  O   UNL     1       4.243   6.966  16.956  0.00  0.00    +0.000 OA
ATOM      4  C   UNL     1       3.618   7.986  17.625  0.00  0.00    +0.000 C 
ATOM      5  O   UNL     1       3.839   9.171  17.443  0.00  0.00    +0.000 OA
ATOM      6  C   UNL     1       2.609   7.447  18.548  0.00  0.00    +0.000 C 
ATOM      7  C   UNL     1       2.698   6.127  18.406  0.00  0.00    +0.000 C 
ENDROOT
BRANCH   6   8
ATOM      8  C   UNL     1       1.675   8.219  19.349  0.00  0.00    +0.000 A 
ATOM      9  C   UNL     1       0.934   9.249  18.759  0.00  0.00    +0.000 A 
ATOM     10  C   UNL     1       0.030   9.997  19.525  0.00  0.00    +0.000 A 
ATOM     11  C   UNL     1      -0.144   9.717  20.879  0.00  0.00    +0.000 A 
ATOM     12  C   UNL     1       0.619   8.715  21.479  0.00  0.00    +0.000 A 
ATOM     13  C   UNL     1       1.525   7.969  20.715  0.00  0.00    +0.000 A 
BRANCH  11  14
ATOM     14  O   UNL     1      -1.052  10.509  21.526  0.00  0.00    +0.000 OA
ATOM     15  C   UNL     1      -0.903  10.571  22.942  0.00  0.00    +0.000 C 
ENDBRANCH  11  14
ENDBRANCH   6   8
BRANCH   1  16
ATOM     16  C   UNL     1       5.386   4.567  16.183  0.00  0.00    +0.000 A 
ATOM     17  C   UNL     1       6.691   5.044  16.349  0.00  0.00    +0.000 A 
ATOM     18  C   UNL     1       7.583   5.036  15.274  0.00  0.00    +0.000 A 
ATOM     19  C   UNL     1       7.186   4.546  14.029  0.00  0.00    +0.000 A 
ATOM     20  C   UNL     1       5.888   4.050  13.845  0.00  0.00    +0.000 A 
ATOM     21  C   UNL     1       4.994   4.067  14.931  0.00  0.00    +0.000 A 
BRANCH  20  22
ATOM     22  C   UNL     1       5.437   3.502  12.514  0.00  0.00    +0.000 C 
ATOM     23  F   UNL     1       4.102   3.651  12.284  0.00  0.00    +0.000 F 
ATOM     24  F   UNL     1       6.064   4.100  11.464  0.00  0.00    +0.000 F 
ATOM     25  F   UNL     1       5.688   2.169  12.388  0.00  0.00    +0.000 F 
ENDBRANCH  20  22
ENDBRANCH   1  16
BRANCH   1  26
ATOM     26  C   UNL     1       4.138   3.315  18.007  0.00  0.00    +0.000 C 
ATOM     27  O   UNL     1       4.783   2.953  18.982  0.00  0.00    +0.000 OA
BRANCH  26  29
ATOM     28  C   UNL     1       2.335   1.873  18.474  0.00  0.00    +0.000 C 
ATOM     29  O   UNL     1       3.040   2.680  17.527  0.00  0.00    +0.000 OA
ENDBRANCH  26  29
ENDBRANCH   1  26
BRANCH   7  30
ATOM     30  O   UNL     1       1.828   5.190  18.883  0.00  0.00    +0.000 OA
ATOM     31  H   UNL     1       0.971   5.621  19.060  0.00  0.00    +0.000 HD
ENDBRANCH   7  30
TORSDOF 7
ENDMDL
MODEL 4
REMARK VINA RESULT:      -7.1      4.949      9.055
REMARK  Name = 
REMARK  9 active torsions:
REMARK  status: ('A' for Active; 'I' for Inactive)
REMARK    1  A    between atoms: C_1  and  O_2
REMARK    2  A    between atoms: O_2  and  C_3
REMARK    3  A    between atoms: C_3  and  C_5
REMARK    4  A    between atoms: C_5  and  C_21
REMARK    5  A    between atoms: C_10  and  C_11
REMARK    6  A    between atoms: C_14  and  O_15
REMARK    7  A    between atoms: O_15  and  C_16
REMARK    8  A    between atoms: C_19  and  O_20
REMARK    9  A    between atoms: C_25  and  C_26
REMARK                            x       y       z     vdW  Elec       q    Type
REMARK                         _______ _______ _______ _____ _____    ______ ____
ROOT
ATOM      1  C   UNL     1       4.355   4.597  17.260  0.00  0.00    +0.000 C 
ATOM      2  C   UNL     1       3.758   5.781  17.510  0.00  0.00    +0.000 C 
ATOM      3  O   UNL     1       4.254   6.967  16.946  0.00  0.00    +0.000 OA
ATOM      4  C   UNL     1       3.637   7.992  17.613  0.00  0.00    +0.000 C 
ATOM      5  O   UNL     1       3.885   9.174  17.449  0.00  0.00    +0.000 OA
ATOM      6  C   UNL     1       2.599   7.464  18.510  0.00  0.00    +0.000 C 
ATOM      7  C   UNL     1       2.664   6.144  18.355  0.00  0.00    +0.000 C 
ENDROOT
BRANCH   6   8
ATOM      8  C   UNL     1       1.664   8.247  19.301  0.00  0.00    +0.000 A 
ATOM      9  C   UNL     1       1.557   8.026  20.678  0.00  0.00    +0.000 A 
ATOM     10  C   UNL     1       0.658   8.779  21.446  0.00  0.00    +0.000 A 
ATOM     11  C   UNL     1      -0.130   9.759  20.845  0.00  0.00    +0.000 A 
ATOM     12  C   UNL     1      -0.052   9.957  19.467  0.00  0.00    +0.000 A 
ATOM     13  C   UNL     1       0.843   9.203  18.698  0.00  0.00    +0.000 A 
BRANCH  11  14
ATOM     14  O   UNL     1      -0.969  10.431  21.691  0.00  0.00    +0.000 OA
ATOM     15  C   UNL     1      -0.781  10.158  23.076  0.00  0.00    +0.000 C 
ENDBRANCH  11  14
ENDBRANCH   6   8
BRANCH   1  16
ATOM     16  C   UNL     1       5.364   4.554  16.169  0.00  0.00    +0.000 A 
ATOM     17  C   UNL     1       6.669   5.021  16.360  0.00  0.00    +0.000 A 
ATOM     18  C   UNL     1       7.582   5.006  15.303  0.00  0.00    +0.000 A 
ATOM     19  C   UNL     1       7.206   4.519  14.051  0.00  0.00    +0.000 A 
ATOM     20  C   UNL     1       5.908   4.032  13.841  0.00  0.00    +0.000 A 
ATOM     21  C   UNL     1       4.993   4.056  14.910  0.00  0.00    +0.000 A 
BRANCH  20  22
ATOM     22  C   UNL     1       5.479   3.487  12.502  0.00  0.00    +0.000 C 
ATOM     23  F   UNL     1       6.121   4.060  11.446  0.00  0.00    +0.000 F 
ATOM     24  F   UNL     1       5.699   2.148  12.389  0.00  0.00    +0.000 F 
ATOM     25  F   UNL     1       4.149   3.666  12.269  0.00  0.00    +0.000 F 
ENDBRANCH  20  22
ENDBRANCH   1  16
BRANCH   1  26
ATOM     26  C   UNL     1       4.054   3.308  17.954  0.00  0.00    +0.000 C 
ATOM     27  O   UNL     1       4.688   2.910  18.922  0.00  0.00    +0.000 OA
BRANCH  26  29
ATOM     28  C   UNL     1       2.220   1.897  18.393  0.00  0.00    +0.000 C 
ATOM     29  O   UNL     1       2.936   2.715  17.465  0.00  0.00    +0.000 OA
ENDBRANCH  26  29
ENDBRANCH   1  26
BRANCH   7  30
ATOM     30  O   UNL     1       1.765   5.220  18.803  0.00  0.00    +0.000 OA
ATOM     31  H   UNL     1       1.068   5.681  19.306  0.00  0.00    +0.000 HD
ENDBRANCH   7  30
TORSDOF 7
ENDMDL
MODEL 5
REMARK VINA RESULT:      -6.9      3.161      4.416
REMARK  Name = 
REMARK  9 active torsions:
REMARK  status: ('A' for Active; 'I' for Inactive)
REMARK    1  A    between atoms: C_1  and  O_2
REMARK    2  A    between atoms: O_2  and  C_3
REMARK    3  A    between atoms: C_3  and  C_5
REMARK    4  A    between atoms: C_5  and  C_21
REMARK    5  A    between atoms: C_10  and  C_11
REMARK    6  A    between atoms: C_14  and  O_15
REMARK    7  A    between atoms: O_15  and  C_16
REMARK    8  A    between atoms: C_19  and  O_20
REMARK    9  A    between atoms: C_25  and  C_26
REMARK                            x       y       z     vdW  Elec       q    Type
REMARK                         _______ _______ _______ _____ _____    ______ ____
ROOT
ATOM      1  C   UNL     1       0.428  11.448  19.579  0.00  0.00    +0.000 C 
ATOM      2  C   UNL     1       0.795  10.153  19.487  0.00  0.00    +0.000 C 
ATOM      3  O   UNL     1       0.466   9.240  20.502  0.00  0.00    +0.000 OA
ATOM      4  C   UNL     1       1.218   8.119  20.264  0.00  0.00    +0.000 C 
ATOM      5  O   UNL     1       1.257   7.144  20.995  0.00  0.00    +0.000 OA
ATOM      6  C   UNL     1       1.922   8.242  18.979  0.00  0.00    +0.000 C 
ATOM      7  C   UNL     1       1.577   9.443  18.523  0.00  0.00    +0.000 C 
ENDROOT
BRANCH   6   8
ATOM      8  C   UNL     1       2.728   7.217  18.339  0.00  0.00    +0.000 A 
ATOM      9  C   UNL     1       2.296   5.886  18.340  0.00  0.00    +0.000 A 
ATOM     10  C   UNL     1       3.068   4.893  17.723  0.00  0.00    +0.000 A 
ATOM     11  C   UNL     1       4.268   5.223  17.095  0.00  0.00    +0.000 A 
ATOM     12  C   UNL     1       4.718   6.543  17.122  0.00  0.00    +0.000 A 
ATOM     13  C   UNL     1       3.950   7.536  17.742  0.00  0.00    +0.000 A 
BRANCH  11  14
ATOM     14  O   UNL     1       4.936   4.175  16.525  0.00  0.00    +0.000 OA
ATOM     15  C   UNL     1       5.541   4.453  15.266  0.00  0.00    +0.000 C 
ENDBRANCH  11  14
ENDBRANCH   6   8
BRANCH   1  16
ATOM     16  C   UNL     1      -0.555  11.809  20.633  0.00  0.00    +0.000 A 
ATOM     17  C   UNL     1      -0.212  11.797  21.991  0.00  0.00    +0.000 A 
ATOM     18  C   UNL     1      -1.170  12.101  22.960  0.00  0.00    +0.000 A 
ATOM     19  C   UNL     1      -2.474  12.427  22.587  0.00  0.00    +0.000 A 
ATOM     20  C   UNL     1      -2.836  12.459  21.233  0.00  0.00    +0.000 A 
ATOM     21  C   UNL     1      -1.866  12.147  20.263  0.00  0.00    +0.000 A 
BRANCH  20  22
ATOM     22  C   UNL     1      -4.236  12.822  20.802  0.00  0.00    +0.000 C 
ATOM     23  F   UNL     1      -4.514  14.151  20.907  0.00  0.00    +0.000 F 
ATOM     24  F   UNL     1      -4.484  12.491  19.505  0.00  0.00    +0.000 F 
ATOM     25  F   UNL     1      -5.189  12.184  21.538  0.00  0.00    +0.000 F 
ENDBRANCH  20  22
ENDBRANCH   1  16
BRANCH   1  26
ATOM     26  C   UNL     1       0.889  12.548  18.679  0.00  0.00    +0.000 C 
ATOM     27  O   UNL     1       0.116  13.285  18.081  0.00  0.00    +0.000 OA
BRANCH  26  29
ATOM     28  C   UNL     1       2.718  13.680  19.637  0.00  0.00    +0.000 C 
ATOM     29  O   UNL     1       2.235  12.703  18.712  0.00  0.00    +0.000 OA
ENDBRANCH  26  29
ENDBRANCH   1  26
BRANCH   7  30
ATOM     30  O   UNL     1       1.793   9.938  17.270  0.00  0.00    +0.000 OA
ATOM     31  H   UNL     1       2.698   9.700  16.992  0.00  0.00    +0.000 HD
ENDBRANCH   7  30
TORSDOF 7
ENDMDL
MODEL 6
REMARK VINA RESULT:      -6.9      0.857      1.373
REMARK  Name = 
REMARK  9 active torsions:
REMARK  status: ('A' for Active; 'I' for Inactive)
REMARK    1  A    between atoms: C_1  and  O_2
REMARK    2  A    between atoms: O_2  and  C_3
REMARK    3  A    between atoms: C_3  and  C_5
REMARK    4  A    between atoms: C_5  and  C_21
REMARK    5  A    between atoms: C_10  and  C_11
REMARK    6  A    between atoms: C_14  and  O_15
REMARK    7  A    between atoms: O_15  and  C_16
REMARK    8  A    between atoms: C_19  and  O_20
REMARK    9  A    between atoms: C_25  and  C_26
REMARK                            x       y       z     vdW  Elec       q    Type
REMARK                         _______ _______ _______ _____ _____    ______ ____
ROOT
ATOM      1  C   UNL     1       0.400  10.778  20.753  0.00  0.00    +0.000 C 
ATOM      2  C   UNL     1       1.107   9.782  20.181  0.00  0.00    +0.000 C 
ATOM      3  O   UNL     1       1.543   9.885  18.850  0.00  0.00    +0.000 OA
ATOM      4  C   UNL     1       1.952   8.629  18.485  0.00  0.00    +0.000 C 
ATOM      5  O   UNL     1       2.317   8.318  17.364  0.00  0.00    +0.000 OA
ATOM      6  C   UNL     1       1.939   7.732  19.649  0.00  0.00    +0.000 C 
ATOM      7  C   UNL     1       1.497   8.489  20.650  0.00  0.00    +0.000 C 
ENDROOT
BRANCH   6   8
ATOM      8  C   UNL     1       2.406   6.356  19.681  0.00  0.00    +0.000 A 
ATOM      9  C   UNL     1       3.509   5.975  18.910  0.00  0.00    +0.000 A 
ATOM     10  C   UNL     1       3.966   4.651  18.937  0.00  0.00    +0.000 A 
ATOM     11  C   UNL     1       3.330   3.704  19.738  0.00  0.00    +0.000 A 
ATOM     12  C   UNL     1       2.208   4.072  20.480  0.00  0.00    +0.000 A 
ATOM     13  C   UNL     1       1.748   5.395  20.452  0.00  0.00    +0.000 A 
BRANCH  11  14
ATOM     14  O   UNL     1       3.861   2.445  19.686  0.00  0.00    +0.000 OA
ATOM     15  C   UNL     1       3.469   1.666  18.560  0.00  0.00    +0.000 C 
ENDBRANCH  11  14
ENDBRANCH   6   8
BRANCH   1  16
ATOM     16  C   UNL     1       0.338  12.078  20.034  0.00  0.00    +0.000 A 
ATOM     17  C   UNL     1      -0.562  12.291  18.984  0.00  0.00    +0.000 A 
ATOM     18  C   UNL     1      -0.567  13.509  18.301  0.00  0.00    +0.000 A 
ATOM     19  C   UNL     1       0.317  14.526  18.661  0.00  0.00    +0.000 A 
ATOM     20  C   UNL     1       1.218  14.339  19.719  0.00  0.00    +0.000 A 
ATOM     21  C   UNL     1       1.220  13.107  20.399  0.00  0.00    +0.000 A 
BRANCH  20  22
ATOM     22  C   UNL     1       2.176  15.426  20.138  0.00  0.00    +0.000 C 
ATOM     23  F   UNL     1       2.862  15.141  21.280  0.00  0.00    +0.000 F 
ATOM     24  F   UNL     1       3.119  15.684  19.192  0.00  0.00    +0.000 F 
ATOM     25  F   UNL     1       1.546  16.613  20.371  0.00  0.00    +0.000 F 
ENDBRANCH  20  22
ENDBRANCH   1  16
BRANCH   1  26
ATOM     26  C   UNL     1      -0.290  10.705  22.077  0.00  0.00    +0.000 C 
ATOM     27  O   UNL     1       0.264  10.310  23.094  0.00  0.00    +0.000 OA
BRANCH  26  29
ATOM     28  C   UNL     1      -1.845  12.159  23.085  0.00  0.00    +0.000 C 
ATOM     29  O   UNL     1      -1.535  11.242  22.033  0.00  0.00    +0.000 OA
ENDBRANCH  26  29
ENDBRANCH   1  26
BRANCH   7  30
ATOM     30  O   UNL     1       1.512   8.183  21.980  0.00  0.00    +0.000 OA
ATOM     31  H   UNL     1       2.439   8.104  22.272  0.00  0.00    +0.000 HD
ENDBRANCH   7  30
TORSDOF 7
ENDMDL
MODEL 7
REMARK VINA RESULT:      -6.9      3.580      5.174
REMARK  Name = 
REMARK  9 active torsions:
REMARK  status: ('A' for Active; 'I' for Inactive)
REMARK    1  A    between atoms: C_1  and  O_2
REMARK    2  A    between atoms: O_2  and  C_3
REMARK    3  A    between atoms: C_3  and  C_5
REMARK    4  A    between atoms: C_5  and  C_21
REMARK    5  A    between atoms: C_10  and  C_11
REMARK    6  A    between atoms: C_14  and  O_15
REMARK    7  A    between atoms: O_15  and  C_16
REMARK    8  A    between atoms: C_19  and  O_20
REMARK    9  A    between atoms: C_25  and  C_26
REMARK                            x       y       z     vdW  Elec       q    Type
REMARK                         _______ _______ _______ _____ _____    ______ ____
ROOT
ATOM      1  C   UNL     1      -1.159  12.053  20.657  0.00  0.00    +0.000 C 
ATOM      2  C   UNL     1      -0.433  10.932  20.851  0.00  0.00    +0.000 C 
ATOM      3  O   UNL     1       0.121  10.646  22.110  0.00  0.00    +0.000 OA
ATOM      4  C   UNL     1       1.021   9.633  21.907  0.00  0.00    +0.000 C 
ATOM      5  O   UNL     1       1.758   9.179  22.766  0.00  0.00    +0.000 OA
ATOM      6  C   UNL     1       0.929   9.139  20.525  0.00  0.00    +0.000 C 
ATOM      7  C   UNL     1      -0.005   9.899  19.961  0.00  0.00    +0.000 C 
ENDROOT
BRANCH   6   8
ATOM      8  C   UNL     1       1.645   8.005  19.967  0.00  0.00    +0.000 A 
ATOM      9  C   UNL     1       2.313   8.132  18.745  0.00  0.00    +0.000 A 
ATOM     10  C   UNL     1       3.007   7.043  18.202  0.00  0.00    +0.000 A 
ATOM     11  C   UNL     1       3.045   5.826  18.879  0.00  0.00    +0.000 A 
ATOM     12  C   UNL     1       2.351   5.684  20.080  0.00  0.00    +0.000 A 
ATOM     13  C   UNL     1       1.654   6.771  20.623  0.00  0.00    +0.000 A 
BRANCH  11  14
ATOM     14  O   UNL     1       3.753   4.834  18.257  0.00  0.00    +0.000 OA
ATOM     15  C   UNL     1       4.921   5.265  17.565  0.00  0.00    +0.000 C 
ENDBRANCH  11  14
ENDBRANCH   6   8
BRANCH   1  16
ATOM     16  C   UNL     1      -1.577  12.818  21.861  0.00  0.00    +0.000 A 
ATOM     17  C   UNL     1      -0.711  13.715  22.496  0.00  0.00    +0.000 A 
ATOM     18  C   UNL     1      -1.119  14.387  23.650  0.00  0.00    +0.000 A 
ATOM     19  C   UNL     1      -2.394  14.178  24.178  0.00  0.00    +0.000 A 
ATOM     20  C   UNL     1      -3.283  13.294  23.550  0.00  0.00    +0.000 A 
ATOM     21  C   UNL     1      -2.862  12.617  22.390  0.00  0.00    +0.000 A 
BRANCH  20  22
ATOM     22  C   UNL     1      -4.672  13.059  24.090  0.00  0.00    +0.000 C 
ATOM     23  F   UNL     1      -4.699  12.296  25.217  0.00  0.00    +0.000 F 
ATOM     24  F   UNL     1      -5.310  14.218  24.409  0.00  0.00    +0.000 F 
ATOM     25  F   UNL     1      -5.478  12.424  23.193  0.00  0.00    +0.000 F 
ENDBRANCH  20  22
ENDBRANCH   1  16
BRANCH   1  26
ATOM     26  C   UNL     1      -1.623  12.570  19.334  0.00  0.00    +0.000 C 
ATOM     27  O   UNL     1      -2.562  12.081  18.721  0.00  0.00    +0.000 OA
BRANCH  26  29
ATOM     28  C   UNL     1       0.356  13.511  18.469  0.00  0.00    +0.000 C 
ATOM     29  O   UNL     1      -0.969  13.702  18.972  0.00  0.00    +0.000 OA
ENDBRANCH  26  29
ENDBRANCH   1  26
BRANCH   7  30
ATOM     30  O   UNL     1      -0.609   9.697  18.754  0.00  0.00    +0.000 OA
ATOM     31  H   UNL     1      -0.583   8.744  18.548  0.00  0.00    +0.000 HD
ENDBRANCH   7  30
TORSDOF 7
ENDMDL
MODEL 8
REMARK VINA RESULT:      -6.9      3.562      5.058
REMARK  Name = 
REMARK  9 active torsions:
REMARK  status: ('A' for Active; 'I' for Inactive)
REMARK    1  A    between atoms: C_1  and  O_2
REMARK    2  A    between atoms: O_2  and  C_3
REMARK    3  A    between atoms: C_3  and  C_5
REMARK    4  A    between atoms: C_5  and  C_21
REMARK    5  A    between atoms: C_10  and  C_11
REMARK    6  A    between atoms: C_14  and  O_15
REMARK    7  A    between atoms: O_15  and  C_16
REMARK    8  A    between atoms: C_19  and  O_20
REMARK    9  A    between atoms: C_25  and  C_26
REMARK                            x       y       z     vdW  Elec       q    Type
REMARK                         _______ _______ _______ _____ _____    ______ ____
ROOT
ATOM      1  C   UNL     1      -1.124  12.025  20.563  0.00  0.00    +0.000 C 
ATOM      2  C   UNL     1      -0.396  10.909  20.777  0.00  0.00    +0.000 C 
ATOM      3  O   UNL     1       0.178  10.658  22.034  0.00  0.00    +0.000 OA
ATOM      4  C   UNL     1       1.074   9.638  21.846  0.00  0.00    +0.000 C 
ATOM      5  O   UNL     1       1.824   9.207  22.705  0.00  0.00    +0.000 OA
ATOM      6  C   UNL     1       0.959   9.105  20.480  0.00  0.00    +0.000 C 
ATOM      7  C   UNL     1       0.016   9.851  19.910  0.00  0.00    +0.000 C 
ENDROOT
BRANCH   6   8
ATOM      8  C   UNL     1       1.665   7.955  19.942  0.00  0.00    +0.000 A 
ATOM      9  C   UNL     1       1.678   6.749  20.651  0.00  0.00    +0.000 A 
ATOM     10  C   UNL     1       2.356   5.635  20.137  0.00  0.00    +0.000 A 
ATOM     11  C   UNL     1       3.017   5.718  18.913  0.00  0.00    +0.000 A 
ATOM     12  C   UNL     1       3.037   6.928  18.222  0.00  0.00    +0.000 A 
ATOM     13  C   UNL     1       2.362   8.043  18.735  0.00  0.00    +0.000 A 
BRANCH  11  14
ATOM     14  O   UNL     1       3.643   4.571  18.510  0.00  0.00    +0.000 OA
ATOM     15  C   UNL     1       3.734   3.549  19.499  0.00  0.00    +0.000 C 
ENDBRANCH  11  14
ENDBRANCH   6   8
BRANCH   1  16
ATOM     16  C   UNL     1      -1.522  12.824  21.752  0.00  0.00    +0.000 A 
ATOM     17  C   UNL     1      -0.648  13.746  22.341  0.00  0.00    +0.000 A 
ATOM     18  C   UNL     1      -1.037  14.450  23.482  0.00  0.00    +0.000 A 
ATOM     19  C   UNL     1      -2.299  14.249  24.043  0.00  0.00    +0.000 A 
ATOM     20  C   UNL     1      -3.194  13.341  23.461  0.00  0.00    +0.000 A 
ATOM     21  C   UNL     1      -2.793  12.631  22.314  0.00  0.00    +0.000 A 
BRANCH  20  22
ATOM     22  C   UNL     1      -4.570  13.114  24.038  0.00  0.00    +0.000 C 
ATOM     23  F   UNL     1      -5.196  14.259  24.429  0.00  0.00    +0.000 F 
ATOM     24  F   UNL     1      -5.413  12.511  23.156  0.00  0.00    +0.000 F 
ATOM     25  F   UNL     1      -4.546  12.310  25.139  0.00  0.00    +0.000 F 
ENDBRANCH  20  22
ENDBRANCH   1  16
BRANCH   1  26
ATOM     26  C   UNL     1      -1.608  12.505  19.234  0.00  0.00    +0.000 C 
ATOM     27  O   UNL     1      -0.941  13.225  18.503  0.00  0.00    +0.000 OA
BRANCH  26  29
ATOM     28  C   UNL     1      -2.934  11.586  17.518  0.00  0.00    +0.000 C 
ATOM     29  O   UNL     1      -2.797  11.948  18.894  0.00  0.00    +0.000 OA
ENDBRANCH  26  29
ENDBRANCH   1  26
BRANCH   7  30
ATOM     30  O   UNL     1      -0.607   9.616  18.718  0.00  0.00    +0.000 OA
ATOM     31  H   UNL     1      -0.983   8.716  18.735  0.00  0.00    +0.000 HD
ENDBRANCH   7  30
TORSDOF 7
ENDMDL
MODEL 9
REMARK VINA RESULT:      -6.8      3.403      4.845
REMARK  Name = 
REMARK  9 active torsions:
REMARK  status: ('A' for Active; 'I' for Inactive)
REMARK    1  A    between atoms: C_1  and  O_2
REMARK    2  A    between atoms: O_2  and  C_3
REMARK    3  A    between atoms: C_3  and  C_5
REMARK    4  A    between atoms: C_5  and  C_21
REMARK    5  A    between atoms: C_10  and  C_11
REMARK    6  A    between atoms: C_14  and  O_15
REMARK    7  A    between atoms: O_15  and  C_16
REMARK    8  A    between atoms: C_19  and  O_20
REMARK    9  A    between atoms: C_25  and  C_26
REMARK                            x       y       z     vdW  Elec       q    Type
REMARK                         _______ _______ _______ _____ _____    ______ ____
ROOT
ATOM      1  C   UNL     1      -0.684  12.102  20.238  0.00  0.00    +0.000 C 
ATOM      2  C   UNL     1      -0.068  10.932  20.510  0.00  0.00    +0.000 C 
ATOM      3  O   UNL     1       0.371  10.640  21.812  0.00  0.00    +0.000 OA
ATOM      4  C   UNL     1       1.197   9.552  21.699  0.00  0.00    +0.000 C 
ATOM      5  O   UNL     1       1.832   9.066  22.619  0.00  0.00    +0.000 OA
ATOM      6  C   UNL     1       1.161   9.027  20.326  0.00  0.00    +0.000 C 
ATOM      7  C   UNL     1       0.335   9.843  19.678  0.00  0.00    +0.000 C 
ENDROOT
BRANCH   6   8
ATOM      8  C   UNL     1       1.820   7.823  19.848  0.00  0.00    +0.000 A 
ATOM      9  C   UNL     1       2.525   7.845  18.640  0.00  0.00    +0.000 A 
ATOM     10  C   UNL     1       3.163   6.688  18.174  0.00  0.00    +0.000 A 
ATOM     11  C   UNL     1       3.109   5.508  18.914  0.00  0.00    +0.000 A 
ATOM     12  C   UNL     1       2.378   5.473  20.101  0.00  0.00    +0.000 A 
ATOM     13  C   UNL     1       1.736   6.628  20.566  0.00  0.00    +0.000 A 
BRANCH  11  14
ATOM     14  O   UNL     1       3.769   4.444  18.365  0.00  0.00    +0.000 OA
ATOM     15  C   UNL     1       4.873   3.957  19.123  0.00  0.00    +0.000 C 
ENDBRANCH  11  14
ENDBRANCH   6   8
BRANCH   1  16
ATOM     16  C   UNL     1      -1.122  12.932  21.390  0.00  0.00    +0.000 A 
ATOM     17  C   UNL     1      -0.326  13.971  21.888  0.00  0.00    +0.000 A 
ATOM     18  C   UNL     1      -0.747  14.706  22.999  0.00  0.00    +0.000 A 
ATOM     19  C   UNL     1      -1.964  14.419  23.618  0.00  0.00    +0.000 A 
ATOM     20  C   UNL     1      -2.782  13.393  23.127  0.00  0.00    +0.000 A 
ATOM     21  C   UNL     1      -2.349  12.654  22.011  0.00  0.00    +0.000 A 
BRANCH  20  22
ATOM     22  C   UNL     1      -4.109  13.070  23.768  0.00  0.00    +0.000 C 
ATOM     23  F   UNL     1      -5.079  12.722  22.876  0.00  0.00    +0.000 F 
ATOM     24  F   UNL     1      -4.026  12.037  24.650  0.00  0.00    +0.000 F 
ATOM     25  F   UNL     1      -4.616  14.121  24.473  0.00  0.00    +0.000 F 
ENDBRANCH  20  22
ENDBRANCH   1  16
BRANCH   1  26
ATOM     26  C   UNL     1      -1.010  12.615  18.873  0.00  0.00    +0.000 C 
ATOM     27  O   UNL     1      -0.480  13.608  18.392  0.00  0.00    +0.000 OA
BRANCH  26  29
ATOM     28  C   UNL     1      -3.213  11.819  18.631  0.00  0.00    +0.000 C 
ATOM     29  O   UNL     1      -1.849  11.786  18.204  0.00  0.00    +0.000 OA
ENDBRANCH  26  29
ENDBRANCH   1  26
BRANCH   7  30
ATOM     30  O   UNL     1      -0.197   9.654  18.435  0.00  0.00    +0.000 OA
ATOM     31  H   UNL     1      -1.076  10.077  18.405  0.00  0.00    +0.000 HD
ENDBRANCH   7  30
TORSDOF 7
ENDMDL
