MODEL 1
REMARK VINA RESULT:      -6.0      0.000      0.000
REMARK  Name = 
REMARK  2 active torsions:
REMARK  status: ('A' for Active; 'I' for Inactive)
REMARK    1  A    between atoms: C_1  and  N_2
REMARK    2  A    between atoms: C_15  and  C_16
REMARK                            x       y       z     vdW  Elec       q    Type
REMARK                         _______ _______ _______ _____ _____    ______ ____
ROOT
ATOM      1  C   UNL     1      -1.592  15.829  25.870  0.00  0.00    +0.000 C 
ATOM      2  N   UNL     1      -1.777  14.758  24.896  0.00  0.00    +0.000 NA
ATOM      3  C   UNL     1      -1.155  15.101  23.594  0.00  0.00    +0.000 C 
ATOM      4  C   UNL     1      -1.365  13.996  22.521  0.00  0.00    +0.000 C 
ATOM      5  N   UNL     1      -2.801  13.746  22.382  0.00  0.00    +0.000 N 
ATOM      6  C   UNL     1      -3.390  13.463  21.159  0.00  0.00    +0.000 C 
ATOM      7  N   UNL     1      -2.970  12.453  20.445  0.00  0.00    +0.000 NA
ATOM      8  C   UNL     1      -3.487  12.075  19.182  0.00  0.00    +0.000 A 
ATOM      9  C   UNL     1      -2.584  11.573  18.238  0.00  0.00    +0.000 A 
ATOM     10  C   UNL     1      -3.005  11.141  16.975  0.00  0.00    +0.000 A 
ATOM     11  C   UNL     1      -4.353  11.201  16.628  0.00  0.00    +0.000 A 
ATOM     12  C   UNL     1      -5.274  11.672  17.553  0.00  0.00    +0.000 A 
ATOM     13  C   UNL     1      -4.851  12.078  18.833  0.00  0.00    +0.000 A 
ATOM     14  C   UNL     1      -5.837  12.615  19.788  0.00  0.00    +0.000 C 
ATOM     15  C   UNL     1      -6.803  11.847  20.329  0.00  0.00    +0.000 C 
ATOM     16  C   UNL     1      -5.679  14.013  20.196  0.00  0.00    +0.000 A 
ATOM     17  C   UNL     1      -6.655  14.967  19.860  0.00  0.00    +0.000 A 
ATOM     18  C   UNL     1      -6.434  16.320  20.120  0.00  0.00    +0.000 A 
ATOM     19  C   UNL     1      -5.248  16.732  20.718  0.00  0.00    +0.000 A 
ATOM     20  C   UNL     1      -4.274  15.789  21.047  0.00  0.00    +0.000 A 
ATOM     21  C   UNL     1      -4.478  14.430  20.772  0.00  0.00    +0.000 A 
ATOM     22  C   UNL     1      -3.448  13.363  23.642  0.00  0.00    +0.000 C 
ATOM     23  C   UNL     1      -3.216  14.469  24.696  0.00  0.00    +0.000 C 
ENDROOT
BRANCH  15  24
ATOM     24  C   UNL     1      -6.966  10.391  19.927  0.00  0.00    +0.000 C 
ATOM     25  N   UNL     1      -7.101   9.182  19.593  0.00  0.00    +0.000 NA
ENDBRANCH  15  24
TORSDOF 1
ENDMDL
MODEL 2
REMARK VINA RESULT:      -6.0      2.581      5.312
REMARK  Name = 
REMARK  2 active torsions:
REMARK  status: ('A' for Active; 'I' for Inactive)
REMARK    1  A    between atoms: C_1  and  N_2
REMARK    2  A    between atoms: C_15  and  C_16
REMARK                            x       y       z     vdW  Elec       q    Type
REMARK                         _______ _______ _______ _____ _____    ______ ____
ROOT
ATOM      1  C   UNL     1       2.627  13.187  18.186  0.00  0.00    +0.000 C 
ATOM      2  N   UNL     1       1.679  13.522  19.244  0.00  0.00    +0.000 NA
ATOM      3  C   UNL     1       1.320  12.326  20.044  0.00  0.00    +0.000 C 
ATOM      4  C   UNL     1       0.282  12.641  21.158  0.00  0.00    +0.000 C 
ATOM      5  N   UNL     1      -0.897  13.249  20.539  0.00  0.00    +0.000 N 
ATOM      6  C   UNL     1      -2.185  12.989  20.983  0.00  0.00    +0.000 C 
ATOM      7  N   UNL     1      -2.509  13.214  22.229  0.00  0.00    +0.000 NA
ATOM      8  C   UNL     1      -3.785  12.978  22.796  0.00  0.00    +0.000 A 
ATOM      9  C   UNL     1      -3.831  12.524  24.119  0.00  0.00    +0.000 A 
ATOM     10  C   UNL     1      -5.045  12.296  24.776  0.00  0.00    +0.000 A 
ATOM     11  C   UNL     1      -6.252  12.524  24.117  0.00  0.00    +0.000 A 
ATOM     12  C   UNL     1      -6.236  12.997  22.813  0.00  0.00    +0.000 A 
ATOM     13  C   UNL     1      -5.013  13.254  22.164  0.00  0.00    +0.000 A 
ATOM     14  C   UNL     1      -5.015  13.716  20.764  0.00  0.00    +0.000 C 
ATOM     15  C   UNL     1      -5.479  14.931  20.412  0.00  0.00    +0.000 C 
ATOM     16  C   UNL     1      -4.413  12.829  19.767  0.00  0.00    +0.000 A 
ATOM     17  C   UNL     1      -5.203  12.256  18.755  0.00  0.00    +0.000 A 
ATOM     18  C   UNL     1      -4.660  11.300  17.897  0.00  0.00    +0.000 A 
ATOM     19  C   UNL     1      -3.332  10.909  18.035  0.00  0.00    +0.000 A 
ATOM     20  C   UNL     1      -2.547  11.470  19.043  0.00  0.00    +0.000 A 
ATOM     21  C   UNL     1      -3.089  12.417  19.922  0.00  0.00    +0.000 A 
ATOM     22  C   UNL     1      -0.591  14.461  19.771  0.00  0.00    +0.000 C 
ATOM     23  C   UNL     1       0.450  14.127  18.678  0.00  0.00    +0.000 C 
ENDROOT
BRANCH  15  24
ATOM     24  C   UNL     1      -6.090  15.868  21.440  0.00  0.00    +0.000 C 
ATOM     25  N   UNL     1      -6.598  16.645  22.294  0.00  0.00    +0.000 NA
ENDBRANCH  15  24
TORSDOF 1
ENDMDL
MODEL 3
REMARK VINA RESULT:      -5.9      2.960      5.554
REMARK  Name = 
REMARK  2 active torsions:
REMARK  status: ('A' for Active; 'I' for Inactive)
REMARK    1  A    between atoms: C_1  and  N_2
REMARK    2  A    between atoms: C_15  and  C_16
REMARK                            x       y       z     vdW  Elec       q    Type
REMARK                         _______ _______ _______ _____ _____    ______ ____
ROOT
ATOM      1  C   UNL     1      -7.702  14.185  21.991  0.00  0.00    +0.000 C 
ATOM      2  N   UNL     1      -6.243  14.156  22.042  0.00  0.00    +0.000 NA
ATOM      3  C   UNL     1      -5.649  14.907  20.910  0.00  0.00    +0.000 C 
ATOM      4  C   UNL     1      -4.095  14.865  20.913  0.00  0.00    +0.000 C 
ATOM      5  N   UNL     1      -3.666  13.466  20.916  0.00  0.00    +0.000 N 
ATOM      6  C   UNL     1      -2.550  13.030  20.217  0.00  0.00    +0.000 C 
ATOM      7  N   UNL     1      -1.381  13.570  20.442  0.00  0.00    +0.000 NA
ATOM      8  C   UNL     1      -0.179  13.215  19.784  0.00  0.00    +0.000 A 
ATOM      9  C   UNL     1       0.737  14.239  19.514  0.00  0.00    +0.000 A 
ATOM     10  C   UNL     1       1.967  13.982  18.898  0.00  0.00    +0.000 A 
ATOM     11  C   UNL     1       2.313  12.680  18.541  0.00  0.00    +0.000 A 
ATOM     12  C   UNL     1       1.435  11.642  18.819  0.00  0.00    +0.000 A 
ATOM     13  C   UNL     1       0.211  11.900  19.464  0.00  0.00    +0.000 A 
ATOM     14  C   UNL     1      -0.729  10.792  19.713  0.00  0.00    +0.000 C 
ATOM     15  C   UNL     1      -0.454   9.803  20.587  0.00  0.00    +0.000 C 
ATOM     16  C   UNL     1      -2.022  10.844  19.029  0.00  0.00    +0.000 A 
ATOM     17  C   UNL     1      -2.359   9.874  18.069  0.00  0.00    +0.000 A 
ATOM     18  C   UNL     1      -3.525  10.008  17.315  0.00  0.00    +0.000 A 
ATOM     19  C   UNL     1      -4.364  11.101  17.511  0.00  0.00    +0.000 A 
ATOM     20  C   UNL     1      -4.028  12.070  18.457  0.00  0.00    +0.000 A 
ATOM     21  C   UNL     1      -2.849  11.954  19.206  0.00  0.00    +0.000 A 
ATOM     22  C   UNL     1      -4.199  12.696  22.046  0.00  0.00    +0.000 C 
ATOM     23  C   UNL     1      -5.743  12.762  22.029  0.00  0.00    +0.000 C 
ENDROOT
BRANCH  15  24
ATOM     24  C   UNL     1       0.878   9.746  21.316  0.00  0.00    +0.000 C 
ATOM     25  N   UNL     1       1.983   9.699  21.922  0.00  0.00    +0.000 NA
ENDBRANCH  15  24
TORSDOF 1
ENDMDL
MODEL 4
REMARK VINA RESULT:      -5.8      4.538      7.318
REMARK  Name = 
REMARK  2 active torsions:
REMARK  status: ('A' for Active; 'I' for Inactive)
REMARK    1  A    between atoms: C_1  and  N_2
REMARK    2  A    between atoms: C_15  and  C_16
REMARK                            x       y       z     vdW  Elec       q    Type
REMARK                         _______ _______ _______ _____ _____    ______ ____
ROOT
ATOM      1  C   UNL     1      -3.818  12.360  23.956  0.00  0.00    +0.000 C 
ATOM      2  N   UNL     1      -3.207  13.536  23.343  0.00  0.00    +0.000 NA
ATOM      3  C   UNL     1      -3.694  13.736  21.957  0.00  0.00    +0.000 C 
ATOM      4  C   UNL     1      -3.036  14.961  21.262  0.00  0.00    +0.000 C 
ATOM      5  N   UNL     1      -1.582  14.795  21.303  0.00  0.00    +0.000 N 
ATOM      6  C   UNL     1      -0.760  15.188  20.257  0.00  0.00    +0.000 C 
ATOM      7  N   UNL     1      -0.780  16.423  19.833  0.00  0.00    +0.000 NA
ATOM      8  C   UNL     1       0.004  16.935  18.771  0.00  0.00    +0.000 A 
ATOM      9  C   UNL     1      -0.578  17.907  17.948  0.00  0.00    +0.000 A 
ATOM     10  C   UNL     1       0.129  18.496  16.894  0.00  0.00    +0.000 A 
ATOM     11  C   UNL     1       1.449  18.125  16.642  0.00  0.00    +0.000 A 
ATOM     12  C   UNL     1       2.058  17.181  17.456  0.00  0.00    +0.000 A 
ATOM     13  C   UNL     1       1.354  16.612  18.534  0.00  0.00    +0.000 A 
ATOM     14  C   UNL     1       2.002  15.580  19.363  0.00  0.00    +0.000 C 
ATOM     15  C   UNL     1       3.046  15.861  20.169  0.00  0.00    +0.000 C 
ATOM     16  C   UNL     1       1.415  14.238  19.343  0.00  0.00    +0.000 A 
ATOM     17  C   UNL     1       2.139  13.153  18.818  0.00  0.00    +0.000 A 
ATOM     18  C   UNL     1       1.526  11.910  18.664  0.00  0.00    +0.000 A 
ATOM     19  C   UNL     1       0.196  11.735  19.034  0.00  0.00    +0.000 A 
ATOM     20  C   UNL     1      -0.527  12.811  19.548  0.00  0.00    +0.000 A 
ATOM     21  C   UNL     1       0.074  14.069  19.688  0.00  0.00    +0.000 A 
ATOM     22  C   UNL     1      -1.053  14.635  22.662  0.00  0.00    +0.000 C 
ATOM     23  C   UNL     1      -1.730  13.420  23.338  0.00  0.00    +0.000 C 
ENDROOT
BRANCH  15  24
ATOM     24  C   UNL     1       3.653  17.252  20.212  0.00  0.00    +0.000 C 
ATOM     25  N   UNL     1       4.158  18.408  20.247  0.00  0.00    +0.000 NA
ENDBRANCH  15  24
TORSDOF 1
ENDMDL
MODEL 5
REMARK VINA RESULT:      -5.8      2.837      4.849
REMARK  Name = 
REMARK  2 active torsions:
REMARK  status: ('A' for Active; 'I' for Inactive)
REMARK    1  A    between atoms: C_1  and  N_2
REMARK    2  A    between atoms: C_15  and  C_16
REMARK                            x       y       z     vdW  Elec       q    Type
REMARK                         _______ _______ _______ _____ _____    ______ ____
ROOT
ATOM      1  C   UNL     1      -5.134  17.614  24.609  0.00  0.00    +0.000 C 
ATOM      2  N   UNL     1      -4.833  16.240  24.218  0.00  0.00    +0.000 NA
ATOM      3  C   UNL     1      -3.703  15.691  25.006  0.00  0.00    +0.000 C 
ATOM      4  C   UNL     1      -3.331  14.240  24.590  0.00  0.00    +0.000 C 
ATOM      5  N   UNL     1      -3.045  14.225  23.154  0.00  0.00    +0.000 N 
ATOM      6  C   UNL     1      -2.049  13.432  22.604  0.00  0.00    +0.000 C 
ATOM      7  N   UNL     1      -2.060  12.139  22.791  0.00  0.00    +0.000 NA
ATOM      8  C   UNL     1      -1.094  11.234  22.289  0.00  0.00    +0.000 A 
ATOM      9  C   UNL     1      -0.753  10.140  23.092  0.00  0.00    +0.000 A 
ATOM     10  C   UNL     1       0.165   9.173  22.668  0.00  0.00    +0.000 A 
ATOM     11  C   UNL     1       0.765   9.280  21.415  0.00  0.00    +0.000 A 
ATOM     12  C   UNL     1       0.428  10.341  20.587  0.00  0.00    +0.000 A 
ATOM     13  C   UNL     1      -0.518  11.296  21.005  0.00  0.00    +0.000 A 
ATOM     14  C   UNL     1      -0.833  12.440  20.130  0.00  0.00    +0.000 C 
ATOM     15  C   UNL     1      -1.477  12.288  18.956  0.00  0.00    +0.000 C 
ATOM     16  C   UNL     1      -0.489  13.775  20.625  0.00  0.00    +0.000 A 
ATOM     17  C   UNL     1       0.484  14.548  19.968  0.00  0.00    +0.000 A 
ATOM     18  C   UNL     1       0.915  15.753  20.522  0.00  0.00    +0.000 A 
ATOM     19  C   UNL     1       0.381  16.200  21.727  0.00  0.00    +0.000 A 
ATOM     20  C   UNL     1      -0.579  15.431  22.385  0.00  0.00    +0.000 A 
ATOM     21  C   UNL     1      -1.004  14.210  21.847  0.00  0.00    +0.000 A 
ATOM     22  C   UNL     1      -4.156  14.722  22.334  0.00  0.00    +0.000 C 
ATOM     23  C   UNL     1      -4.516  16.160  22.774  0.00  0.00    +0.000 C 
ENDROOT
BRANCH  15  24
ATOM     24  C   UNL     1      -1.854  10.910  18.440  0.00  0.00    +0.000 C 
ATOM     25  N   UNL     1      -2.168   9.765  18.011  0.00  0.00    +0.000 NA
ENDBRANCH  15  24
TORSDOF 1
ENDMDL
MODEL 6
REMARK VINA RESULT:      -5.8      4.087      5.499
REMARK  Name = 
REMARK  2 active torsions:
REMARK  status: ('A' for Active; 'I' for Inactive)
REMARK    1  A    between atoms: C_1  and  N_2
REMARK    2  A    between atoms: C_15  and  C_16
REMARK                            x       y       z     vdW  Elec       q    Type
REMARK                         _______ _______ _______ _____ _____    ______ ____
ROOT
ATOM      1  C   UNL     1       1.413  18.591  21.194  0.00  0.00    +0.000 C 
ATOM      2  N   UNL     1       1.216  17.517  20.225  0.00  0.00    +0.000 NA
ATOM      3  C   UNL     1      -0.221  17.326  19.916  0.00  0.00    +0.000 C 
ATOM      4  C   UNL     1      -0.469  16.165  18.913  0.00  0.00    +0.000 C 
ATOM      5  N   UNL     1       0.132  14.944  19.455  0.00  0.00    +0.000 N 
ATOM      6  C   UNL     1      -0.454  13.696  19.300  0.00  0.00    +0.000 C 
ATOM      7  N   UNL     1      -0.724  13.240  18.106  0.00  0.00    +0.000 NA
ATOM      8  C   UNL     1      -1.328  11.991  17.827  0.00  0.00    +0.000 A 
ATOM      9  C   UNL     1      -2.212  11.927  16.744  0.00  0.00    +0.000 A 
ATOM     10  C   UNL     1      -2.832  10.729  16.370  0.00  0.00    +0.000 A 
ATOM     11  C   UNL     1      -2.572   9.556  17.077  0.00  0.00    +0.000 A 
ATOM     12  C   UNL     1      -1.681   9.585  18.140  0.00  0.00    +0.000 A 
ATOM     13  C   UNL     1      -1.037  10.785  18.496  0.00  0.00    +0.000 A 
ATOM     14  C   UNL     1      -0.126  10.807  19.654  0.00  0.00    +0.000 C 
ATOM     15  C   UNL     1       1.052  10.153  19.650  0.00  0.00    +0.000 C 
ATOM     16  C   UNL     1      -0.514  11.640  20.795  0.00  0.00    +0.000 A 
ATOM     17  C   UNL     1      -0.813  11.051  22.036  0.00  0.00    +0.000 A 
ATOM     18  C   UNL     1      -1.323  11.828  23.077  0.00  0.00    +0.000 A 
ATOM     19  C   UNL     1      -1.534  13.191  22.893  0.00  0.00    +0.000 A 
ATOM     20  C   UNL     1      -1.245  13.777  21.660  0.00  0.00    +0.000 A 
ATOM     21  C   UNL     1      -0.752  13.001  20.603  0.00  0.00    +0.000 A 
ATOM     22  C   UNL     1       1.566  15.078  19.736  0.00  0.00    +0.000 C 
ATOM     23  C   UNL     1       1.789  16.245  20.724  0.00  0.00    +0.000 C 
ENDROOT
BRANCH  15  24
ATOM     24  C   UNL     1       1.474   9.300  18.466  0.00  0.00    +0.000 C 
ATOM     25  N   UNL     1       1.823   8.591  17.483  0.00  0.00    +0.000 NA
ENDBRANCH  15  24
TORSDOF 1
ENDMDL
MODEL 7
REMARK VINA RESULT:      -5.7      2.880      4.513
REMARK  Name = 
REMARK  2 active torsions:
REMARK  status: ('A' for Active; 'I' for Inactive)
REMARK    1  A    between atoms: C_1  and  N_2
REMARK    2  A    between atoms: C_15  and  C_16
REMARK                            x       y       z     vdW  Elec       q    Type
REMARK                         _______ _______ _______ _____ _____    ______ ____
ROOT
ATOM      1  C   UNL     1      -5.091  16.450  24.489  0.00  0.00    +0.000 C 
ATOM      2  N   UNL     1      -4.683  15.163  23.935  0.00  0.00    +0.000 NA
ATOM      3  C   UNL     1      -3.366  14.739  24.469  0.00  0.00    +0.000 C 
ATOM      4  C   UNL     1      -2.884  13.388  23.871  0.00  0.00    +0.000 C 
ATOM      5  N   UNL     1      -2.861  13.505  22.411  0.00  0.00    +0.000 N 
ATOM      6  C   UNL     1      -1.883  12.904  21.633  0.00  0.00    +0.000 C 
ATOM      7  N   UNL     1      -1.685  11.614  21.706  0.00  0.00    +0.000 NA
ATOM      8  C   UNL     1      -0.713  10.895  20.971  0.00  0.00    +0.000 A 
ATOM      9  C   UNL     1      -0.089   9.815  21.607  0.00  0.00    +0.000 A 
ATOM     10  C   UNL     1       0.860   9.023  20.951  0.00  0.00    +0.000 A 
ATOM     11  C   UNL     1       1.205   9.295  19.628  0.00  0.00    +0.000 A 
ATOM     12  C   UNL     1       0.585  10.345  18.965  0.00  0.00    +0.000 A 
ATOM     13  C   UNL     1      -0.391  11.121  19.618  0.00  0.00    +0.000 A 
ATOM     14  C   UNL     1      -1.009  12.258  18.913  0.00  0.00    +0.000 C 
ATOM     15  C   UNL     1      -1.827  12.085  17.856  0.00  0.00    +0.000 C 
ATOM     16  C   UNL     1      -0.764  13.596  19.457  0.00  0.00    +0.000 A 
ATOM     17  C   UNL     1      -0.039  14.543  18.714  0.00  0.00    +0.000 A 
ATOM     18  C   UNL     1       0.318  15.763  19.291  0.00  0.00    +0.000 A 
ATOM     19  C   UNL     1      -0.045  16.049  20.603  0.00  0.00    +0.000 A 
ATOM     20  C   UNL     1      -0.759  15.108  21.345  0.00  0.00    +0.000 A 
ATOM     21  C   UNL     1      -1.105  13.872  20.781  0.00  0.00    +0.000 A 
ATOM     22  C   UNL     1      -4.158  13.882  21.838  0.00  0.00    +0.000 C 
ATOM     23  C   UNL     1      -4.623  15.221  22.456  0.00  0.00    +0.000 C 
ENDROOT
BRANCH  15  24
ATOM     24  C   UNL     1      -2.102  10.701  17.293  0.00  0.00    +0.000 C 
ATOM     25  N   UNL     1      -2.331   9.552  16.825  0.00  0.00    +0.000 NA
ENDBRANCH  15  24
TORSDOF 1
ENDMDL
MODEL 8
REMARK VINA RESULT:      -5.6     11.089     13.760
REMARK  Name = 
REMARK  2 active torsions:
REMARK  status: ('A' for Active; 'I' for Inactive)
REMARK    1  A    between atoms: C_1  and  N_2
REMARK    2  A    between atoms: C_15  and  C_16
REMARK                            x       y       z     vdW  Elec       q    Type
REMARK                         _______ _______ _______ _____ _____    ______ ____
ROOT
ATOM      1  C   UNL     1       6.160  11.850  25.321  0.00  0.00    +0.000 C 
ATOM      2  N   UNL     1       7.307  12.352  24.570  0.00  0.00    +0.000 NA
ATOM      3  C   UNL     1       7.330  13.835  24.550  0.00  0.00    +0.000 C 
ATOM      4  C   UNL     1       8.520  14.403  23.727  0.00  0.00    +0.000 C 
ATOM      5  N   UNL     1       8.459  13.847  22.374  0.00  0.00    +0.000 N 
ATOM      6  C   UNL     1       8.799  14.588  21.251  0.00  0.00    +0.000 C 
ATOM      7  N   UNL     1       9.981  15.137  21.159  0.00  0.00    +0.000 NA
ATOM      8  C   UNL     1      10.435  15.920  20.070  0.00  0.00    +0.000 A 
ATOM      9  C   UNL     1      11.275  17.002  20.357  0.00  0.00    +0.000 A 
ATOM     10  C   UNL     1      11.801  17.813  19.345  0.00  0.00    +0.000 A 
ATOM     11  C   UNL     1      11.498  17.552  18.010  0.00  0.00    +0.000 A 
ATOM     12  C   UNL     1      10.686  16.471  17.695  0.00  0.00    +0.000 A 
ATOM     13  C   UNL     1      10.182  15.640  18.713  0.00  0.00    +0.000 A 
ATOM     14  C   UNL     1       9.288  14.522  18.363  0.00  0.00    +0.000 C 
ATOM     15  C   UNL     1       9.720  13.448  17.674  0.00  0.00    +0.000 C 
ATOM     16  C   UNL     1       7.914  14.582  18.867  0.00  0.00    +0.000 A 
ATOM     17  C   UNL     1       6.834  14.694  17.975  0.00  0.00    +0.000 A 
ATOM     18  C   UNL     1       5.541  14.898  18.459  0.00  0.00    +0.000 A 
ATOM     19  C   UNL     1       5.314  14.988  19.829  0.00  0.00    +0.000 A 
ATOM     20  C   UNL     1       6.385  14.884  20.717  0.00  0.00    +0.000 A 
ATOM     21  C   UNL     1       7.689  14.699  20.239  0.00  0.00    +0.000 A 
ATOM     22  C   UNL     1       8.476  12.380  22.347  0.00  0.00    +0.000 C 
ATOM     23  C   UNL     1       7.293  11.838  23.181  0.00  0.00    +0.000 C 
ENDROOT
BRANCH  15  24
ATOM     24  C   UNL     1      11.148  13.366  17.161  0.00  0.00    +0.000 C 
ATOM     25  N   UNL     1      12.333  13.298  16.734  0.00  0.00    +0.000 NA
ENDBRANCH  15  24
TORSDOF 1
ENDMDL
MODEL 9
REMARK VINA RESULT:      -5.6      6.396      7.996
REMARK  Name = 
REMARK  2 active torsions:
REMARK  status: ('A' for Active; 'I' for Inactive)
REMARK    1  A    between atoms: C_1  and  N_2
REMARK    2  A    between atoms: C_15  and  C_16
REMARK                            x       y       z     vdW  Elec       q    Type
REMARK                         _______ _______ _______ _____ _____    ______ ____
ROOT
ATOM      1  C   UNL     1       8.312  17.368  18.346  0.00  0.00    +0.000 C 
ATOM      2  N   UNL     1       7.356  16.395  18.866  0.00  0.00    +0.000 NA
ATOM      3  C   UNL     1       6.812  15.541  17.783  0.00  0.00    +0.000 C 
ATOM      4  C   UNL     1       5.762  14.517  18.297  0.00  0.00    +0.000 C 
ATOM      5  N   UNL     1       4.700  15.246  18.993  0.00  0.00    +0.000 N 
ATOM      6  C   UNL     1       3.368  14.867  18.920  0.00  0.00    +0.000 C 
ATOM      7  N   UNL     1       3.008  13.661  19.271  0.00  0.00    +0.000 NA
ATOM      8  C   UNL     1       1.685  13.160  19.229  0.00  0.00    +0.000 A 
ATOM      9  C   UNL     1       1.513  11.815  18.881  0.00  0.00    +0.000 A 
ATOM     10  C   UNL     1       0.246  11.220  18.846  0.00  0.00    +0.000 A 
ATOM     11  C   UNL     1      -0.886  11.966  19.166  0.00  0.00    +0.000 A 
ATOM     12  C   UNL     1      -0.744  13.296  19.538  0.00  0.00    +0.000 A 
ATOM     13  C   UNL     1       0.534  13.883  19.601  0.00  0.00    +0.000 A 
ATOM     14  C   UNL     1       0.664  15.307  19.956  0.00  0.00    +0.000 C 
ATOM     15  C   UNL     1       0.371  15.767  21.189  0.00  0.00    +0.000 C 
ATOM     16  C   UNL     1       1.206  16.205  18.934  0.00  0.00    +0.000 A 
ATOM     17  C   UNL     1       0.407  17.224  18.386  0.00  0.00    +0.000 A 
ATOM     18  C   UNL     1       0.875  17.982  17.313  0.00  0.00    +0.000 A 
ATOM     19  C   UNL     1       2.136  17.737  16.780  0.00  0.00    +0.000 A 
ATOM     20  C   UNL     1       2.929  16.721  17.316  0.00  0.00    +0.000 A 
ATOM     21  C   UNL     1       2.460  15.942  18.382  0.00  0.00    +0.000 A 
ATOM     22  C   UNL     1       5.192  16.072  20.101  0.00  0.00    +0.000 C 
ATOM     23  C   UNL     1       6.242  17.074  19.568  0.00  0.00    +0.000 C 
ENDROOT
BRANCH  15  24
ATOM     24  C   UNL     1      -0.176  14.843  22.263  0.00  0.00    +0.000 C 
ATOM     25  N   UNL     1      -0.630  14.074  23.155  0.00  0.00    +0.000 NA
ENDBRANCH  15  24
TORSDOF 1
ENDMDL
