MODEL 1
REMARK VINA RESULT:      -7.3      0.000      0.000
REMARK  Name = 
REMARK  3 active torsions:
REMARK  status: ('A' for Active; 'I' for Inactive)
REMARK    1  A    between atoms: C_4  and  O_5
REMARK    2  A    between atoms: C_10  and  C_11
REMARK    3  A    between atoms: C_17  and  C_18
REMARK                            x       y       z     vdW  Elec       q    Type
REMARK                         _______ _______ _______ _____ _____    ______ ____
ROOT
ATOM      1  O   UNL     1      -0.823   8.466  22.524  0.00  0.00    +0.000 OA
ATOM      2  C   UNL     1      -0.131   8.664  21.530  0.00  0.00    +0.000 A 
ATOM      3  C   UNL     1      -0.172   9.987  20.843  0.00  0.00    +0.000 A 
ATOM      4  C   UNL     1       0.577  10.222  19.758  0.00  0.00    +0.000 A 
ATOM      5  C   UNL     1       1.414   9.175  19.284  0.00  0.00    +0.000 A 
ATOM      6  S   UNL     1       2.449   9.274  17.933  0.00  0.00    +0.000 S 
ATOM      7  C   UNL     1       2.990   7.670  18.145  0.00  0.00    +0.000 A 
ATOM      8  N   UNL     1       3.895   7.149  17.287  0.00  0.00    +0.000 NA
ATOM      9  C   UNL     1       4.219   5.864  17.519  0.00  0.00    +0.000 A 
ATOM     10  C   UNL     1       3.721   5.132  18.589  0.00  0.00    +0.000 A 
ATOM     11  C   UNL     1       2.786   5.691  19.472  0.00  0.00    +0.000 A 
ATOM     12  C   UNL     1       2.395   7.032  19.233  0.00  0.00    +0.000 A 
ATOM     13  C   UNL     1       1.483   7.933  19.884  0.00  0.00    +0.000 A 
ATOM     14  N   UNL     1       0.697   7.699  21.007  0.00  0.00    +0.000 N 
ATOM     15  H   UNL     1       0.706   6.808  21.487  0.00  0.00    +0.000 HD
ENDROOT
BRANCH   9  16
ATOM     16  C   UNL     1       5.129   5.259  16.532  0.00  0.00    +0.000 A 
ATOM     17  C   UNL     1       4.883   4.282  15.580  0.00  0.00    +0.000 A 
ATOM     18  C   UNL     1       6.038   3.974  14.797  0.00  0.00    +0.000 A 
ATOM     19  C   UNL     1       7.139   4.696  15.191  0.00  0.00    +0.000 A 
ATOM     20  S   UNL     1       6.790   5.728  16.498  0.00  0.00    +0.000 S 
ENDBRANCH   9  16
BRANCH  11  21
ATOM     21  C   UNL     1       2.250   4.844  20.591  0.00  0.00    +0.000 C 
ATOM     22  F   UNL     1       2.490   5.354  21.830  0.00  0.00    +0.000 F 
ATOM     23  F   UNL     1       0.902   4.674  20.510  0.00  0.00    +0.000 F 
ATOM     24  F   UNL     1       2.778   3.591  20.594  0.00  0.00    +0.000 F 
ENDBRANCH  11  21
BRANCH   4  25
ATOM     25  O   UNL     1       0.593  11.409  19.067  0.00  0.00    +0.000 OA
ATOM     26  H   UNL     1       1.415  11.462  18.550  0.00  0.00    +0.000 HD
ENDBRANCH   4  25
TORSDOF 3
ENDMDL
MODEL 2
REMARK VINA RESULT:      -6.7      3.369      6.736
REMARK  Name = 
REMARK  3 active torsions:
REMARK  status: ('A' for Active; 'I' for Inactive)
REMARK    1  A    between atoms: C_4  and  O_5
REMARK    2  A    between atoms: C_10  and  C_11
REMARK    3  A    between atoms: C_17  and  C_18
REMARK                            x       y       z     vdW  Elec       q    Type
REMARK                         _______ _______ _______ _____ _____    ______ ____
ROOT
ATOM      1  O   UNL     1       1.898   4.391  21.477  0.00  0.00    +0.000 OA
ATOM      2  C   UNL     1       2.070   5.284  20.654  0.00  0.00    +0.000 A 
ATOM      3  C   UNL     1       2.808   5.002  19.389  0.00  0.00    +0.000 A 
ATOM      4  C   UNL     1       3.005   5.964  18.478  0.00  0.00    +0.000 A 
ATOM      5  C   UNL     1       2.486   7.259  18.751  0.00  0.00    +0.000 A 
ATOM      6  S   UNL     1       2.617   8.611  17.722  0.00  0.00    +0.000 S 
ATOM      7  C   UNL     1       1.762   9.608  18.811  0.00  0.00    +0.000 A 
ATOM      8  N   UNL     1       1.546  10.906  18.504  0.00  0.00    +0.000 NA
ATOM      9  C   UNL     1       0.901  11.612  19.450  0.00  0.00    +0.000 A 
ATOM     10  C   UNL     1       0.430  11.053  20.632  0.00  0.00    +0.000 A 
ATOM     11  C   UNL     1       0.659   9.701  20.931  0.00  0.00    +0.000 A 
ATOM     12  C   UNL     1       1.369   8.940  19.970  0.00  0.00    +0.000 A 
ATOM     13  C   UNL     1       1.800   7.569  19.908  0.00  0.00    +0.000 A 
ATOM     14  N   UNL     1       1.606   6.564  20.849  0.00  0.00    +0.000 N 
ATOM     15  H   UNL     1       1.111   6.733  21.716  0.00  0.00    +0.000 HD
ENDROOT
BRANCH   9  16
ATOM     16  C   UNL     1       0.748  13.048  19.167  0.00  0.00    +0.000 A 
ATOM     17  C   UNL     1      -0.404  13.797  18.974  0.00  0.00    +0.000 A 
ATOM     18  C   UNL     1      -0.127  15.177  18.734  0.00  0.00    +0.000 A 
ATOM     19  C   UNL     1       1.221  15.442  18.717  0.00  0.00    +0.000 A 
ATOM     20  S   UNL     1       2.148  14.038  18.977  0.00  0.00    +0.000 S 
ENDBRANCH   9  16
BRANCH  11  21
ATOM     21  C   UNL     1       0.162   9.155  22.239  0.00  0.00    +0.000 C 
ATOM     22  F   UNL     1      -0.716   8.123  22.106  0.00  0.00    +0.000 F 
ATOM     23  F   UNL     1       1.172   8.690  23.022  0.00  0.00    +0.000 F 
ATOM     24  F   UNL     1      -0.478  10.095  22.986  0.00  0.00    +0.000 F 
ENDBRANCH  11  21
BRANCH   4  25
ATOM     25  O   UNL     1       3.677   5.786  17.293  0.00  0.00    +0.000 OA
ATOM     26  H   UNL     1       4.423   6.409  17.258  0.00  0.00    +0.000 HD
ENDBRANCH   4  25
TORSDOF 3
ENDMDL
MODEL 3
REMARK VINA RESULT:      -6.7      3.628      7.338
REMARK  Name = 
REMARK  3 active torsions:
REMARK  status: ('A' for Active; 'I' for Inactive)
REMARK    1  A    between atoms: C_4  and  O_5
REMARK    2  A    between atoms: C_10  and  C_11
REMARK    3  A    between atoms: C_17  and  C_18
REMARK                            x       y       z     vdW  Elec       q    Type
REMARK                         _______ _______ _______ _____ _____    ______ ____
ROOT
ATOM      1  O   UNL     1       2.057   5.054  21.300  0.00  0.00    +0.000 OA
ATOM      2  C   UNL     1       2.074   6.030  20.556  0.00  0.00    +0.000 A 
ATOM      3  C   UNL     1       2.788   5.960  19.248  0.00  0.00    +0.000 A 
ATOM      4  C   UNL     1       2.816   7.015  18.423  0.00  0.00    +0.000 A 
ATOM      5  C   UNL     1       2.142   8.199  18.829  0.00  0.00    +0.000 A 
ATOM      6  S   UNL     1       2.049   9.640  17.924  0.00  0.00    +0.000 S 
ATOM      7  C   UNL     1       1.117  10.415  19.125  0.00  0.00    +0.000 A 
ATOM      8  N   UNL     1       0.718  11.692  18.944  0.00  0.00    +0.000 NA
ATOM      9  C   UNL     1       0.027  12.220  19.970  0.00  0.00    +0.000 A 
ATOM     10  C   UNL     1      -0.315  11.503  21.110  0.00  0.00    +0.000 A 
ATOM     11  C   UNL     1       0.104  10.174  21.278  0.00  0.00    +0.000 A 
ATOM     12  C   UNL     1       0.867   9.602  20.230  0.00  0.00    +0.000 A 
ATOM     13  C   UNL     1       1.472   8.313  20.030  0.00  0.00    +0.000 A 
ATOM     14  N   UNL     1       1.454   7.213  20.882  0.00  0.00    +0.000 N 
ATOM     15  H   UNL     1       0.978   7.238  21.775  0.00  0.00    +0.000 HD
ENDROOT
BRANCH   9  16
ATOM     16  C   UNL     1      -0.327  13.641  19.824  0.00  0.00    +0.000 A 
ATOM     17  C   UNL     1       0.086  14.566  18.876  0.00  0.00    +0.000 A 
ATOM     18  C   UNL     1      -0.502  15.853  19.072  0.00  0.00    +0.000 A 
ATOM     19  C   UNL     1      -1.319  15.888  20.176  0.00  0.00    +0.000 A 
ATOM     20  S   UNL     1      -1.371  14.388  20.978  0.00  0.00    +0.000 S 
ENDBRANCH   9  16
BRANCH  11  21
ATOM     21  C   UNL     1      -0.259   9.455  22.546  0.00  0.00    +0.000 C 
ATOM     22  F   UNL     1      -1.034  10.188  23.391  0.00  0.00    +0.000 F 
ATOM     23  F   UNL     1      -0.947   8.305  22.309  0.00  0.00    +0.000 F 
ATOM     24  F   UNL     1       0.834   9.087  23.266  0.00  0.00    +0.000 F 
ENDBRANCH  11  21
BRANCH   4  25
ATOM     25  O   UNL     1       3.454   7.032  17.206  0.00  0.00    +0.000 OA
ATOM     26  H   UNL     1       3.865   6.165  17.054  0.00  0.00    +0.000 HD
ENDBRANCH   4  25
TORSDOF 3
ENDMDL
MODEL 4
REMARK VINA RESULT:      -6.7      2.991      6.546
REMARK  Name = 
REMARK  3 active torsions:
REMARK  status: ('A' for Active; 'I' for Inactive)
REMARK    1  A    between atoms: C_4  and  O_5
REMARK    2  A    between atoms: C_10  and  C_11
REMARK    3  A    between atoms: C_17  and  C_18
REMARK                            x       y       z     vdW  Elec       q    Type
REMARK                         _______ _______ _______ _____ _____    ______ ____
ROOT
ATOM      1  O   UNL     1       5.001   2.506  16.801  0.00  0.00    +0.000 OA
ATOM      2  C   UNL     1       4.702   3.690  16.927  0.00  0.00    +0.000 A 
ATOM      3  C   UNL     1       5.244   4.703  15.978  0.00  0.00    +0.000 A 
ATOM      4  C   UNL     1       4.927   5.999  16.099  0.00  0.00    +0.000 A 
ATOM      5  C   UNL     1       4.057   6.378  17.156  0.00  0.00    +0.000 A 
ATOM      6  S   UNL     1       3.525   7.965  17.476  0.00  0.00    +0.000 S 
ATOM      7  C   UNL     1       2.597   7.458  18.815  0.00  0.00    +0.000 A 
ATOM      8  N   UNL     1       1.897   8.367  19.529  0.00  0.00    +0.000 NA
ATOM      9  C   UNL     1       1.237   7.867  20.589  0.00  0.00    +0.000 A 
ATOM     10  C   UNL     1       1.213   6.514  20.905  0.00  0.00    +0.000 A 
ATOM     11  C   UNL     1       1.942   5.584  20.149  0.00  0.00    +0.000 A 
ATOM     12  C   UNL     1       2.679   6.085  19.047  0.00  0.00    +0.000 A 
ATOM     13  C   UNL     1       3.533   5.477  18.063  0.00  0.00    +0.000 A 
ATOM     14  N   UNL     1       3.872   4.135  17.930  0.00  0.00    +0.000 N 
ATOM     15  H   UNL     1       3.519   3.431  18.565  0.00  0.00    +0.000 HD
ENDROOT
BRANCH   9  16
ATOM     16  C   UNL     1       0.552   8.863  21.428  0.00  0.00    +0.000 A 
ATOM     17  C   UNL     1      -0.160   8.692  22.607  0.00  0.00    +0.000 A 
ATOM     18  C   UNL     1      -0.664   9.923  23.127  0.00  0.00    +0.000 A 
ATOM     19  C   UNL     1      -0.356  10.993  22.321  0.00  0.00    +0.000 A 
ATOM     20  S   UNL     1       0.524  10.519  20.943  0.00  0.00    +0.000 S 
ENDBRANCH   9  16
BRANCH  11  21
ATOM     21  C   UNL     1       1.913   4.138  20.555  0.00  0.00    +0.000 C 
ATOM     22  F   UNL     1       1.414   3.308  19.599  0.00  0.00    +0.000 F 
ATOM     23  F   UNL     1       3.150   3.661  20.858  0.00  0.00    +0.000 F 
ATOM     24  F   UNL     1       1.156   3.925  21.666  0.00  0.00    +0.000 F 
ENDBRANCH  11  21
BRANCH   4  25
ATOM     25  O   UNL     1       5.388   6.992  15.269  0.00  0.00    +0.000 OA
ATOM     26  H   UNL     1       5.462   7.818  15.777  0.00  0.00    +0.000 HD
ENDBRANCH   4  25
TORSDOF 3
ENDMDL
MODEL 5
REMARK VINA RESULT:      -6.6      3.602      7.414
REMARK  Name = 
REMARK  3 active torsions:
REMARK  status: ('A' for Active; 'I' for Inactive)
REMARK    1  A    between atoms: C_4  and  O_5
REMARK    2  A    between atoms: C_10  and  C_11
REMARK    3  A    between atoms: C_17  and  C_18
REMARK                            x       y       z     vdW  Elec       q    Type
REMARK                         _______ _______ _______ _____ _____    ______ ____
ROOT
ATOM      1  O   UNL     1       2.082   5.175  21.236  0.00  0.00    +0.000 OA
ATOM      2  C   UNL     1       2.068   6.171  20.520  0.00  0.00    +0.000 A 
ATOM      3  C   UNL     1       2.763   6.153  19.201  0.00  0.00    +0.000 A 
ATOM      4  C   UNL     1       2.757   7.231  18.406  0.00  0.00    +0.000 A 
ATOM      5  C   UNL     1       2.066   8.389  18.855  0.00  0.00    +0.000 A 
ATOM      6  S   UNL     1       1.931   9.853  17.993  0.00  0.00    +0.000 S 
ATOM      7  C   UNL     1       1.002  10.574  19.229  0.00  0.00    +0.000 A 
ATOM      8  N   UNL     1       0.575  11.848  19.091  0.00  0.00    +0.000 NA
ATOM      9  C   UNL     1      -0.111  12.333  20.142  0.00  0.00    +0.000 A 
ATOM     10  C   UNL     1      -0.421  11.577  21.266  0.00  0.00    +0.000 A 
ATOM     11  C   UNL     1       0.027  10.253  21.390  0.00  0.00    +0.000 A 
ATOM     12  C   UNL     1       0.785   9.726  20.315  0.00  0.00    +0.000 A 
ATOM     13  C   UNL     1       1.412   8.455  20.069  0.00  0.00    +0.000 A 
ATOM     14  N   UNL     1       1.429   7.332  20.889  0.00  0.00    +0.000 N 
ATOM     15  H   UNL     1       0.967   7.322  21.789  0.00  0.00    +0.000 HD
ENDROOT
BRANCH   9  16
ATOM     16  C   UNL     1      -0.495  13.750  20.041  0.00  0.00    +0.000 A 
ATOM     17  C   UNL     1      -1.545  14.430  20.643  0.00  0.00    +0.000 A 
ATOM     18  C   UNL     1      -1.569  15.816  20.298  0.00  0.00    +0.000 A 
ATOM     19  C   UNL     1      -0.564  16.152  19.423  0.00  0.00    +0.000 A 
ATOM     20  S   UNL     1       0.395  14.808  19.009  0.00  0.00    +0.000 S 
ENDBRANCH   9  16
BRANCH  11  21
ATOM     21  C   UNL     1      -0.303   9.491  22.642  0.00  0.00    +0.000 C 
ATOM     22  F   UNL     1       0.788   9.150  23.381  0.00  0.00    +0.000 F 
ATOM     23  F   UNL     1      -1.117  10.194  23.475  0.00  0.00    +0.000 F 
ATOM     24  F   UNL     1      -0.959   8.327  22.384  0.00  0.00    +0.000 F 
ENDBRANCH  11  21
BRANCH   4  25
ATOM     25  O   UNL     1       3.376   7.296  17.181  0.00  0.00    +0.000 OA
ATOM     26  H   UNL     1       3.393   8.222  16.886  0.00  0.00    +0.000 HD
ENDBRANCH   4  25
TORSDOF 3
ENDMDL
MODEL 6
REMARK VINA RESULT:      -6.4      3.749      4.830
REMARK  Name = 
REMARK  3 active torsions:
REMARK  status: ('A' for Active; 'I' for Inactive)
REMARK    1  A    between atoms: C_4  and  O_5
REMARK    2  A    between atoms: C_10  and  C_11
REMARK    3  A    between atoms: C_17  and  C_18
REMARK                            x       y       z     vdW  Elec       q    Type
REMARK                         _______ _______ _______ _____ _____    ______ ____
ROOT
ATOM      1  O   UNL     1       0.169  13.620  19.180  0.00  0.00    +0.000 OA
ATOM      2  C   UNL     1       0.146  12.641  19.920  0.00  0.00    +0.000 A 
ATOM      3  C   UNL     1      -0.470  12.742  21.274  0.00  0.00    +0.000 A 
ATOM      4  C   UNL     1      -0.505  11.685  22.094  0.00  0.00    +0.000 A 
ATOM      5  C   UNL     1       0.058  10.463  21.635  0.00  0.00    +0.000 A 
ATOM      6  S   UNL     1       0.105   9.005  22.516  0.00  0.00    +0.000 S 
ATOM      7  C   UNL     1       0.899   8.184  21.248  0.00  0.00    +0.000 A 
ATOM      8  N   UNL     1       1.228   6.883  21.394  0.00  0.00    +0.000 NA
ATOM      9  C   UNL     1       1.889   6.346  20.353  0.00  0.00    +0.000 A 
ATOM     10  C   UNL     1       2.166   7.042  19.183  0.00  0.00    +0.000 A 
ATOM     11  C   UNL     1       1.812   8.393  19.047  0.00  0.00    +0.000 A 
ATOM     12  C   UNL     1       1.147   8.998  20.143  0.00  0.00    +0.000 A 
ATOM     13  C   UNL     1       0.643  10.321  20.392  0.00  0.00    +0.000 A 
ATOM     14  N   UNL     1       0.678  11.428  19.551  0.00  0.00    +0.000 N 
ATOM     15  H   UNL     1       1.094  11.383  18.629  0.00  0.00    +0.000 HD
ENDROOT
BRANCH   9  16
ATOM     16  C   UNL     1       2.336   4.956  20.542  0.00  0.00    +0.000 A 
ATOM     17  C   UNL     1       1.966   4.028  21.505  0.00  0.00    +0.000 A 
ATOM     18  C   UNL     1       2.624   2.771  21.336  0.00  0.00    +0.000 A 
ATOM     19  C   UNL     1       3.498   2.780  20.276  0.00  0.00    +0.000 A 
ATOM     20  S   UNL     1       3.537   4.292  19.495  0.00  0.00    +0.000 S 
ENDBRANCH   9  16
BRANCH  11  21
ATOM     21  C   UNL     1       2.168   9.111  17.777  0.00  0.00    +0.000 C 
ATOM     22  F   UNL     1       2.951  10.209  17.967  0.00  0.00    +0.000 F 
ATOM     23  F   UNL     1       2.844   8.315  16.905  0.00  0.00    +0.000 F 
ATOM     24  F   UNL     1       1.071   9.547  17.101  0.00  0.00    +0.000 F 
ENDBRANCH  11  21
BRANCH   4  25
ATOM     25  O   UNL     1      -1.049  11.698  23.356  0.00  0.00    +0.000 OA
ATOM     26  H   UNL     1      -1.165  10.781  23.659  0.00  0.00    +0.000 HD
ENDBRANCH   4  25
TORSDOF 3
ENDMDL
MODEL 7
REMARK VINA RESULT:      -6.4      5.601      7.859
REMARK  Name = 
REMARK  3 active torsions:
REMARK  status: ('A' for Active; 'I' for Inactive)
REMARK    1  A    between atoms: C_4  and  O_5
REMARK    2  A    between atoms: C_10  and  C_11
REMARK    3  A    between atoms: C_17  and  C_18
REMARK                            x       y       z     vdW  Elec       q    Type
REMARK                         _______ _______ _______ _____ _____    ______ ____
ROOT
ATOM      1  O   UNL     1       9.182   6.064  13.413  0.00  0.00    +0.000 OA
ATOM      2  C   UNL     1       8.155   5.449  13.685  0.00  0.00    +0.000 A 
ATOM      3  C   UNL     1       7.389   4.761  12.607  0.00  0.00    +0.000 A 
ATOM      4  C   UNL     1       6.267   4.085  12.885  0.00  0.00    +0.000 A 
ATOM      5  C   UNL     1       5.831   4.040  14.237  0.00  0.00    +0.000 A 
ATOM      6  S   UNL     1       4.443   3.228  14.801  0.00  0.00    +0.000 S 
ATOM      7  C   UNL     1       4.735   3.703  16.413  0.00  0.00    +0.000 A 
ATOM      8  N   UNL     1       3.882   3.324  17.389  0.00  0.00    +0.000 NA
ATOM      9  C   UNL     1       4.182   3.789  18.615  0.00  0.00    +0.000 A 
ATOM     10  C   UNL     1       5.312   4.550  18.888  0.00  0.00    +0.000 A 
ATOM     11  C   UNL     1       6.190   4.930  17.862  0.00  0.00    +0.000 A 
ATOM     12  C   UNL     1       5.880   4.487  16.552  0.00  0.00    +0.000 A 
ATOM     13  C   UNL     1       6.504   4.665  15.269  0.00  0.00    +0.000 A 
ATOM     14  N   UNL     1       7.665   5.368  14.968  0.00  0.00    +0.000 N 
ATOM     15  H   UNL     1       8.200   5.846  15.682  0.00  0.00    +0.000 HD
ENDROOT
BRANCH   9  16
ATOM     16  C   UNL     1       3.205   3.462  19.667  0.00  0.00    +0.000 A 
ATOM     17  C   UNL     1       3.373   2.743  20.842  0.00  0.00    +0.000 A 
ATOM     18  C   UNL     1       2.171   2.659  21.609  0.00  0.00    +0.000 A 
ATOM     19  C   UNL     1       1.115   3.283  20.991  0.00  0.00    +0.000 A 
ATOM     20  S   UNL     1       1.561   3.957  19.493  0.00  0.00    +0.000 S 
ENDBRANCH   9  16
BRANCH  11  21
ATOM     21  C   UNL     1       7.377   5.785  18.204  0.00  0.00    +0.000 C 
ATOM     22  F   UNL     1       7.468   6.922  17.460  0.00  0.00    +0.000 F 
ATOM     23  F   UNL     1       7.367   6.187  19.503  0.00  0.00    +0.000 F 
ATOM     24  F   UNL     1       8.556   5.130  18.032  0.00  0.00    +0.000 F 
ENDBRANCH  11  21
BRANCH   4  25
ATOM     25  O   UNL     1       5.503   3.428  11.950  0.00  0.00    +0.000 OA
ATOM     26  H   UNL     1       4.781   4.014  11.667  0.00  0.00    +0.000 HD
ENDBRANCH   4  25
TORSDOF 3
ENDMDL
MODEL 8
REMARK VINA RESULT:      -6.4      2.752      3.782
REMARK  Name = 
REMARK  3 active torsions:
REMARK  status: ('A' for Active; 'I' for Inactive)
REMARK    1  A    between atoms: C_4  and  O_5
REMARK    2  A    between atoms: C_10  and  C_11
REMARK    3  A    between atoms: C_17  and  C_18
REMARK                            x       y       z     vdW  Elec       q    Type
REMARK                         _______ _______ _______ _____ _____    ______ ____
ROOT
ATOM      1  O   UNL     1       1.068   3.726  21.577  0.00  0.00    +0.000 OA
ATOM      2  C   UNL     1       1.629   4.464  20.773  0.00  0.00    +0.000 A 
ATOM      3  C   UNL     1       1.476   5.943  20.883  0.00  0.00    +0.000 A 
ATOM      4  C   UNL     1       2.081   6.764  20.016  0.00  0.00    +0.000 A 
ATOM      5  C   UNL     1       2.876   6.184  18.990  0.00  0.00    +0.000 A 
ATOM      6  S   UNL     1       3.735   7.049  17.799  0.00  0.00    +0.000 S 
ATOM      7  C   UNL     1       4.332   5.616  17.091  0.00  0.00    +0.000 A 
ATOM      8  N   UNL     1       5.136   5.688  16.008  0.00  0.00    +0.000 NA
ATOM      9  C   UNL     1       5.514   4.499  15.504  0.00  0.00    +0.000 A 
ATOM     10  C   UNL     1       5.167   3.282  16.076  0.00  0.00    +0.000 A 
ATOM     11  C   UNL     1       4.335   3.227  17.205  0.00  0.00    +0.000 A 
ATOM     12  C   UNL     1       3.889   4.463  17.737  0.00  0.00    +0.000 A 
ATOM     13  C   UNL     1       3.045   4.821  18.844  0.00  0.00    +0.000 A 
ATOM     14  N   UNL     1       2.407   3.978  19.748  0.00  0.00    +0.000 N 
ATOM     15  H   UNL     1       2.494   2.971  19.691  0.00  0.00    +0.000 HD
ENDROOT
BRANCH   9  16
ATOM     16  C   UNL     1       6.309   4.566  14.267  0.00  0.00    +0.000 A 
ATOM     17  C   UNL     1       7.415   5.347  13.964  0.00  0.00    +0.000 A 
ATOM     18  C   UNL     1       7.913   5.105  12.647  0.00  0.00    +0.000 A 
ATOM     19  C   UNL     1       7.160   4.176  11.970  0.00  0.00    +0.000 A 
ATOM     20  S   UNL     1       5.859   3.606  12.906  0.00  0.00    +0.000 S 
ENDBRANCH   9  16
BRANCH  11  21
ATOM     21  C   UNL     1       3.958   1.884  17.763  0.00  0.00    +0.000 C 
ATOM     22  F   UNL     1       4.266   1.730  19.080  0.00  0.00    +0.000 F 
ATOM     23  F   UNL     1       2.625   1.637  17.657  0.00  0.00    +0.000 F 
ATOM     24  F   UNL     1       4.574   0.860  17.113  0.00  0.00    +0.000 F 
ENDBRANCH  11  21
BRANCH   4  25
ATOM     25  O   UNL     1       1.986   8.134  20.047  0.00  0.00    +0.000 OA
ATOM     26  H   UNL     1       1.702   8.410  20.935  0.00  0.00    +0.000 HD
ENDBRANCH   4  25
TORSDOF 3
ENDMDL
MODEL 9
REMARK VINA RESULT:      -6.4      5.008      9.301
REMARK  Name = 
REMARK  3 active torsions:
REMARK  status: ('A' for Active; 'I' for Inactive)
REMARK    1  A    between atoms: C_4  and  O_5
REMARK    2  A    between atoms: C_10  and  C_11
REMARK    3  A    between atoms: C_17  and  C_18
REMARK                            x       y       z     vdW  Elec       q    Type
REMARK                         _______ _______ _______ _____ _____    ______ ____
ROOT
ATOM      1  O   UNL     1       2.370   8.869  17.071  0.00  0.00    +0.000 OA
ATOM      2  C   UNL     1       1.961   8.927  18.226  0.00  0.00    +0.000 A 
ATOM      3  C   UNL     1       2.158   7.772  19.148  0.00  0.00    +0.000 A 
ATOM      4  C   UNL     1       1.720   7.819  20.413  0.00  0.00    +0.000 A 
ATOM      5  C   UNL     1       1.066   9.003  20.850  0.00  0.00    +0.000 A 
ATOM      6  S   UNL     1       0.447   9.268  22.416  0.00  0.00    +0.000 S 
ATOM      7  C   UNL     1      -0.096  10.834  22.012  0.00  0.00    +0.000 A 
ATOM      8  N   UNL     1      -0.727  11.585  22.940  0.00  0.00    +0.000 NA
ATOM      9  C   UNL     1      -1.152  12.785  22.503  0.00  0.00    +0.000 A 
ATOM     10  C   UNL     1      -0.915  13.258  21.218  0.00  0.00    +0.000 A 
ATOM     11  C   UNL     1      -0.253  12.464  20.269  0.00  0.00    +0.000 A 
ATOM     12  C   UNL     1       0.174  11.180  20.688  0.00  0.00    +0.000 A 
ATOM     13  C   UNL     1       0.857  10.096  20.033  0.00  0.00    +0.000 A 
ATOM     14  N   UNL     1       1.311  10.035  18.721  0.00  0.00    +0.000 N 
ATOM     15  H   UNL     1       1.187  10.805  18.076  0.00  0.00    +0.000 HD
ENDROOT
BRANCH   9  16
ATOM     16  C   UNL     1      -1.925  13.570  23.478  0.00  0.00    +0.000 A 
ATOM     17  C   UNL     1      -3.208  13.365  23.965  0.00  0.00    +0.000 A 
ATOM     18  C   UNL     1      -3.596  14.354  24.921  0.00  0.00    +0.000 A 
ATOM     19  C   UNL     1      -2.620  15.301  25.115  0.00  0.00    +0.000 A 
ATOM     20  S   UNL     1      -1.250  15.011  24.147  0.00  0.00    +0.000 S 
ENDBRANCH   9  16
BRANCH  11  21
ATOM     21  C   UNL     1      -0.055  13.007  18.882  0.00  0.00    +0.000 C 
ATOM     22  F   UNL     1      -0.716  12.310  17.919  0.00  0.00    +0.000 F 
ATOM     23  F   UNL     1      -0.475  14.296  18.767  0.00  0.00    +0.000 F 
ATOM     24  F   UNL     1       1.253  13.013  18.508  0.00  0.00    +0.000 F 
ENDBRANCH  11  21
BRANCH   4  25
ATOM     25  O   UNL     1       1.857   6.798  21.321  0.00  0.00    +0.000 OA
ATOM     26  H   UNL     1       1.050   6.744  21.860  0.00  0.00    +0.000 HD
ENDBRANCH   4  25
TORSDOF 3
ENDMDL
