MODEL 1
REMARK VINA RESULT:      -7.2      0.000      0.000
REMARK  Name = 
REMARK  12 active torsions:
REMARK  status: ('A' for Active; 'I' for Inactive)
REMARK    1  A    between atoms: C_1  and  C_2
REMARK    2  A    between atoms: C_2  and  C_3
REMARK    3  A    between atoms: C_3  and  N_4
REMARK    4  A    between atoms: N_4  and  C_5
REMARK    5  A    between atoms: C_5  and  C_6
REMARK    6  A    between atoms: C_7  and  C_8
REMARK    7  A    between atoms: N_10  and  C_11
REMARK    8  A    between atoms: C_17  and  O_18
REMARK    9  A    between atoms: O_18  and  C_19
REMARK   10  A    between atoms: C_24  and  O_25
REMARK   11  A    between atoms: O_25  and  C_26
REMARK   12  A    between atoms: C_27  and  C_29
REMARK                            x       y       z     vdW  Elec       q    Type
REMARK                         _______ _______ _______ _____ _____    ______ ____
ROOT
ATOM      1  C   UNL     1      -0.551  10.558  20.813  0.00  0.00    +0.000 A 
ATOM      2  C   UNL     1      -0.039  10.312  22.130  0.00  0.00    +0.000 A 
ATOM      3  C   UNL     1       0.809   9.194  22.617  0.00  0.00    +0.000 C 
ATOM      4  N   UNL     1      -0.373  11.269  22.988  0.00  0.00    +0.000 NA
ATOM      5  N   UNL     1      -1.280  12.034  22.335  0.00  0.00    +0.000 N 
ATOM      6  C   UNL     1      -1.271  11.751  20.947  0.00  0.00    +0.000 A 
ENDROOT
BRANCH   5   7
ATOM      7  C   UNL     1      -2.007  13.012  23.075  0.00  0.00    +0.000 A 
ATOM      8  C   UNL     1      -3.274  12.688  23.584  0.00  0.00    +0.000 A 
ATOM      9  C   UNL     1      -3.901  13.549  24.491  0.00  0.00    +0.000 A 
ATOM     10  C   UNL     1      -3.287  14.745  24.859  0.00  0.00    +0.000 A 
ATOM     11  C   UNL     1      -2.070  15.107  24.287  0.00  0.00    +0.000 A 
ATOM     12  C   UNL     1      -1.441  14.253  23.378  0.00  0.00    +0.000 A 
ENDBRANCH   5   7
BRANCH   1  13
ATOM     13  C   UNL     1      -0.202   9.677  19.633  0.00  0.00    +0.000 C 
BRANCH  13  14
ATOM     14  N   UNL     1       0.994  10.036  18.875  0.00  0.00    +0.000 N 
ATOM     15  C   UNL     1       1.958   9.133  18.393  0.00  0.00    +0.000 C 
ATOM     16  O   UNL     1       2.817   9.481  17.579  0.00  0.00    +0.000 OA
BRANCH  15  17
ATOM     17  C   UNL     1       1.995   7.696  18.790  0.00  0.00    +0.000 A 
ATOM     18  C   UNL     1       2.234   6.746  17.777  0.00  0.00    +0.000 A 
ATOM     19  C   UNL     1       2.392   5.392  18.089  0.00  0.00    +0.000 A 
ATOM     20  C   UNL     1       2.316   4.979  19.417  0.00  0.00    +0.000 A 
ATOM     21 CL   UNL     1       2.546   3.321  19.814  0.00  0.00    +0.000 Cl
ATOM     22  C   UNL     1       2.089   5.910  20.429  0.00  0.00    +0.000 A 
ATOM     23  C   UNL     1       1.950   7.268  20.118  0.00  0.00    +0.000 A 
ENDBRANCH  15  17
BRANCH  14  24
ATOM     24  C   UNL     1       1.045  11.394  18.314  0.00  0.00    +0.000 C 
BRANCH  24  26
ATOM     25  C   UNL     1       2.532  13.512  18.182  0.00  0.00    +0.000 C 
ATOM     26  C   UNL     1       1.984  12.381  19.039  0.00  0.00    +0.000 C 
ENDBRANCH  24  26
ENDBRANCH  14  24
ENDBRANCH  13  14
ENDBRANCH   1  13
BRANCH   6  27
ATOM     27  O   UNL     1      -1.826  12.526  19.994  0.00  0.00    +0.000 OA
BRANCH  27  28
ATOM     28  C   UNL     1      -3.089  12.277  19.466  0.00  0.00    +0.000 A 
ATOM     29  C   UNL     1      -4.239  12.600  20.212  0.00  0.00    +0.000 A 
ATOM     30  C   UNL     1      -5.506  12.175  19.800  0.00  0.00    +0.000 A 
ATOM     31  C   UNL     1      -5.648  11.494  18.598  0.00  0.00    +0.000 A 
ATOM     32  C   UNL     1      -4.523  11.257  17.809  0.00  0.00    +0.000 A 
ATOM     33  C   UNL     1      -3.235  11.635  18.226  0.00  0.00    +0.000 A 
BRANCH  33  34
ATOM     34  O   UNL     1      -2.278  11.221  17.342  0.00  0.00    +0.000 OA
ATOM     35  C   UNL     1      -2.426   9.976  16.683  0.00  0.00    +0.000 C 
ENDBRANCH  33  34
ENDBRANCH  27  28
ENDBRANCH   6  27
TORSDOF 9
ENDMDL
MODEL 2
REMARK VINA RESULT:      -7.0      3.812      8.581
REMARK  Name = 
REMARK  12 active torsions:
REMARK  status: ('A' for Active; 'I' for Inactive)
REMARK    1  A    between atoms: C_1  and  C_2
REMARK    2  A    between atoms: C_2  and  C_3
REMARK    3  A    between atoms: C_3  and  N_4
REMARK    4  A    between atoms: N_4  and  C_5
REMARK    5  A    between atoms: C_5  and  C_6
REMARK    6  A    between atoms: C_7  and  C_8
REMARK    7  A    between atoms: N_10  and  C_11
REMARK    8  A    between atoms: C_17  and  O_18
REMARK    9  A    between atoms: O_18  and  C_19
REMARK   10  A    between atoms: C_24  and  O_25
REMARK   11  A    between atoms: O_25  and  C_26
REMARK   12  A    between atoms: C_27  and  C_29
REMARK                            x       y       z     vdW  Elec       q    Type
REMARK                         _______ _______ _______ _____ _____    ______ ____
ROOT
ATOM      1  C   UNL     1       1.822   8.584  19.397  0.00  0.00    +0.000 A 
ATOM      2  C   UNL     1       1.330   8.550  20.744  0.00  0.00    +0.000 A 
ATOM      3  C   UNL     1       0.988   9.675  21.650  0.00  0.00    +0.000 C 
ATOM      4  N   UNL     1       1.140   7.309  21.180  0.00  0.00    +0.000 NA
ATOM      5  N   UNL     1       1.701   6.510  20.241  0.00  0.00    +0.000 N 
ATOM      6  C   UNL     1       1.954   7.234  19.050  0.00  0.00    +0.000 A 
ENDROOT
BRANCH   5   7
ATOM      7  C   UNL     1       1.868   5.125  20.536  0.00  0.00    +0.000 A 
ATOM      8  C   UNL     1       0.767   4.262  20.434  0.00  0.00    +0.000 A 
ATOM      9  C   UNL     1       0.957   2.878  20.504  0.00  0.00    +0.000 A 
ATOM     10  C   UNL     1       2.234   2.358  20.713  0.00  0.00    +0.000 A 
ATOM     11  C   UNL     1       3.313   3.218  20.901  0.00  0.00    +0.000 A 
ATOM     12  C   UNL     1       3.127   4.600  20.836  0.00  0.00    +0.000 A 
ENDBRANCH   5   7
BRANCH   1  13
ATOM     13  C   UNL     1       1.999   9.879  18.634  0.00  0.00    +0.000 C 
BRANCH  13  14
ATOM     14  N   UNL     1       0.809  10.708  18.461  0.00  0.00    +0.000 N 
ATOM     15  C   UNL     1       0.758  12.105  18.605  0.00  0.00    +0.000 C 
ATOM     16  O   UNL     1      -0.220  12.757  18.229  0.00  0.00    +0.000 OA
BRANCH  15  17
ATOM     17  C   UNL     1       1.881  12.904  19.176  0.00  0.00    +0.000 A 
ATOM     18  C   UNL     1       2.728  13.577  18.273  0.00  0.00    +0.000 A 
ATOM     19  C   UNL     1       3.733  14.433  18.737  0.00  0.00    +0.000 A 
ATOM     20  C   UNL     1       3.894  14.625  20.107  0.00  0.00    +0.000 A 
ATOM     21 CL   UNL     1       5.102  15.704  20.684  0.00  0.00    +0.000 Cl
ATOM     22  C   UNL     1       3.056  13.972  21.009  0.00  0.00    +0.000 A 
ATOM     23  C   UNL     1       2.039  13.130  20.544  0.00  0.00    +0.000 A 
ENDBRANCH  15  17
BRANCH  14  24
ATOM     24  C   UNL     1      -0.345  10.086  17.796  0.00  0.00    +0.000 C 
BRANCH  24  26
ATOM     25  C   UNL     1      -2.928  10.298  17.804  0.00  0.00    +0.000 C 
ATOM     26  C   UNL     1      -1.657  10.074  18.609  0.00  0.00    +0.000 C 
ENDBRANCH  24  26
ENDBRANCH  14  24
ENDBRANCH  13  14
ENDBRANCH   1  13
BRANCH   6  27
ATOM     27  O   UNL     1       2.224   6.682  17.851  0.00  0.00    +0.000 OA
BRANCH  27  28
ATOM     28  C   UNL     1       3.433   6.055  17.568  0.00  0.00    +0.000 A 
ATOM     29  C   UNL     1       4.613   6.818  17.467  0.00  0.00    +0.000 A 
ATOM     30  C   UNL     1       5.797   6.252  16.984  0.00  0.00    +0.000 A 
ATOM     31  C   UNL     1       5.837   4.899  16.672  0.00  0.00    +0.000 A 
ATOM     32  C   UNL     1       4.697   4.119  16.862  0.00  0.00    +0.000 A 
ATOM     33  C   UNL     1       3.485   4.677  17.303  0.00  0.00    +0.000 A 
BRANCH  33  34
ATOM     34  O   UNL     1       2.482   3.749  17.328  0.00  0.00    +0.000 OA
ATOM     35  C   UNL     1       2.805   2.369  17.301  0.00  0.00    +0.000 C 
ENDBRANCH  33  34
ENDBRANCH  27  28
ENDBRANCH   6  27
TORSDOF 9
ENDMDL
MODEL 3
REMARK VINA RESULT:      -7.0      0.756      1.637
REMARK  Name = 
REMARK  12 active torsions:
REMARK  status: ('A' for Active; 'I' for Inactive)
REMARK    1  A    between atoms: C_1  and  C_2
REMARK    2  A    between atoms: C_2  and  C_3
REMARK    3  A    between atoms: C_3  and  N_4
REMARK    4  A    between atoms: N_4  and  C_5
REMARK    5  A    between atoms: C_5  and  C_6
REMARK    6  A    between atoms: C_7  and  C_8
REMARK    7  A    between atoms: N_10  and  C_11
REMARK    8  A    between atoms: C_17  and  O_18
REMARK    9  A    between atoms: O_18  and  C_19
REMARK   10  A    between atoms: C_24  and  O_25
REMARK   11  A    between atoms: O_25  and  C_26
REMARK   12  A    between atoms: C_27  and  C_29
REMARK                            x       y       z     vdW  Elec       q    Type
REMARK                         _______ _______ _______ _____ _____    ______ ____
ROOT
ATOM      1  C   UNL     1      -0.627  10.604  20.857  0.00  0.00    +0.000 A 
ATOM      2  C   UNL     1      -0.157  10.392  22.196  0.00  0.00    +0.000 A 
ATOM      3  C   UNL     1       0.690   9.298  22.734  0.00  0.00    +0.000 C 
ATOM      4  N   UNL     1      -0.535  11.362  23.023  0.00  0.00    +0.000 NA
ATOM      5  N   UNL     1      -1.429  12.100  22.323  0.00  0.00    +0.000 N 
ATOM      6  C   UNL     1      -1.369  11.789  20.943  0.00  0.00    +0.000 A 
ENDROOT
BRANCH   5   7
ATOM      7  C   UNL     1      -2.196  13.081  23.019  0.00  0.00    +0.000 A 
ATOM      8  C   UNL     1      -3.313  12.679  23.766  0.00  0.00    +0.000 A 
ATOM      9  C   UNL     1      -3.940  13.587  24.625  0.00  0.00    +0.000 A 
ATOM     10  C   UNL     1      -3.480  14.900  24.710  0.00  0.00    +0.000 A 
ATOM     11  C   UNL     1      -2.426  15.322  23.903  0.00  0.00    +0.000 A 
ATOM     12  C   UNL     1      -1.799  14.420  23.041  0.00  0.00    +0.000 A 
ENDBRANCH   5   7
BRANCH   1  13
ATOM     13  C   UNL     1      -0.226   9.706  19.708  0.00  0.00    +0.000 C 
BRANCH  13  14
ATOM     14  N   UNL     1       0.954  10.103  18.944  0.00  0.00    +0.000 N 
ATOM     15  C   UNL     1       1.931   9.230  18.435  0.00  0.00    +0.000 C 
ATOM     16  O   UNL     1       2.773   9.610  17.618  0.00  0.00    +0.000 OA
BRANCH  15  17
ATOM     17  C   UNL     1       2.002   7.787  18.805  0.00  0.00    +0.000 A 
ATOM     18  C   UNL     1       2.311   6.866  17.784  0.00  0.00    +0.000 A 
ATOM     19  C   UNL     1       2.504   5.512  18.075  0.00  0.00    +0.000 A 
ATOM     20  C   UNL     1       2.393   5.070  19.392  0.00  0.00    +0.000 A 
ATOM     21 CL   UNL     1       2.664   3.413  19.764  0.00  0.00    +0.000 Cl
ATOM     22  C   UNL     1       2.096   5.972  20.412  0.00  0.00    +0.000 A 
ATOM     23  C   UNL     1       1.922   7.331  20.121  0.00  0.00    +0.000 A 
ENDBRANCH  15  17
BRANCH  14  24
ATOM     24  C   UNL     1       0.970  11.472  18.407  0.00  0.00    +0.000 C 
BRANCH  24  26
ATOM     25  C   UNL     1       1.332  13.899  19.240  0.00  0.00    +0.000 C 
ATOM     26  C   UNL     1       1.864  12.475  19.166  0.00  0.00    +0.000 C 
ENDBRANCH  24  26
ENDBRANCH  14  24
ENDBRANCH  13  14
ENDBRANCH   1  13
BRANCH   6  27
ATOM     27  O   UNL     1      -1.902  12.536  19.956  0.00  0.00    +0.000 OA
BRANCH  27  28
ATOM     28  C   UNL     1      -2.969  12.100  19.177  0.00  0.00    +0.000 A 
ATOM     29  C   UNL     1      -2.725  11.485  17.933  0.00  0.00    +0.000 A 
ATOM     30  C   UNL     1      -3.770  11.226  17.042  0.00  0.00    +0.000 A 
ATOM     31  C   UNL     1      -5.079  11.504  17.414  0.00  0.00    +0.000 A 
ATOM     32  C   UNL     1      -5.334  12.024  18.683  0.00  0.00    +0.000 A 
ATOM     33  C   UNL     1      -4.295  12.334  19.576  0.00  0.00    +0.000 A 
BRANCH  33  34
ATOM     34  O   UNL     1      -4.769  12.916  20.718  0.00  0.00    +0.000 OA
ATOM     35  C   UNL     1      -4.922  14.324  20.775  0.00  0.00    +0.000 C 
ENDBRANCH  33  34
ENDBRANCH  27  28
ENDBRANCH   6  27
TORSDOF 9
ENDMDL
MODEL 4
REMARK VINA RESULT:      -7.0      0.868      1.187
REMARK  Name = 
REMARK  12 active torsions:
REMARK  status: ('A' for Active; 'I' for Inactive)
REMARK    1  A    between atoms: C_1  and  C_2
REMARK    2  A    between atoms: C_2  and  C_3
REMARK    3  A    between atoms: C_3  and  N_4
REMARK    4  A    between atoms: N_4  and  C_5
REMARK    5  A    between atoms: C_5  and  C_6
REMARK    6  A    between atoms: C_7  and  C_8
REMARK    7  A    between atoms: N_10  and  C_11
REMARK    8  A    between atoms: C_17  and  O_18
REMARK    9  A    between atoms: O_18  and  C_19
REMARK   10  A    between atoms: C_24  and  O_25
REMARK   11  A    between atoms: O_25  and  C_26
REMARK   12  A    between atoms: C_27  and  C_29
REMARK                            x       y       z     vdW  Elec       q    Type
REMARK                         _______ _______ _______ _____ _____    ______ ____
ROOT
ATOM      1  C   UNL     1      -0.197  10.149  20.210  0.00  0.00    +0.000 A 
ATOM      2  C   UNL     1       0.325   9.909  21.524  0.00  0.00    +0.000 A 
ATOM      3  C   UNL     1       1.185   8.798  22.008  0.00  0.00    +0.000 C 
ATOM      4  N   UNL     1      -0.009  10.866  22.383  0.00  0.00    +0.000 NA
ATOM      5  N   UNL     1      -0.925  11.624  21.734  0.00  0.00    +0.000 N 
ATOM      6  C   UNL     1      -0.924  11.338  20.347  0.00  0.00    +0.000 A 
ENDROOT
BRANCH   5   7
ATOM      7  C   UNL     1      -1.654  12.598  22.478  0.00  0.00    +0.000 A 
ATOM      8  C   UNL     1      -1.311  13.954  22.357  0.00  0.00    +0.000 A 
ATOM      9  C   UNL     1      -2.147  14.934  22.901  0.00  0.00    +0.000 A 
ATOM     10  C   UNL     1      -3.298  14.565  23.596  0.00  0.00    +0.000 A 
ATOM     11  C   UNL     1      -3.591  13.218  23.790  0.00  0.00    +0.000 A 
ATOM     12  C   UNL     1      -2.758  12.235  23.252  0.00  0.00    +0.000 A 
ENDBRANCH   5   7
BRANCH   1  13
ATOM     13  C   UNL     1       0.150   9.269  19.029  0.00  0.00    +0.000 C 
BRANCH  13  14
ATOM     14  N   UNL     1       1.516   9.359  18.520  0.00  0.00    +0.000 N 
ATOM     15  C   UNL     1       2.391   8.275  18.331  0.00  0.00    +0.000 C 
ATOM     16  O   UNL     1       3.441   8.398  17.695  0.00  0.00    +0.000 OA
BRANCH  15  17
ATOM     17  C   UNL     1       2.106   6.903  18.839  0.00  0.00    +0.000 A 
ATOM     18  C   UNL     1       1.909   5.882  17.888  0.00  0.00    +0.000 A 
ATOM     19  C   UNL     1       1.748   4.551  18.289  0.00  0.00    +0.000 A 
ATOM     20  C   UNL     1       1.786   4.232  19.644  0.00  0.00    +0.000 A 
ATOM     21 CL   UNL     1       1.625   2.594  20.143  0.00  0.00    +0.000 Cl
ATOM     22  C   UNL     1       1.989   5.232  20.594  0.00  0.00    +0.000 A 
ATOM     23  C   UNL     1       2.169   6.560  20.191  0.00  0.00    +0.000 A 
ENDBRANCH  15  17
BRANCH  14  24
ATOM     24  C   UNL     1       1.905  10.622  17.876  0.00  0.00    +0.000 C 
BRANCH  24  26
ATOM     25  C   UNL     1       2.621  13.095  18.170  0.00  0.00    +0.000 C 
ATOM     26  C   UNL     1       2.129  11.815  18.829  0.00  0.00    +0.000 C 
ENDBRANCH  24  26
ENDBRANCH  14  24
ENDBRANCH  13  14
ENDBRANCH   1  13
BRANCH   6  27
ATOM     27  O   UNL     1      -1.491  12.107  19.397  0.00  0.00    +0.000 OA
BRANCH  27  28
ATOM     28  C   UNL     1      -2.802  11.928  18.969  0.00  0.00    +0.000 A 
ATOM     29  C   UNL     1      -3.870  12.390  19.763  0.00  0.00    +0.000 A 
ATOM     30  C   UNL     1      -5.191  12.044  19.465  0.00  0.00    +0.000 A 
ATOM     31  C   UNL     1      -5.468  11.301  18.324  0.00  0.00    +0.000 A 
ATOM     32  C   UNL     1      -4.422  10.924  17.482  0.00  0.00    +0.000 A 
ATOM     33  C   UNL     1      -3.083  11.222  17.788  0.00  0.00    +0.000 A 
BRANCH  33  34
ATOM     34  O   UNL     1      -2.225  10.677  16.875  0.00  0.00    +0.000 OA
ATOM     35  C   UNL     1      -2.685  10.388  15.567  0.00  0.00    +0.000 C 
ENDBRANCH  33  34
ENDBRANCH  27  28
ENDBRANCH   6  27
TORSDOF 9
ENDMDL
MODEL 5
REMARK VINA RESULT:      -6.9      3.496      8.059
REMARK  Name = 
REMARK  12 active torsions:
REMARK  status: ('A' for Active; 'I' for Inactive)
REMARK    1  A    between atoms: C_1  and  C_2
REMARK    2  A    between atoms: C_2  and  C_3
REMARK    3  A    between atoms: C_3  and  N_4
REMARK    4  A    between atoms: N_4  and  C_5
REMARK    5  A    between atoms: C_5  and  C_6
REMARK    6  A    between atoms: C_7  and  C_8
REMARK    7  A    between atoms: N_10  and  C_11
REMARK    8  A    between atoms: C_17  and  O_18
REMARK    9  A    between atoms: O_18  and  C_19
REMARK   10  A    between atoms: C_24  and  O_25
REMARK   11  A    between atoms: O_25  and  C_26
REMARK   12  A    between atoms: C_27  and  C_29
REMARK                            x       y       z     vdW  Elec       q    Type
REMARK                         _______ _______ _______ _____ _____    ______ ____
ROOT
ATOM      1  C   UNL     1      -3.964  12.213  19.330  0.00  0.00    +0.000 A 
ATOM      2  C   UNL     1      -4.013  11.345  18.190  0.00  0.00    +0.000 A 
ATOM      3  C   UNL     1      -5.159  11.019  17.303  0.00  0.00    +0.000 C 
ATOM      4  N   UNL     1      -2.829  10.811  17.911  0.00  0.00    +0.000 NA
ATOM      5  N   UNL     1      -2.039  11.123  18.966  0.00  0.00    +0.000 N 
ATOM      6  C   UNL     1      -2.633  12.136  19.757  0.00  0.00    +0.000 A 
ENDROOT
BRANCH   5   7
ATOM      7  C   UNL     1      -0.767  10.489  19.076  0.00  0.00    +0.000 A 
ATOM      8  C   UNL     1      -0.325  10.043  20.331  0.00  0.00    +0.000 A 
ATOM      9  C   UNL     1       0.809   9.231  20.423  0.00  0.00    +0.000 A 
ATOM     10  C   UNL     1       1.523   8.895  19.273  0.00  0.00    +0.000 A 
ATOM     11  C   UNL     1       1.135   9.409  18.038  0.00  0.00    +0.000 A 
ATOM     12  C   UNL     1       0.005  10.224  17.942  0.00  0.00    +0.000 A 
ENDBRANCH   5   7
BRANCH   1  13
ATOM     13  C   UNL     1      -5.155  13.036  19.771  0.00  0.00    +0.000 C 
BRANCH  13  14
ATOM     14  N   UNL     1      -6.101  12.390  20.678  0.00  0.00    +0.000 N 
ATOM     15  C   UNL     1      -6.171  12.593  22.067  0.00  0.00    +0.000 C 
ATOM     16  O   UNL     1      -7.129  12.187  22.730  0.00  0.00    +0.000 OA
BRANCH  15  17
ATOM     17  C   UNL     1      -5.130  13.336  22.832  0.00  0.00    +0.000 A 
ATOM     18  C   UNL     1      -5.405  14.674  23.178  0.00  0.00    +0.000 A 
ATOM     19  C   UNL     1      -4.526  15.400  23.989  0.00  0.00    +0.000 A 
ATOM     20  C   UNL     1      -3.367  14.790  24.463  0.00  0.00    +0.000 A 
ATOM     21 CL   UNL     1      -2.299  15.662  25.491  0.00  0.00    +0.000 Cl
ATOM     22  C   UNL     1      -3.088  13.464  24.136  0.00  0.00    +0.000 A 
ATOM     23  C   UNL     1      -3.978  12.733  23.340  0.00  0.00    +0.000 A 
ENDBRANCH  15  17
BRANCH  14  24
ATOM     24  C   UNL     1      -7.255  11.716  20.065  0.00  0.00    +0.000 C 
BRANCH  24  26
ATOM     25  C   UNL     1      -7.040   9.183  19.562  0.00  0.00    +0.000 C 
ATOM     26  C   UNL     1      -7.502  10.264  20.528  0.00  0.00    +0.000 C 
ENDBRANCH  24  26
ENDBRANCH  14  24
ENDBRANCH  13  14
ENDBRANCH   1  13
BRANCH   6  27
ATOM     27  O   UNL     1      -1.990  12.868  20.689  0.00  0.00    +0.000 OA
BRANCH  27  28
ATOM     28  C   UNL     1      -1.586  14.180  20.466  0.00  0.00    +0.000 A 
ATOM     29  C   UNL     1      -2.382  15.248  20.923  0.00  0.00    +0.000 A 
ATOM     30  C   UNL     1      -2.112  16.564  20.536  0.00  0.00    +0.000 A 
ATOM     31  C   UNL     1      -0.996  16.838  19.755  0.00  0.00    +0.000 A 
ATOM     32  C   UNL     1      -0.151  15.794  19.380  0.00  0.00    +0.000 A 
ATOM     33  C   UNL     1      -0.430  14.459  19.720  0.00  0.00    +0.000 A 
BRANCH  33  34
ATOM     34  O   UNL     1       0.480  13.599  19.171  0.00  0.00    +0.000 OA
ATOM     35  C   UNL     1       1.628  13.228  19.913  0.00  0.00    +0.000 C 
ENDBRANCH  33  34
ENDBRANCH  27  28
ENDBRANCH   6  27
TORSDOF 9
ENDMDL
MODEL 6
REMARK VINA RESULT:      -6.9      3.198      7.825
REMARK  Name = 
REMARK  12 active torsions:
REMARK  status: ('A' for Active; 'I' for Inactive)
REMARK    1  A    between atoms: C_1  and  C_2
REMARK    2  A    between atoms: C_2  and  C_3
REMARK    3  A    between atoms: C_3  and  N_4
REMARK    4  A    between atoms: N_4  and  C_5
REMARK    5  A    between atoms: C_5  and  C_6
REMARK    6  A    between atoms: C_7  and  C_8
REMARK    7  A    between atoms: N_10  and  C_11
REMARK    8  A    between atoms: C_17  and  O_18
REMARK    9  A    between atoms: O_18  and  C_19
REMARK   10  A    between atoms: C_24  and  O_25
REMARK   11  A    between atoms: O_25  and  C_26
REMARK   12  A    between atoms: C_27  and  C_29
REMARK                            x       y       z     vdW  Elec       q    Type
REMARK                         _______ _______ _______ _____ _____    ______ ____
ROOT
ATOM      1  C   UNL     1      -3.319  11.964  19.016  0.00  0.00    +0.000 A 
ATOM      2  C   UNL     1      -3.350  11.097  17.874  0.00  0.00    +0.000 A 
ATOM      3  C   UNL     1      -4.460  10.832  16.922  0.00  0.00    +0.000 C 
ATOM      4  N   UNL     1      -2.183  10.497  17.663  0.00  0.00    +0.000 NA
ATOM      5  N   UNL     1      -1.440  10.767  18.762  0.00  0.00    +0.000 N 
ATOM      6  C   UNL     1      -2.021  11.814  19.519  0.00  0.00    +0.000 A 
ENDROOT
BRANCH   5   7
ATOM      7  C   UNL     1      -0.212  10.064  18.944  0.00  0.00    +0.000 A 
ATOM      8  C   UNL     1       0.124   9.585  20.220  0.00  0.00    +0.000 A 
ATOM      9  C   UNL     1       1.205   8.712  20.374  0.00  0.00    +0.000 A 
ATOM     10  C   UNL     1       1.971   8.347  19.268  0.00  0.00    +0.000 A 
ATOM     11  C   UNL     1       1.691   8.891  18.017  0.00  0.00    +0.000 A 
ATOM     12  C   UNL     1       0.615   9.767  17.859  0.00  0.00    +0.000 A 
ENDBRANCH   5   7
BRANCH   1  13
ATOM     13  C   UNL     1      -4.486  12.852  19.388  0.00  0.00    +0.000 C 
BRANCH  13  14
ATOM     14  N   UNL     1      -5.515  12.263  20.241  0.00  0.00    +0.000 N 
ATOM     15  C   UNL     1      -5.657  12.484  21.622  0.00  0.00    +0.000 C 
ATOM     16  O   UNL     1      -6.672  12.133  22.230  0.00  0.00    +0.000 OA
BRANCH  15  17
ATOM     17  C   UNL     1      -4.628  13.185  22.443  0.00  0.00    +0.000 A 
ATOM     18  C   UNL     1      -3.566  12.414  22.955  0.00  0.00    +0.000 A 
ATOM     19  C   UNL     1      -2.507  13.019  23.639  0.00  0.00    +0.000 A 
ATOM     20  C   UNL     1      -2.501  14.401  23.812  0.00  0.00    +0.000 A 
ATOM     21 CL   UNL     1      -1.184  15.158  24.620  0.00  0.00    +0.000 Cl
ATOM     22  C   UNL     1      -3.541  15.176  23.302  0.00  0.00    +0.000 A 
ATOM     23  C   UNL     1      -4.591  14.571  22.601  0.00  0.00    +0.000 A 
ENDBRANCH  15  17
BRANCH  14  24
ATOM     24  C   UNL     1      -6.662  11.639  19.567  0.00  0.00    +0.000 C 
BRANCH  24  26
ATOM     25  C   UNL     1      -7.584   9.372  20.420  0.00  0.00    +0.000 C 
ATOM     26  C   UNL     1      -6.629  10.097  19.483  0.00  0.00    +0.000 C 
ENDBRANCH  24  26
ENDBRANCH  14  24
ENDBRANCH  13  14
ENDBRANCH   1  13
BRANCH   6  27
ATOM     27  O   UNL     1      -1.394  12.511  20.487  0.00  0.00    +0.000 OA
BRANCH  27  28
ATOM     28  C   UNL     1      -0.791  13.743  20.254  0.00  0.00    +0.000 A 
ATOM     29  C   UNL     1      -1.547  14.927  20.362  0.00  0.00    +0.000 A 
ATOM     30  C   UNL     1      -1.029  16.153  19.936  0.00  0.00    +0.000 A 
ATOM     31  C   UNL     1       0.278  16.225  19.472  0.00  0.00    +0.000 A 
ATOM     32  C   UNL     1       1.063  15.072  19.454  0.00  0.00    +0.000 A 
ATOM     33  C   UNL     1       0.546  13.822  19.834  0.00  0.00    +0.000 A 
BRANCH  33  34
ATOM     34  O   UNL     1       1.460  12.822  19.649  0.00  0.00    +0.000 OA
ATOM     35  C   UNL     1       2.415  12.931  18.608  0.00  0.00    +0.000 C 
ENDBRANCH  33  34
ENDBRANCH  27  28
ENDBRANCH   6  27
TORSDOF 9
ENDMDL
MODEL 7
REMARK VINA RESULT:      -6.8      1.026      1.927
REMARK  Name = 
REMARK  12 active torsions:
REMARK  status: ('A' for Active; 'I' for Inactive)
REMARK    1  A    between atoms: C_1  and  C_2
REMARK    2  A    between atoms: C_2  and  C_3
REMARK    3  A    between atoms: C_3  and  N_4
REMARK    4  A    between atoms: N_4  and  C_5
REMARK    5  A    between atoms: C_5  and  C_6
REMARK    6  A    between atoms: C_7  and  C_8
REMARK    7  A    between atoms: N_10  and  C_11
REMARK    8  A    between atoms: C_17  and  O_18
REMARK    9  A    between atoms: O_18  and  C_19
REMARK   10  A    between atoms: C_24  and  O_25
REMARK   11  A    between atoms: O_25  and  C_26
REMARK   12  A    between atoms: C_27  and  C_29
REMARK                            x       y       z     vdW  Elec       q    Type
REMARK                         _______ _______ _______ _____ _____    ______ ____
ROOT
ATOM      1  C   UNL     1      -0.188  10.087  20.259  0.00  0.00    +0.000 A 
ATOM      2  C   UNL     1       0.311   9.788  21.570  0.00  0.00    +0.000 A 
ATOM      3  C   UNL     1       1.130   8.636  22.026  0.00  0.00    +0.000 C 
ATOM      4  N   UNL     1      -0.004  10.726  22.457  0.00  0.00    +0.000 NA
ATOM      5  N   UNL     1      -0.888  11.533  21.824  0.00  0.00    +0.000 N 
ATOM      6  C   UNL     1      -0.880  11.293  20.428  0.00  0.00    +0.000 A 
ENDROOT
BRANCH   5   7
ATOM      7  C   UNL     1      -1.595  12.505  22.591  0.00  0.00    +0.000 A 
ATOM      8  C   UNL     1      -1.207  13.852  22.522  0.00  0.00    +0.000 A 
ATOM      9  C   UNL     1      -2.018  14.840  23.089  0.00  0.00    +0.000 A 
ATOM     10  C   UNL     1      -3.189  14.486  23.756  0.00  0.00    +0.000 A 
ATOM     11  C   UNL     1      -3.529  13.143  23.900  0.00  0.00    +0.000 A 
ATOM     12  C   UNL     1      -2.721  12.152  23.339  0.00  0.00    +0.000 A 
ENDBRANCH   5   7
BRANCH   1  13
ATOM     13  C   UNL     1       0.145   9.236  19.054  0.00  0.00    +0.000 C 
BRANCH  13  14
ATOM     14  N   UNL     1       1.501   9.350  18.522  0.00  0.00    +0.000 N 
ATOM     15  C   UNL     1       2.386   8.281  18.303  0.00  0.00    +0.000 C 
ATOM     16  O   UNL     1       3.423   8.425  17.650  0.00  0.00    +0.000 OA
BRANCH  15  17
ATOM     17  C   UNL     1       2.128   6.898  18.798  0.00  0.00    +0.000 A 
ATOM     18  C   UNL     1       1.944   5.884  17.837  0.00  0.00    +0.000 A 
ATOM     19  C   UNL     1       1.807   4.547  18.225  0.00  0.00    +0.000 A 
ATOM     20  C   UNL     1       1.859   4.214  19.576  0.00  0.00    +0.000 A 
ATOM     21 CL   UNL     1       1.729   2.569  20.059  0.00  0.00    +0.000 Cl
ATOM     22  C   UNL     1       2.049   5.207  20.536  0.00  0.00    +0.000 A 
ATOM     23  C   UNL     1       2.204   6.543  20.146  0.00  0.00    +0.000 A 
ENDBRANCH  15  17
BRANCH  14  24
ATOM     24  C   UNL     1       1.861  10.626  17.888  0.00  0.00    +0.000 C 
BRANCH  24  26
ATOM     25  C   UNL     1       2.617  13.085  18.205  0.00  0.00    +0.000 C 
ATOM     26  C   UNL     1       2.118  11.802  18.854  0.00  0.00    +0.000 C 
ENDBRANCH  24  26
ENDBRANCH  14  24
ENDBRANCH  13  14
ENDBRANCH   1  13
BRANCH   6  27
ATOM     27  O   UNL     1      -1.411  12.111  19.498  0.00  0.00    +0.000 OA
BRANCH  27  28
ATOM     28  C   UNL     1      -2.464  11.726  18.674  0.00  0.00    +0.000 A 
ATOM     29  C   UNL     1      -2.199  11.216  17.387  0.00  0.00    +0.000 A 
ATOM     30  C   UNL     1      -3.231  11.018  16.465  0.00  0.00    +0.000 A 
ATOM     31  C   UNL     1      -4.548  11.250  16.844  0.00  0.00    +0.000 A 
ATOM     32  C   UNL     1      -4.822  11.662  18.148  0.00  0.00    +0.000 A 
ATOM     33  C   UNL     1      -3.796  11.912  19.075  0.00  0.00    +0.000 A 
BRANCH  33  34
ATOM     34  O   UNL     1      -4.290  12.394  20.255  0.00  0.00    +0.000 OA
ATOM     35  C   UNL     1      -4.523  13.784  20.400  0.00  0.00    +0.000 C 
ENDBRANCH  33  34
ENDBRANCH  27  28
ENDBRANCH   6  27
TORSDOF 9
ENDMDL
MODEL 8
REMARK VINA RESULT:      -6.8      3.230      7.941
REMARK  Name = 
REMARK  12 active torsions:
REMARK  status: ('A' for Active; 'I' for Inactive)
REMARK    1  A    between atoms: C_1  and  C_2
REMARK    2  A    between atoms: C_2  and  C_3
REMARK    3  A    between atoms: C_3  and  N_4
REMARK    4  A    between atoms: N_4  and  C_5
REMARK    5  A    between atoms: C_5  and  C_6
REMARK    6  A    between atoms: C_7  and  C_8
REMARK    7  A    between atoms: N_10  and  C_11
REMARK    8  A    between atoms: C_17  and  O_18
REMARK    9  A    between atoms: O_18  and  C_19
REMARK   10  A    between atoms: C_24  and  O_25
REMARK   11  A    between atoms: O_25  and  C_26
REMARK   12  A    between atoms: C_27  and  C_29
REMARK                            x       y       z     vdW  Elec       q    Type
REMARK                         _______ _______ _______ _____ _____    ______ ____
ROOT
ATOM      1  C   UNL     1      -2.979  12.127  19.421  0.00  0.00    +0.000 A 
ATOM      2  C   UNL     1      -3.236  11.171  18.384  0.00  0.00    +0.000 A 
ATOM      3  C   UNL     1      -4.490  10.910  17.633  0.00  0.00    +0.000 C 
ATOM      4  N   UNL     1      -2.153  10.469  18.065  0.00  0.00    +0.000 NA
ATOM      5  N   UNL     1      -1.237  10.775  19.013  0.00  0.00    +0.000 N 
ATOM      6  C   UNL     1      -1.631  11.923  19.742  0.00  0.00    +0.000 A 
ENDROOT
BRANCH   5   7
ATOM      7  C   UNL     1      -0.042  10.000  19.082  0.00  0.00    +0.000 A 
ATOM      8  C   UNL     1       0.348   9.444  20.310  0.00  0.00    +0.000 A 
ATOM      9  C   UNL     1       1.386   8.507  20.352  0.00  0.00    +0.000 A 
ATOM     10  C   UNL     1       2.057   8.155  19.183  0.00  0.00    +0.000 A 
ATOM     11  C   UNL     1       1.728   8.772  17.978  0.00  0.00    +0.000 A 
ATOM     12  C   UNL     1       0.696   9.711  17.932  0.00  0.00    +0.000 A 
ENDBRANCH   5   7
BRANCH   1  13
ATOM     13  C   UNL     1      -4.018  13.130  19.872  0.00  0.00    +0.000 C 
BRANCH  13  14
ATOM     14  N   UNL     1      -4.861  12.741  21.000  0.00  0.00    +0.000 N 
ATOM     15  C   UNL     1      -4.725  13.204  22.320  0.00  0.00    +0.000 C 
ATOM     16  O   UNL     1      -5.601  13.007  23.167  0.00  0.00    +0.000 OA
BRANCH  15  17
ATOM     17  C   UNL     1      -3.549  13.994  22.786  0.00  0.00    +0.000 A 
ATOM     18  C   UNL     1      -3.657  15.399  22.765  0.00  0.00    +0.000 A 
ATOM     19  C   UNL     1      -2.639  16.203  23.290  0.00  0.00    +0.000 A 
ATOM     20  C   UNL     1      -1.508  15.607  23.843  0.00  0.00    +0.000 A 
ATOM     21 CL   UNL     1      -0.269  16.587  24.523  0.00  0.00    +0.000 Cl
ATOM     22  C   UNL     1      -1.394  14.218  23.878  0.00  0.00    +0.000 A 
ATOM     23  C   UNL     1      -2.422  13.414  23.370  0.00  0.00    +0.000 A 
ENDBRANCH  15  17
BRANCH  14  24
ATOM     24  C   UNL     1      -6.123  12.057  20.684  0.00  0.00    +0.000 C 
BRANCH  24  26
ATOM     25  C   UNL     1      -7.585  12.568  18.606  0.00  0.00    +0.000 C 
ATOM     26  C   UNL     1      -7.214  12.935  20.035  0.00  0.00    +0.000 C 
ENDBRANCH  24  26
ENDBRANCH  14  24
ENDBRANCH  13  14
ENDBRANCH   1  13
BRANCH   6  27
ATOM     27  O   UNL     1      -0.822  12.652  20.538  0.00  0.00    +0.000 OA
BRANCH  27  28
ATOM     28  C   UNL     1      -0.225  13.836  20.118  0.00  0.00    +0.000 A 
ATOM     29  C   UNL     1      -0.940  15.048  20.189  0.00  0.00    +0.000 A 
ATOM     30  C   UNL     1      -0.449  16.210  19.587  0.00  0.00    +0.000 A 
ATOM     31  C   UNL     1       0.800  16.196  18.979  0.00  0.00    +0.000 A 
ATOM     32  C   UNL     1       1.554  15.023  18.992  0.00  0.00    +0.000 A 
ATOM     33  C   UNL     1       1.059  13.832  19.550  0.00  0.00    +0.000 A 
BRANCH  33  34
ATOM     34  O   UNL     1       1.926  12.791  19.368  0.00  0.00    +0.000 OA
ATOM     35  C   UNL     1       2.640  12.681  18.149  0.00  0.00    +0.000 C 
ENDBRANCH  33  34
ENDBRANCH  27  28
ENDBRANCH   6  27
TORSDOF 9
ENDMDL
MODEL 9
REMARK VINA RESULT:      -6.6      3.489      6.333
REMARK  Name = 
REMARK  12 active torsions:
REMARK  status: ('A' for Active; 'I' for Inactive)
REMARK    1  A    between atoms: C_1  and  C_2
REMARK    2  A    between atoms: C_2  and  C_3
REMARK    3  A    between atoms: C_3  and  N_4
REMARK    4  A    between atoms: N_4  and  C_5
REMARK    5  A    between atoms: C_5  and  C_6
REMARK    6  A    between atoms: C_7  and  C_8
REMARK    7  A    between atoms: N_10  and  C_11
REMARK    8  A    between atoms: C_17  and  O_18
REMARK    9  A    between atoms: O_18  and  C_19
REMARK   10  A    between atoms: C_24  and  O_25
REMARK   11  A    between atoms: O_25  and  C_26
REMARK   12  A    between atoms: C_27  and  C_29
REMARK                            x       y       z     vdW  Elec       q    Type
REMARK                         _______ _______ _______ _____ _____    ______ ____
ROOT
ATOM      1  C   UNL     1      -2.119  11.941  18.447  0.00  0.00    +0.000 A 
ATOM      2  C   UNL     1      -2.929  10.961  17.785  0.00  0.00    +0.000 A 
ATOM      3  C   UNL     1      -2.553   9.985  16.730  0.00  0.00    +0.000 C 
ATOM      4  N   UNL     1      -4.177  10.943  18.243  0.00  0.00    +0.000 NA
ATOM      5  N   UNL     1      -4.280  12.035  19.037  0.00  0.00    +0.000 N 
ATOM      6  C   UNL     1      -3.001  12.560  19.342  0.00  0.00    +0.000 A 
ENDROOT
BRANCH   5   7
ATOM      7  C   UNL     1      -5.574  12.425  19.494  0.00  0.00    +0.000 A 
ATOM      8  C   UNL     1      -6.241  11.628  20.436  0.00  0.00    +0.000 A 
ATOM      9  C   UNL     1      -7.401  12.104  21.055  0.00  0.00    +0.000 A 
ATOM     10  C   UNL     1      -7.917  13.352  20.708  0.00  0.00    +0.000 A 
ATOM     11  C   UNL     1      -7.304  14.105  19.709  0.00  0.00    +0.000 A 
ATOM     12  C   UNL     1      -6.147  13.632  19.086  0.00  0.00    +0.000 A 
ENDBRANCH   5   7
BRANCH   1  13
ATOM     13  C   UNL     1      -0.634  12.070  18.190  0.00  0.00    +0.000 C 
BRANCH  13  14
ATOM     14  N   UNL     1       0.259  11.615  19.252  0.00  0.00    +0.000 N 
ATOM     15  C   UNL     1       0.884  12.439  20.204  0.00  0.00    +0.000 C 
ATOM     16  O   UNL     1       1.442  11.968  21.199  0.00  0.00    +0.000 OA
BRANCH  15  17
ATOM     17  C   UNL     1       0.887  13.928  20.113  0.00  0.00    +0.000 A 
ATOM     18  C   UNL     1       0.387  14.650  21.214  0.00  0.00    +0.000 A 
ATOM     19  C   UNL     1       0.460  16.047  21.246  0.00  0.00    +0.000 A 
ATOM     20  C   UNL     1       1.037  16.730  20.179  0.00  0.00    +0.000 A 
ATOM     21 CL   UNL     1       1.163  18.445  20.227  0.00  0.00    +0.000 Cl
ATOM     22  C   UNL     1       1.543  16.026  19.088  0.00  0.00    +0.000 A 
ATOM     23  C   UNL     1       1.487  14.627  19.065  0.00  0.00    +0.000 A 
ENDBRANCH  15  17
BRANCH  14  24
ATOM     24  C   UNL     1       0.271  10.174  19.541  0.00  0.00    +0.000 C 
BRANCH  24  26
ATOM     25  C   UNL     1       2.131   9.672  17.807  0.00  0.00    +0.000 C 
ATOM     26  C   UNL     1       0.790   9.270  18.402  0.00  0.00    +0.000 C 
ENDBRANCH  24  26
ENDBRANCH  14  24
ENDBRANCH  13  14
ENDBRANCH   1  13
BRANCH   6  27
ATOM     27  O   UNL     1      -2.740  13.443  20.326  0.00  0.00    +0.000 OA
BRANCH  27  28
ATOM     28  C   UNL     1      -3.189  13.268  21.631  0.00  0.00    +0.000 A 
ATOM     29  C   UNL     1      -4.149  14.148  22.168  0.00  0.00    +0.000 A 
ATOM     30  C   UNL     1      -4.464  14.125  23.530  0.00  0.00    +0.000 A 
ATOM     31  C   UNL     1      -3.885  13.170  24.356  0.00  0.00    +0.000 A 
ATOM     32  C   UNL     1      -3.007  12.234  23.809  0.00  0.00    +0.000 A 
ATOM     33  C   UNL     1      -2.642  12.269  22.452  0.00  0.00    +0.000 A 
BRANCH  33  34
ATOM     34  O   UNL     1      -1.703  11.320  22.159  0.00  0.00    +0.000 OA
ATOM     35  C   UNL     1      -1.077  10.606  23.211  0.00  0.00    +0.000 C 
ENDBRANCH  33  34
ENDBRANCH  27  28
ENDBRANCH   6  27
TORSDOF 9
ENDMDL
