MODEL 1
REMARK VINA RESULT:      -8.0      0.000      0.000
REMARK  Name = 
REMARK  8 active torsions:
REMARK  status: ('A' for Active; 'I' for Inactive)
REMARK    1  A    between atoms: C_1  and  O_2
REMARK    2  A    between atoms: O_2  and  C_3
REMARK    3  A    between atoms: C_8  and  C_9
REMARK    4  A    between atoms: N_12  and  C_13
REMARK    5  A    between atoms: C_13  and  C_14
REMARK    6  A    between atoms: C_14  and  C_15
REMARK    7  A    between atoms: C_15  and  C_16
REMARK    8  A    between atoms: C_16  and  N_17
REMARK                            x       y       z     vdW  Elec       q    Type
REMARK                         _______ _______ _______ _____ _____    ______ ____
ROOT
ATOM      1  C   UNL     1       1.449   4.154  20.696  0.00  0.00    +0.000 C 
ENDROOT
BRANCH   1   5
ATOM      2  C   UNL     1       3.849   3.112  17.368  0.00  0.00    +0.000 C 
ATOM      3  C   UNL     1       2.487   3.769  17.077  0.00  0.00    +0.000 C 
ATOM      4  C   UNL     1       1.860   4.364  18.329  0.00  0.00    +0.000 C 
ATOM      5  N   UNL     1       1.663   3.415  19.431  0.00  0.00    +0.000 NA
ATOM      6  C   UNL     1       2.756   2.443  19.623  0.00  0.00    +0.000 C 
ATOM      7  C   UNL     1       3.584   2.016  18.405  0.00  0.00    +0.000 C 
BRANCH   2  13
ATOM      8  C   UNL     1       5.658   4.825  16.469  0.00  0.00    +0.000 A 
ATOM      9  C   UNL     1       6.679   5.749  16.785  0.00  0.00    +0.000 A 
ATOM     10  C   UNL     1       7.022   6.036  18.102  0.00  0.00    +0.000 A 
ATOM     11  C   UNL     1       6.384   5.364  19.126  0.00  0.00    +0.000 A 
ATOM     12  C   UNL     1       5.417   4.402  18.824  0.00  0.00    +0.000 A 
ATOM     13  C   UNL     1       5.023   4.096  17.494  0.00  0.00    +0.000 A 
BRANCH   8  15
ATOM     14  C   UNL     1       6.246   3.933  14.369  0.00  0.00    +0.000 C 
ATOM     15  O   UNL     1       5.282   4.631  15.164  0.00  0.00    +0.000 OA
ENDBRANCH   8  15
ENDBRANCH   2  13
ENDBRANCH   1   5
BRANCH   1  16
ATOM     16  C   UNL     1       2.025   5.578  20.722  0.00  0.00    +0.000 C 
BRANCH  16  17
ATOM     17  C   UNL     1       0.992   6.681  20.985  0.00  0.00    +0.000 C 
BRANCH  17  18
ATOM     18  C   UNL     1       1.536   8.067  20.623  0.00  0.00    +0.000 C 
BRANCH  18  19
ATOM     19  N   UNL     1       0.597   9.157  20.817  0.00  0.00    +0.000 N 
ATOM     20  C   UNL     1       0.112   9.944  19.806  0.00  0.00    +0.000 C 
ATOM     21  O   UNL     1       0.276   9.856  18.604  0.00  0.00    +0.000 OA
ATOM     22  C   UNL     1      -0.615  11.039  20.442  0.00  0.00    +0.000 A 
ATOM     23  C   UNL     1      -1.332  12.076  19.876  0.00  0.00    +0.000 A 
ATOM     24  C   UNL     1      -1.876  13.019  20.750  0.00  0.00    +0.000 A 
ATOM     25  C   UNL     1      -1.681  12.915  22.143  0.00  0.00    +0.000 A 
ATOM     26  C   UNL     1      -0.946  11.855  22.688  0.00  0.00    +0.000 A 
ATOM     27  C   UNL     1      -0.436  10.923  21.807  0.00  0.00    +0.000 A 
ATOM     28  C   UNL     1       0.383   9.737  22.046  0.00  0.00    +0.000 C 
ATOM     29  O   UNL     1       0.815   9.418  23.141  0.00  0.00    +0.000 OA
ENDBRANCH  18  19
ENDBRANCH  17  18
ENDBRANCH  16  17
ENDBRANCH   1  16
TORSDOF 7
ENDMDL
MODEL 2
REMARK VINA RESULT:      -7.9      1.931      2.978
REMARK  Name = 
REMARK  8 active torsions:
REMARK  status: ('A' for Active; 'I' for Inactive)
REMARK    1  A    between atoms: C_1  and  O_2
REMARK    2  A    between atoms: O_2  and  C_3
REMARK    3  A    between atoms: C_8  and  C_9
REMARK    4  A    between atoms: N_12  and  C_13
REMARK    5  A    between atoms: C_13  and  C_14
REMARK    6  A    between atoms: C_14  and  C_15
REMARK    7  A    between atoms: C_15  and  C_16
REMARK    8  A    between atoms: C_16  and  N_17
REMARK                            x       y       z     vdW  Elec       q    Type
REMARK                         _______ _______ _______ _____ _____    ______ ____
ROOT
ATOM      1  C   UNL     1       2.036   7.461  20.371  0.00  0.00    +0.000 C 
ENDROOT
BRANCH   1   5
ATOM      2  C   UNL     1       3.629   4.027  18.477  0.00  0.00    +0.000 C 
ATOM      3  C   UNL     1       2.635   4.881  17.669  0.00  0.00    +0.000 C 
ATOM      4  C   UNL     1       2.370   6.227  18.327  0.00  0.00    +0.000 C 
ATOM      5  N   UNL     1       1.865   6.151  19.703  0.00  0.00    +0.000 NA
ATOM      6  C   UNL     1       2.481   5.103  20.539  0.00  0.00    +0.000 C 
ATOM      7  C   UNL     1       3.001   3.830  19.861  0.00  0.00    +0.000 C 
BRANCH   2  13
ATOM      8  C   UNL     1       5.894   4.301  17.131  0.00  0.00    +0.000 A 
ATOM      9  C   UNL     1       7.222   4.783  17.126  0.00  0.00    +0.000 A 
ATOM     10  C   UNL     1       7.758   5.459  18.218  0.00  0.00    +0.000 A 
ATOM     11  C   UNL     1       6.989   5.617  19.354  0.00  0.00    +0.000 A 
ATOM     12  C   UNL     1       5.696   5.089  19.394  0.00  0.00    +0.000 A 
ATOM     13  C   UNL     1       5.106   4.414  18.294  0.00  0.00    +0.000 A 
BRANCH   8  15
ATOM     14  C   UNL     1       6.102   3.979  14.806  0.00  0.00    +0.000 C 
ATOM     15  O   UNL     1       5.367   3.719  16.006  0.00  0.00    +0.000 OA
ENDBRANCH   8  15
ENDBRANCH   2  13
ENDBRANCH   1   5
BRANCH   1  16
ATOM     16  C   UNL     1       0.814   7.949  21.166  0.00  0.00    +0.000 C 
BRANCH  16  17
ATOM     17  C   UNL     1       0.856   9.431  21.557  0.00  0.00    +0.000 C 
BRANCH  17  18
ATOM     18  C   UNL     1       1.186  10.327  20.358  0.00  0.00    +0.000 C 
BRANCH  18  19
ATOM     19  N   UNL     1       0.059  10.630  19.497  0.00  0.00    +0.000 N 
ATOM     20  C   UNL     1      -1.088  11.251  19.920  0.00  0.00    +0.000 C 
ATOM     21  O   UNL     1      -1.358  11.731  21.005  0.00  0.00    +0.000 OA
ATOM     22  C   UNL     1      -2.039  11.167  18.815  0.00  0.00    +0.000 A 
ATOM     23  C   UNL     1      -3.319  11.676  18.705  0.00  0.00    +0.000 A 
ATOM     24  C   UNL     1      -4.019  11.379  17.534  0.00  0.00    +0.000 A 
ATOM     25  C   UNL     1      -3.440  10.581  16.525  0.00  0.00    +0.000 A 
ATOM     26  C   UNL     1      -2.142  10.074  16.667  0.00  0.00    +0.000 A 
ATOM     27  C   UNL     1      -1.461  10.398  17.823  0.00  0.00    +0.000 A 
ATOM     28  C   UNL     1      -0.128  10.015  18.282  0.00  0.00    +0.000 C 
ATOM     29  O   UNL     1       0.600   9.240  17.683  0.00  0.00    +0.000 OA
ENDBRANCH  18  19
ENDBRANCH  17  18
ENDBRANCH  16  17
ENDBRANCH   1  16
TORSDOF 7
ENDMDL
MODEL 3
REMARK VINA RESULT:      -7.8      1.491      2.188
REMARK  Name = 
REMARK  8 active torsions:
REMARK  status: ('A' for Active; 'I' for Inactive)
REMARK    1  A    between atoms: C_1  and  O_2
REMARK    2  A    between atoms: O_2  and  C_3
REMARK    3  A    between atoms: C_8  and  C_9
REMARK    4  A    between atoms: N_12  and  C_13
REMARK    5  A    between atoms: C_13  and  C_14
REMARK    6  A    between atoms: C_14  and  C_15
REMARK    7  A    between atoms: C_15  and  C_16
REMARK    8  A    between atoms: C_16  and  N_17
REMARK                            x       y       z     vdW  Elec       q    Type
REMARK                         _______ _______ _______ _____ _____    ______ ____
ROOT
ATOM      1  C   UNL     1       0.924   3.918  20.236  0.00  0.00    +0.000 C 
ENDROOT
BRANCH   1   5
ATOM      2  C   UNL     1       4.481   2.567  18.381  0.00  0.00    +0.000 C 
ATOM      3  C   UNL     1       3.149   2.020  17.836  0.00  0.00    +0.000 C 
ATOM      4  C   UNL     1       1.952   2.793  18.368  0.00  0.00    +0.000 C 
ATOM      5  N   UNL     1       1.844   2.831  19.831  0.00  0.00    +0.000 NA
ATOM      6  C   UNL     1       3.122   2.994  20.549  0.00  0.00    +0.000 C 
ATOM      7  C   UNL     1       4.403   2.447  19.907  0.00  0.00    +0.000 C 
BRANCH   2  13
ATOM      8  C   UNL     1       5.935   4.770  18.154  0.00  0.00    +0.000 A 
ATOM      9  C   UNL     1       6.336   5.848  17.335  0.00  0.00    +0.000 A 
ATOM     10  C   UNL     1       5.888   5.977  16.024  0.00  0.00    +0.000 A 
ATOM     11  C   UNL     1       4.988   5.054  15.527  0.00  0.00    +0.000 A 
ATOM     12  C   UNL     1       4.536   4.018  16.348  0.00  0.00    +0.000 A 
ATOM     13  C   UNL     1       4.986   3.840  17.683  0.00  0.00    +0.000 A 
BRANCH   8  15
ATOM     14  C   UNL     1       7.567   5.492  19.693  0.00  0.00    +0.000 C 
ATOM     15  O   UNL     1       6.465   4.622  19.410  0.00  0.00    +0.000 OA
ENDBRANCH   8  15
ENDBRANCH   2  13
ENDBRANCH   1   5
BRANCH   1  16
ATOM     16  C   UNL     1       1.595   5.277  20.490  0.00  0.00    +0.000 C 
BRANCH  16  17
ATOM     17  C   UNL     1       2.031   6.021  19.222  0.00  0.00    +0.000 C 
BRANCH  17  18
ATOM     18  C   UNL     1       2.586   7.413  19.541  0.00  0.00    +0.000 C 
BRANCH  18  19
ATOM     19  N   UNL     1       1.588   8.464  19.612  0.00  0.00    +0.000 N 
ATOM     20  C   UNL     1       1.360   9.378  18.616  0.00  0.00    +0.000 C 
ATOM     21  O   UNL     1       1.842   9.451  17.502  0.00  0.00    +0.000 OA
ATOM     22  C   UNL     1       0.446  10.375  19.167  0.00  0.00    +0.000 A 
ATOM     23  C   UNL     1      -0.133  11.476  18.565  0.00  0.00    +0.000 A 
ATOM     24  C   UNL     1      -0.928  12.292  19.373  0.00  0.00    +0.000 A 
ATOM     25  C   UNL     1      -1.109  12.003  20.742  0.00  0.00    +0.000 A 
ATOM     26  C   UNL     1      -0.504  10.883  21.325  0.00  0.00    +0.000 A 
ATOM     27  C   UNL     1       0.259  10.078  20.503  0.00  0.00    +0.000 A 
ATOM     28  C   UNL     1       1.030   8.874  20.800  0.00  0.00    +0.000 C 
ATOM     29  O   UNL     1       1.166   8.413  21.921  0.00  0.00    +0.000 OA
ENDBRANCH  18  19
ENDBRANCH  17  18
ENDBRANCH  16  17
ENDBRANCH   1  16
TORSDOF 7
ENDMDL
MODEL 4
REMARK VINA RESULT:      -7.8      6.061      7.766
REMARK  Name = 
REMARK  8 active torsions:
REMARK  status: ('A' for Active; 'I' for Inactive)
REMARK    1  A    between atoms: C_1  and  O_2
REMARK    2  A    between atoms: O_2  and  C_3
REMARK    3  A    between atoms: C_8  and  C_9
REMARK    4  A    between atoms: N_12  and  C_13
REMARK    5  A    between atoms: C_13  and  C_14
REMARK    6  A    between atoms: C_14  and  C_15
REMARK    7  A    between atoms: C_15  and  C_16
REMARK    8  A    between atoms: C_16  and  N_17
REMARK                            x       y       z     vdW  Elec       q    Type
REMARK                         _______ _______ _______ _____ _____    ______ ____
ROOT
ATOM      1  C   UNL     1       7.896   7.223  18.342  0.00  0.00    +0.000 C 
ENDROOT
BRANCH   1   5
ATOM      2  C   UNL     1       4.568   4.942  17.062  0.00  0.00    +0.000 C 
ATOM      3  C   UNL     1       5.854   4.174  17.418  0.00  0.00    +0.000 C 
ATOM      4  C   UNL     1       6.864   5.054  18.141  0.00  0.00    +0.000 C 
ATOM      5  N   UNL     1       7.262   6.262  17.411  0.00  0.00    +0.000 NA
ATOM      6  C   UNL     1       6.172   6.944  16.688  0.00  0.00    +0.000 C 
ATOM      7  C   UNL     1       4.997   6.109  16.167  0.00  0.00    +0.000 C 
BRANCH   2  13
ATOM      8  C   UNL     1       3.142   4.150  19.150  0.00  0.00    +0.000 A 
ATOM      9  C   UNL     1       2.289   4.517  20.214  0.00  0.00    +0.000 A 
ATOM     10  C   UNL     1       1.936   5.844  20.442  0.00  0.00    +0.000 A 
ATOM     11  C   UNL     1       2.390   6.819  19.577  0.00  0.00    +0.000 A 
ATOM     12  C   UNL     1       3.184   6.460  18.484  0.00  0.00    +0.000 A 
ATOM     13  C   UNL     1       3.584   5.122  18.230  0.00  0.00    +0.000 A 
BRANCH   8  15
ATOM     14  C   UNL     1       2.486   1.933  18.694  0.00  0.00    +0.000 C 
ATOM     15  O   UNL     1       3.544   2.846  19.006  0.00  0.00    +0.000 OA
ENDBRANCH   8  15
ENDBRANCH   2  13
ENDBRANCH   1   5
BRANCH   1  16
ATOM     16  C   UNL     1       8.142   8.624  17.761  0.00  0.00    +0.000 C 
BRANCH  16  17
ATOM     17  C   UNL     1       8.781   9.619  18.739  0.00  0.00    +0.000 C 
BRANCH  17  18
ATOM     18  C   UNL     1       9.588  10.697  18.009  0.00  0.00    +0.000 C 
BRANCH  18  19
ATOM     19  N   UNL     1       9.232  12.060  18.355  0.00  0.00    +0.000 N 
ATOM     20  C   UNL     1       8.277  12.796  17.702  0.00  0.00    +0.000 C 
ATOM     21  O   UNL     1       7.511  12.466  16.817  0.00  0.00    +0.000 OA
ATOM     22  C   UNL     1       8.385  14.161  18.209  0.00  0.00    +0.000 A 
ATOM     23  C   UNL     1       7.626  15.279  17.918  0.00  0.00    +0.000 A 
ATOM     24  C   UNL     1       8.010  16.478  18.522  0.00  0.00    +0.000 A 
ATOM     25  C   UNL     1       9.132  16.535  19.374  0.00  0.00    +0.000 A 
ATOM     26  C   UNL     1       9.886  15.387  19.647  0.00  0.00    +0.000 A 
ATOM     27  C   UNL     1       9.475  14.208  19.057  0.00  0.00    +0.000 A 
ATOM     28  C   UNL     1      10.048  12.866  19.115  0.00  0.00    +0.000 C 
ATOM     29  O   UNL     1      11.089  12.595  19.689  0.00  0.00    +0.000 OA
ENDBRANCH  18  19
ENDBRANCH  17  18
ENDBRANCH  16  17
ENDBRANCH   1  16
TORSDOF 7
ENDMDL
MODEL 5
REMARK VINA RESULT:      -7.8      0.910      1.894
REMARK  Name = 
REMARK  8 active torsions:
REMARK  status: ('A' for Active; 'I' for Inactive)
REMARK    1  A    between atoms: C_1  and  O_2
REMARK    2  A    between atoms: O_2  and  C_3
REMARK    3  A    between atoms: C_8  and  C_9
REMARK    4  A    between atoms: N_12  and  C_13
REMARK    5  A    between atoms: C_13  and  C_14
REMARK    6  A    between atoms: C_14  and  C_15
REMARK    7  A    between atoms: C_15  and  C_16
REMARK    8  A    between atoms: C_16  and  N_17
REMARK                            x       y       z     vdW  Elec       q    Type
REMARK                         _______ _______ _______ _____ _____    ______ ____
ROOT
ATOM      1  C   UNL     1       1.616   5.272  20.741  0.00  0.00    +0.000 C 
ENDROOT
BRANCH   1   5
ATOM      2  C   UNL     1       3.905   3.200  17.845  0.00  0.00    +0.000 C 
ATOM      3  C   UNL     1       2.694   4.007  17.342  0.00  0.00    +0.000 C 
ATOM      4  C   UNL     1       2.141   4.937  18.412  0.00  0.00    +0.000 C 
ATOM      5  N   UNL     1       1.738   4.272  19.657  0.00  0.00    +0.000 NA
ATOM      6  C   UNL     1       2.631   3.187  20.104  0.00  0.00    +0.000 C 
ATOM      7  C   UNL     1       3.412   2.393  19.050  0.00  0.00    +0.000 C 
BRANCH   2  13
ATOM      8  C   UNL     1       6.151   4.150  16.810  0.00  0.00    +0.000 A 
ATOM      9  C   UNL     1       7.288   4.968  16.991  0.00  0.00    +0.000 A 
ATOM     10  C   UNL     1       7.490   5.693  18.161  0.00  0.00    +0.000 A 
ATOM     11  C   UNL     1       6.580   5.570  19.193  0.00  0.00    +0.000 A 
ATOM     12  C   UNL     1       5.484   4.716  19.050  0.00  0.00    +0.000 A 
ATOM     13  C   UNL     1       5.231   3.977  17.865  0.00  0.00    +0.000 A 
BRANCH   8  15
ATOM     14  C   UNL     1       5.924   4.394  14.478  0.00  0.00    +0.000 C 
ATOM     15  O   UNL     1       5.936   3.520  15.611  0.00  0.00    +0.000 OA
ENDBRANCH   8  15
ENDBRANCH   2  13
ENDBRANCH   1   5
BRANCH   1  16
ATOM     16  C   UNL     1       1.583   6.736  20.274  0.00  0.00    +0.000 C 
BRANCH  16  17
ATOM     17  C   UNL     1       0.749   7.671  21.159  0.00  0.00    +0.000 C 
BRANCH  17  18
ATOM     18  C   UNL     1       1.367   9.071  21.248  0.00  0.00    +0.000 C 
BRANCH  18  19
ATOM     19  N   UNL     1       0.412  10.144  21.453  0.00  0.00    +0.000 N 
ATOM     20  C   UNL     1      -0.225  10.391  22.641  0.00  0.00    +0.000 C 
ATOM     21  O   UNL     1      -0.076   9.866  23.728  0.00  0.00    +0.000 OA
ATOM     22  C   UNL     1      -1.246  11.398  22.364  0.00  0.00    +0.000 A 
ATOM     23  C   UNL     1      -2.128  12.027  23.223  0.00  0.00    +0.000 A 
ATOM     24  C   UNL     1      -3.042  12.915  22.651  0.00  0.00    +0.000 A 
ATOM     25  C   UNL     1      -3.065  13.135  21.258  0.00  0.00    +0.000 A 
ATOM     26  C   UNL     1      -2.163  12.478  20.411  0.00  0.00    +0.000 A 
ATOM     27  C   UNL     1      -1.253  11.624  21.001  0.00  0.00    +0.000 A 
ATOM     28  C   UNL     1      -0.216  10.782  20.409  0.00  0.00    +0.000 C 
ATOM     29  O   UNL     1      -0.040  10.664  19.208  0.00  0.00    +0.000 OA
ENDBRANCH  18  19
ENDBRANCH  17  18
ENDBRANCH  16  17
ENDBRANCH   1  16
TORSDOF 7
ENDMDL
MODEL 6
REMARK VINA RESULT:      -7.8      1.704      2.969
REMARK  Name = 
REMARK  8 active torsions:
REMARK  status: ('A' for Active; 'I' for Inactive)
REMARK    1  A    between atoms: C_1  and  O_2
REMARK    2  A    between atoms: O_2  and  C_3
REMARK    3  A    between atoms: C_8  and  C_9
REMARK    4  A    between atoms: N_12  and  C_13
REMARK    5  A    between atoms: C_13  and  C_14
REMARK    6  A    between atoms: C_14  and  C_15
REMARK    7  A    between atoms: C_15  and  C_16
REMARK    8  A    between atoms: C_16  and  N_17
REMARK                            x       y       z     vdW  Elec       q    Type
REMARK                         _______ _______ _______ _____ _____    ______ ____
ROOT
ATOM      1  C   UNL     1       1.764   6.742  18.420  0.00  0.00    +0.000 C 
ENDROOT
BRANCH   1   5
ATOM      2  C   UNL     1       4.714   3.714  18.192  0.00  0.00    +0.000 C 
ATOM      3  C   UNL     1       3.271   3.323  17.824  0.00  0.00    +0.000 C 
ATOM      4  C   UNL     1       2.373   4.539  17.652  0.00  0.00    +0.000 C 
ATOM      5  N   UNL     1       2.303   5.423  18.821  0.00  0.00    +0.000 NA
ATOM      6  C   UNL     1       3.581   5.625  19.531  0.00  0.00    +0.000 C 
ATOM      7  C   UNL     1       4.625   4.502  19.503  0.00  0.00    +0.000 C 
BRANCH   2  13
ATOM      8  C   UNL     1       6.938   4.537  17.010  0.00  0.00    +0.000 A 
ATOM      9  C   UNL     1       7.584   4.877  15.801  0.00  0.00    +0.000 A 
ATOM     10  C   UNL     1       6.933   4.790  14.575  0.00  0.00    +0.000 A 
ATOM     11  C   UNL     1       5.605   4.410  14.543  0.00  0.00    +0.000 A 
ATOM     12  C   UNL     1       4.937   4.132  15.739  0.00  0.00    +0.000 A 
ATOM     13  C   UNL     1       5.572   4.187  17.007  0.00  0.00    +0.000 A 
BRANCH   8  15
ATOM     14  C   UNL     1       7.813   5.848  18.761  0.00  0.00    +0.000 C 
ATOM     15  O   UNL     1       7.634   4.547  18.192  0.00  0.00    +0.000 OA
ENDBRANCH   8  15
ENDBRANCH   2  13
ENDBRANCH   1   5
BRANCH   1  16
ATOM     16  C   UNL     1       2.802   7.726  17.858  0.00  0.00    +0.000 C 
BRANCH  16  17
ATOM     17  C   UNL     1       2.455   9.206  18.058  0.00  0.00    +0.000 C 
BRANCH  17  18
ATOM     18  C   UNL     1       0.942   9.445  18.020  0.00  0.00    +0.000 C 
BRANCH  18  19
ATOM     19  N   UNL     1       0.406  10.126  19.184  0.00  0.00    +0.000 N 
ATOM     20  C   UNL     1       0.499   9.648  20.466  0.00  0.00    +0.000 C 
ATOM     21  O   UNL     1       1.083   8.671  20.891  0.00  0.00    +0.000 OA
ATOM     22  C   UNL     1      -0.345  10.507  21.292  0.00  0.00    +0.000 A 
ATOM     23  C   UNL     1      -0.564  10.489  22.656  0.00  0.00    +0.000 A 
ATOM     24  C   UNL     1      -1.484  11.410  23.162  0.00  0.00    +0.000 A 
ATOM     25  C   UNL     1      -2.164  12.300  22.305  0.00  0.00    +0.000 A 
ATOM     26  C   UNL     1      -1.926  12.293  20.925  0.00  0.00    +0.000 A 
ATOM     27  C   UNL     1      -0.996  11.389  20.451  0.00  0.00    +0.000 A 
ATOM     28  C   UNL     1      -0.547  11.113  19.089  0.00  0.00    +0.000 C 
ATOM     29  O   UNL     1      -1.017  11.645  18.097  0.00  0.00    +0.000 OA
ENDBRANCH  18  19
ENDBRANCH  17  18
ENDBRANCH  16  17
ENDBRANCH   1  16
TORSDOF 7
ENDMDL
MODEL 7
REMARK VINA RESULT:      -7.7      5.747      8.160
REMARK  Name = 
REMARK  8 active torsions:
REMARK  status: ('A' for Active; 'I' for Inactive)
REMARK    1  A    between atoms: C_1  and  O_2
REMARK    2  A    between atoms: O_2  and  C_3
REMARK    3  A    between atoms: C_8  and  C_9
REMARK    4  A    between atoms: N_12  and  C_13
REMARK    5  A    between atoms: C_13  and  C_14
REMARK    6  A    between atoms: C_14  and  C_15
REMARK    7  A    between atoms: C_15  and  C_16
REMARK    8  A    between atoms: C_16  and  N_17
REMARK                            x       y       z     vdW  Elec       q    Type
REMARK                         _______ _______ _______ _____ _____    ______ ____
ROOT
ATOM      1  C   UNL     1       7.935   6.915  18.243  0.00  0.00    +0.000 C 
ENDROOT
BRANCH   1   5
ATOM      2  C   UNL     1       4.080   5.211  17.850  0.00  0.00    +0.000 C 
ATOM      3  C   UNL     1       5.037   4.563  18.867  0.00  0.00    +0.000 C 
ATOM      4  C   UNL     1       6.259   5.429  19.136  0.00  0.00    +0.000 C 
ATOM      5  N   UNL     1       7.047   5.768  17.945  0.00  0.00    +0.000 NA
ATOM      6  C   UNL     1       6.258   6.075  16.738  0.00  0.00    +0.000 C 
ATOM      7  C   UNL     1       4.888   5.407  16.564  0.00  0.00    +0.000 C 
BRANCH   2  13
ATOM      8  C   UNL     1       2.551   6.348  19.692  0.00  0.00    +0.000 A 
ATOM      9  C   UNL     1       1.816   7.487  20.086  0.00  0.00    +0.000 A 
ATOM     10  C   UNL     1       1.764   8.633  19.298  0.00  0.00    +0.000 A 
ATOM     11  C   UNL     1       2.405   8.637  18.074  0.00  0.00    +0.000 A 
ATOM     12  C   UNL     1       3.083   7.493  17.645  0.00  0.00    +0.000 A 
ATOM     13  C   UNL     1       3.178   6.314  18.429  0.00  0.00    +0.000 A 
BRANCH   8  15
ATOM     14  C   UNL     1       1.469   4.476  20.627  0.00  0.00    +0.000 C 
ATOM     15  O   UNL     1       2.657   5.269  20.532  0.00  0.00    +0.000 OA
ENDBRANCH   8  15
ENDBRANCH   2  13
ENDBRANCH   1   5
BRANCH   1  16
ATOM     16  C   UNL     1       7.386   8.287  17.823  0.00  0.00    +0.000 C 
BRANCH  16  17
ATOM     17  C   UNL     1       8.433   9.407  17.777  0.00  0.00    +0.000 C 
BRANCH  17  18
ATOM     18  C   UNL     1       9.060   9.657  19.152  0.00  0.00    +0.000 C 
BRANCH  18  19
ATOM     19  N   UNL     1       9.410  11.040  19.419  0.00  0.00    +0.000 N 
ATOM     20  C   UNL     1      10.278  11.775  18.653  0.00  0.00    +0.000 C 
ATOM     21  O   UNL     1      10.834  11.485  17.611  0.00  0.00    +0.000 OA
ATOM     22  C   UNL     1      10.519  13.020  19.377  0.00  0.00    +0.000 A 
ATOM     23  C   UNL     1      11.275  14.121  19.022  0.00  0.00    +0.000 A 
ATOM     24  C   UNL     1      11.368  15.153  19.959  0.00  0.00    +0.000 A 
ATOM     25  C   UNL     1      10.729  15.055  21.212  0.00  0.00    +0.000 A 
ATOM     26  C   UNL     1       9.973  13.924  21.547  0.00  0.00    +0.000 A 
ATOM     27  C   UNL     1       9.877  12.926  20.597  0.00  0.00    +0.000 A 
ATOM     28  C   UNL     1       9.201  11.632  20.642  0.00  0.00    +0.000 C 
ATOM     29  O   UNL     1       8.635  11.195  21.629  0.00  0.00    +0.000 OA
ENDBRANCH  18  19
ENDBRANCH  17  18
ENDBRANCH  16  17
ENDBRANCH   1  16
TORSDOF 7
ENDMDL
MODEL 8
REMARK VINA RESULT:      -7.7      1.251      1.426
REMARK  Name = 
REMARK  8 active torsions:
REMARK  status: ('A' for Active; 'I' for Inactive)
REMARK    1  A    between atoms: C_1  and  O_2
REMARK    2  A    between atoms: O_2  and  C_3
REMARK    3  A    between atoms: C_8  and  C_9
REMARK    4  A    between atoms: N_12  and  C_13
REMARK    5  A    between atoms: C_13  and  C_14
REMARK    6  A    between atoms: C_14  and  C_15
REMARK    7  A    between atoms: C_15  and  C_16
REMARK    8  A    between atoms: C_16  and  N_17
REMARK                            x       y       z     vdW  Elec       q    Type
REMARK                         _______ _______ _______ _____ _____    ______ ____
ROOT
ATOM      1  C   UNL     1       0.892   3.729  20.254  0.00  0.00    +0.000 C 
ENDROOT
BRANCH   1   5
ATOM      2  C   UNL     1       4.368   2.874  17.994  0.00  0.00    +0.000 C 
ATOM      3  C   UNL     1       3.049   2.227  17.533  0.00  0.00    +0.000 C 
ATOM      4  C   UNL     1       1.839   2.837  18.225  0.00  0.00    +0.000 C 
ATOM      5  N   UNL     1       1.870   2.771  19.690  0.00  0.00    +0.000 NA
ATOM      6  C   UNL     1       3.190   3.019  20.300  0.00  0.00    +0.000 C 
ATOM      7  C   UNL     1       4.450   2.649  19.508  0.00  0.00    +0.000 C 
BRANCH   2  13
ATOM      8  C   UNL     1       5.327   4.484  16.123  0.00  0.00    +0.000 A 
ATOM      9  C   UNL     1       5.456   5.808  15.648  0.00  0.00    +0.000 A 
ATOM     10  C   UNL     1       4.873   6.883  16.311  0.00  0.00    +0.000 A 
ATOM     11  C   UNL     1       4.196   6.656  17.493  0.00  0.00    +0.000 A 
ATOM     12  C   UNL     1       4.116   5.359  18.007  0.00  0.00    +0.000 A 
ATOM     13  C   UNL     1       4.677   4.234  17.348  0.00  0.00    +0.000 A 
BRANCH   8  15
ATOM     14  C   UNL     1       6.232   3.779  14.065  0.00  0.00    +0.000 C 
ATOM     15  O   UNL     1       5.837   3.437  15.397  0.00  0.00    +0.000 OA
ENDBRANCH   8  15
ENDBRANCH   2  13
ENDBRANCH   1   5
BRANCH   1  16
ATOM     16  C   UNL     1       1.070   5.185  19.796  0.00  0.00    +0.000 C 
BRANCH  16  17
ATOM     17  C   UNL     1       1.527   6.151  20.895  0.00  0.00    +0.000 C 
BRANCH  17  18
ATOM     18  C   UNL     1       2.118   7.439  20.312  0.00  0.00    +0.000 C 
BRANCH  18  19
ATOM     19  N   UNL     1       1.190   8.552  20.235  0.00  0.00    +0.000 N 
ATOM     20  C   UNL     1       0.903   9.235  19.082  0.00  0.00    +0.000 C 
ATOM     21  O   UNL     1       1.263   9.021  17.940  0.00  0.00    +0.000 OA
ATOM     22  C   UNL     1       0.109  10.396  19.474  0.00  0.00    +0.000 A 
ATOM     23  C   UNL     1      -0.474  11.377  18.693  0.00  0.00    +0.000 A 
ATOM     24  C   UNL     1      -1.132  12.411  19.363  0.00  0.00    +0.000 A 
ATOM     25  C   UNL     1      -1.176  12.449  20.773  0.00  0.00    +0.000 A 
ATOM     26  C   UNL     1      -0.570  11.444  21.538  0.00  0.00    +0.000 A 
ATOM     27  C   UNL     1       0.054  10.420  20.854  0.00  0.00    +0.000 A 
ATOM     28  C   UNL     1       0.789   9.257  21.345  0.00  0.00    +0.000 C 
ATOM     29  O   UNL     1       1.023   9.049  22.523  0.00  0.00    +0.000 OA
ENDBRANCH  18  19
ENDBRANCH  17  18
ENDBRANCH  16  17
ENDBRANCH   1  16
TORSDOF 7
ENDMDL
MODEL 9
REMARK VINA RESULT:      -7.7      6.149      8.193
REMARK  Name = 
REMARK  8 active torsions:
REMARK  status: ('A' for Active; 'I' for Inactive)
REMARK    1  A    between atoms: C_1  and  O_2
REMARK    2  A    between atoms: O_2  and  C_3
REMARK    3  A    between atoms: C_8  and  C_9
REMARK    4  A    between atoms: N_12  and  C_13
REMARK    5  A    between atoms: C_13  and  C_14
REMARK    6  A    between atoms: C_14  and  C_15
REMARK    7  A    between atoms: C_15  and  C_16
REMARK    8  A    between atoms: C_16  and  N_17
REMARK                            x       y       z     vdW  Elec       q    Type
REMARK                         _______ _______ _______ _____ _____    ______ ____
ROOT
ATOM      1  C   UNL     1       7.165   8.132  17.257  0.00  0.00    +0.000 C 
ENDROOT
BRANCH   1   5
ATOM      2  C   UNL     1       4.998   4.495  17.289  0.00  0.00    +0.000 C 
ATOM      3  C   UNL     1       6.430   4.469  17.856  0.00  0.00    +0.000 C 
ATOM      4  C   UNL     1       6.987   5.868  18.068  0.00  0.00    +0.000 C 
ATOM      5  N   UNL     1       7.007   6.712  16.868  0.00  0.00    +0.000 NA
ATOM      6  C   UNL     1       5.826   6.584  15.993  0.00  0.00    +0.000 C 
ATOM      7  C   UNL     1       5.079   5.245  15.955  0.00  0.00    +0.000 C 
BRANCH   2  13
ATOM      8  C   UNL     1       3.305   3.878  19.230  0.00  0.00    +0.000 A 
ATOM      9  C   UNL     1       2.359   4.339  20.171  0.00  0.00    +0.000 A 
ATOM     10  C   UNL     1       2.058   5.691  20.303  0.00  0.00    +0.000 A 
ATOM     11  C   UNL     1       2.661   6.600  19.455  0.00  0.00    +0.000 A 
ATOM     12  C   UNL     1       3.551   6.148  18.477  0.00  0.00    +0.000 A 
ATOM     13  C   UNL     1       3.901   4.781  18.327  0.00  0.00    +0.000 A 
BRANCH   8  15
ATOM     14  C   UNL     1       4.491   2.122  20.260  0.00  0.00    +0.000 C 
ATOM     15  O   UNL     1       3.645   2.549  19.187  0.00  0.00    +0.000 OA
ENDBRANCH   8  15
ENDBRANCH   2  13
ENDBRANCH   1   5
BRANCH   1  16
ATOM     16  C   UNL     1       8.331   8.416  18.216  0.00  0.00    +0.000 C 
BRANCH  16  17
ATOM     17  C   UNL     1       8.695   9.899  18.358  0.00  0.00    +0.000 C 
BRANCH  17  18
ATOM     18  C   UNL     1       9.550  10.159  19.603  0.00  0.00    +0.000 C 
BRANCH  18  19
ATOM     19  N   UNL     1       9.755  11.561  19.917  0.00  0.00    +0.000 N 
ATOM     20  C   UNL     1      10.690  12.357  19.309  0.00  0.00    +0.000 C 
ATOM     21  O   UNL     1      11.435  12.112  18.380  0.00  0.00    +0.000 OA
ATOM     22  C   UNL     1      10.717  13.612  20.056  0.00  0.00    +0.000 A 
ATOM     23  C   UNL     1      11.447  14.763  19.831  0.00  0.00    +0.000 A 
ATOM     24  C   UNL     1      11.307  15.794  20.763  0.00  0.00    +0.000 A 
ATOM     25  C   UNL     1      10.470  15.645  21.888  0.00  0.00    +0.000 A 
ATOM     26  C   UNL     1       9.746  14.463  22.094  0.00  0.00    +0.000 A 
ATOM     27  C   UNL     1       9.883  13.467  21.148  0.00  0.00    +0.000 A 
ATOM     28  C   UNL     1       9.298  12.130  21.082  0.00  0.00    +0.000 C 
ATOM     29  O   UNL     1       8.602  11.649  21.961  0.00  0.00    +0.000 OA
ENDBRANCH  18  19
ENDBRANCH  17  18
ENDBRANCH  16  17
ENDBRANCH   1  16
TORSDOF 7
ENDMDL
