MODEL 1
REMARK VINA RESULT:      -7.4      0.000      0.000
REMARK  Name = 
REMARK  3 active torsions:
REMARK  status: ('A' for Active; 'I' for Inactive)
REMARK    1  A    between atoms: N_3  and  C_4
REMARK    2  A    between atoms: C_8  and  C_9
REMARK    3  A    between atoms: N_14  and  C_15
REMARK                            x       y       z     vdW  Elec       q    Type
REMARK                         _______ _______ _______ _____ _____    ______ ____
ROOT
ATOM      1  O   UNL     1       2.481   8.647  17.079  0.00  0.00    +0.000 OA
ATOM      2  C   UNL     1       2.278   8.291  18.238  0.00  0.00    +0.000 C 
ATOM      3  N   UNL     1       2.814   7.173  18.848  0.00  0.00    +0.000 N 
ATOM      4  N   UNL     1       1.479   8.996  19.123  0.00  0.00    +0.000 N 
ATOM      5  H   UNL     1       2.481   6.901  19.765  0.00  0.00    +0.000 HD
ATOM      6  H   UNL     1       1.196   8.455  19.926  0.00  0.00    +0.000 HD
ENDROOT
BRANCH   4   7
ATOM      7  C   UNL     1       0.618  10.158  18.833  0.00  0.00    +0.000 C 
ATOM      8  C   UNL     1       1.282  11.531  18.730  0.00  0.00    +0.000 C 
ATOM      9  C   UNL     1       1.863  11.936  20.072  0.00  0.00    +0.000 C 
ATOM     10  O   UNL     1       0.845  11.976  21.069  0.00  0.00    +0.000 OA
ATOM     11  C   UNL     1       0.101  10.758  21.258  0.00  0.00    +0.000 C 
ATOM     12  C   UNL     1      -0.989  11.112  22.273  0.00  0.00    +0.000 C 
ATOM     13  C   UNL     1      -0.819  10.123  23.405  0.00  0.00    +0.000 C 
ATOM     14  O   UNL     1       0.548   9.718  23.369  0.00  0.00    +0.000 OA
ATOM     15  C   UNL     1       0.909   9.665  21.982  0.00  0.00    +0.000 C 
ATOM     16  C   UNL     1      -0.476  10.271  19.914  0.00  0.00    +0.000 C 
ENDBRANCH   4   7
BRANCH   3  17
ATOM     17  C   UNL     1       3.709   6.271  18.286  0.00  0.00    +0.000 A 
ATOM     18  C   UNL     1       4.666   6.487  17.324  0.00  0.00    +0.000 A 
ATOM     19  N   UNL     1       5.304   5.296  17.139  0.00  0.00    +0.000 N 
ATOM     20  N   UNL     1       4.833   4.303  17.911  0.00  0.00    +0.000 NA
ATOM     21  C   UNL     1       3.836   4.882  18.600  0.00  0.00    +0.000 A 
ATOM     22  H   UNL     1       6.067   5.086  16.501  0.00  0.00    +0.000 HD
BRANCH  21  23
ATOM     23  C   UNL     1       2.927   4.115  19.534  0.00  0.00    +0.000 A 
ATOM     24  N   UNL     1       2.619   4.576  20.737  0.00  0.00    +0.000 NA
ATOM     25  C   UNL     1       1.708   3.727  21.335  0.00  0.00    +0.000 A 
ATOM     26  C   UNL     1       1.377   2.597  20.618  0.00  0.00    +0.000 A 
ATOM     27  S   UNL     1       2.181   2.621  19.107  0.00  0.00    +0.000 S 
ENDBRANCH  21  23
ENDBRANCH   3  17
TORSDOF 3
ENDMDL
MODEL 2
REMARK VINA RESULT:      -7.2      1.134      1.170
REMARK  Name = 
REMARK  3 active torsions:
REMARK  status: ('A' for Active; 'I' for Inactive)
REMARK    1  A    between atoms: N_3  and  C_4
REMARK    2  A    between atoms: C_8  and  C_9
REMARK    3  A    between atoms: N_14  and  C_15
REMARK                            x       y       z     vdW  Elec       q    Type
REMARK                         _______ _______ _______ _____ _____    ______ ____
ROOT
ATOM      1  O   UNL     1       2.953   7.531  17.564  0.00  0.00    +0.000 OA
ATOM      2  C   UNL     1       2.714   7.474  18.768  0.00  0.00    +0.000 C 
ATOM      3  N   UNL     1       3.279   6.589  19.666  0.00  0.00    +0.000 N 
ATOM      4  N   UNL     1       1.837   8.332  19.412  0.00  0.00    +0.000 N 
ATOM      5  H   UNL     1       2.918   6.543  20.611  0.00  0.00    +0.000 HD
ATOM      6  H   UNL     1       1.544   8.000  20.318  0.00  0.00    +0.000 HD
ENDROOT
BRANCH   4   7
ATOM      7  C   UNL     1       0.928   9.320  18.801  0.00  0.00    +0.000 C 
ATOM      8  C   UNL     1       1.510  10.680  18.413  0.00  0.00    +0.000 C 
ATOM      9  C   UNL     1       1.958  11.433  19.651  0.00  0.00    +0.000 C 
ATOM     10  O   UNL     1       0.865  11.624  20.547  0.00  0.00    +0.000 OA
ATOM     11  C   UNL     1       0.187  10.428  20.976  0.00  0.00    +0.000 C 
ATOM     12  C   UNL     1      -0.999  10.922  21.808  0.00  0.00    +0.000 C 
ATOM     13  C   UNL     1      -0.855  10.242  23.152  0.00  0.00    +0.000 C 
ATOM     14  O   UNL     1       0.532   9.950  23.297  0.00  0.00    +0.000 OA
ATOM     15  C   UNL     1       1.003   9.603  21.988  0.00  0.00    +0.000 C 
ATOM     16  C   UNL     1      -0.251   9.596  19.754  0.00  0.00    +0.000 C 
ENDBRANCH   4   7
BRANCH   3  17
ATOM     17  C   UNL     1       4.248   5.632  19.389  0.00  0.00    +0.000 A 
ATOM     18  C   UNL     1       5.596   5.800  19.186  0.00  0.00    +0.000 A 
ATOM     19  N   UNL     1       6.114   4.554  18.982  0.00  0.00    +0.000 N 
ATOM     20  N   UNL     1       5.199   3.572  19.032  0.00  0.00    +0.000 NA
ATOM     21  C   UNL     1       4.045   4.224  19.253  0.00  0.00    +0.000 A 
ATOM     22  H   UNL     1       7.081   4.300  18.801  0.00  0.00    +0.000 HD
BRANCH  21  23
ATOM     23  C   UNL     1       2.701   3.532  19.279  0.00  0.00    +0.000 A 
ATOM     24  N   UNL     1       1.732   3.927  20.091  0.00  0.00    +0.000 NA
ATOM     25  C   UNL     1       0.593   3.185  19.844  0.00  0.00    +0.000 A 
ATOM     26  C   UNL     1       0.716   2.191  18.897  0.00  0.00    +0.000 A 
ATOM     27  S   UNL     1       2.296   2.221  18.236  0.00  0.00    +0.000 S 
ENDBRANCH  21  23
ENDBRANCH   3  17
TORSDOF 3
ENDMDL
MODEL 3
REMARK VINA RESULT:      -7.1      3.763      7.700
REMARK  Name = 
REMARK  3 active torsions:
REMARK  status: ('A' for Active; 'I' for Inactive)
REMARK    1  A    between atoms: N_3  and  C_4
REMARK    2  A    between atoms: C_8  and  C_9
REMARK    3  A    between atoms: N_14  and  C_15
REMARK                            x       y       z     vdW  Elec       q    Type
REMARK                         _______ _______ _______ _____ _____    ______ ____
ROOT
ATOM      1  O   UNL     1       5.333   5.310  19.931  0.00  0.00    +0.000 OA
ATOM      2  C   UNL     1       5.310   4.261  19.290  0.00  0.00    +0.000 C 
ATOM      3  N   UNL     1       4.410   3.227  19.459  0.00  0.00    +0.000 N 
ATOM      4  N   UNL     1       6.196   3.976  18.263  0.00  0.00    +0.000 N 
ATOM      5  H   UNL     1       4.558   2.355  18.967  0.00  0.00    +0.000 HD
ATOM      6  H   UNL     1       6.228   2.997  18.022  0.00  0.00    +0.000 HD
ENDROOT
BRANCH   4   7
ATOM      7  C   UNL     1       7.389   4.745  17.860  0.00  0.00    +0.000 C 
ATOM      8  C   UNL     1       7.315   6.270  17.941  0.00  0.00    +0.000 C 
ATOM      9  C   UNL     1       6.290   6.800  16.957  0.00  0.00    +0.000 C 
ATOM     10  O   UNL     1       6.622   6.412  15.626  0.00  0.00    +0.000 OA
ATOM     11  C   UNL     1       6.763   4.997  15.400  0.00  0.00    +0.000 C 
ATOM     12  C   UNL     1       7.240   4.872  13.950  0.00  0.00    +0.000 C 
ATOM     13  C   UNL     1       6.233   3.967  13.275  0.00  0.00    +0.000 C 
ATOM     14  O   UNL     1       5.024   4.102  14.017  0.00  0.00    +0.000 OA
ATOM     15  C   UNL     1       5.416   4.251  15.389  0.00  0.00    +0.000 C 
ATOM     16  C   UNL     1       7.763   4.393  16.407  0.00  0.00    +0.000 C 
ENDBRANCH   4   7
BRANCH   3  17
ATOM     17  C   UNL     1       3.343   3.194  20.349  0.00  0.00    +0.000 A 
ATOM     18  C   UNL     1       2.987   2.207  21.237  0.00  0.00    +0.000 A 
ATOM     19  N   UNL     1       1.889   2.666  21.904  0.00  0.00    +0.000 N 
ATOM     20  N   UNL     1       1.491   3.889  21.517  0.00  0.00    +0.000 NA
ATOM     21  C   UNL     1       2.359   4.212  20.544  0.00  0.00    +0.000 A 
ATOM     22  H   UNL     1       1.359   2.198  22.633  0.00  0.00    +0.000 HD
BRANCH  21  23
ATOM     23  C   UNL     1       2.241   5.475  19.721  0.00  0.00    +0.000 A 
ATOM     24  N   UNL     1       2.183   6.671  20.289  0.00  0.00    +0.000 NA
ATOM     25  C   UNL     1       2.169   7.645  19.310  0.00  0.00    +0.000 A 
ATOM     26  C   UNL     1       2.152   7.190  18.008  0.00  0.00    +0.000 A 
ATOM     27  S   UNL     1       2.222   5.479  17.998  0.00  0.00    +0.000 S 
ENDBRANCH  21  23
ENDBRANCH   3  17
TORSDOF 3
ENDMDL
MODEL 4
REMARK VINA RESULT:      -7.0      1.970      3.153
REMARK  Name = 
REMARK  3 active torsions:
REMARK  status: ('A' for Active; 'I' for Inactive)
REMARK    1  A    between atoms: N_3  and  C_4
REMARK    2  A    between atoms: C_8  and  C_9
REMARK    3  A    between atoms: N_14  and  C_15
REMARK                            x       y       z     vdW  Elec       q    Type
REMARK                         _______ _______ _______ _____ _____    ______ ____
ROOT
ATOM      1  O   UNL     1       1.813   6.443  17.922  0.00  0.00    +0.000 OA
ATOM      2  C   UNL     1       2.257   6.957  18.946  0.00  0.00    +0.000 C 
ATOM      3  N   UNL     1       3.021   6.322  19.906  0.00  0.00    +0.000 N 
ATOM      4  N   UNL     1       2.065   8.289  19.275  0.00  0.00    +0.000 N 
ATOM      5  H   UNL     1       3.227   6.802  20.773  0.00  0.00    +0.000 HD
ATOM      6  H   UNL     1       2.248   8.493  20.246  0.00  0.00    +0.000 HD
ENDROOT
BRANCH   4   7
ATOM      7  C   UNL     1       1.197   9.271  18.598  0.00  0.00    +0.000 C 
ATOM      8  C   UNL     1       1.812  10.613  18.202  0.00  0.00    +0.000 C 
ATOM      9  C   UNL     1       2.211  11.394  19.440  0.00  0.00    +0.000 C 
ATOM     10  O   UNL     1       1.081  11.620  20.279  0.00  0.00    +0.000 OA
ATOM     11  C   UNL     1       0.370  10.443  20.707  0.00  0.00    +0.000 C 
ATOM     12  C   UNL     1      -0.847  10.970  21.471  0.00  0.00    +0.000 C 
ATOM     13  C   UNL     1      -0.772  10.325  22.837  0.00  0.00    +0.000 C 
ATOM     14  O   UNL     1       0.604  10.022  23.054  0.00  0.00    +0.000 OA
ATOM     15  C   UNL     1       1.130   9.636  21.777  0.00  0.00    +0.000 C 
ATOM     16  C   UNL     1      -0.022   9.583  19.489  0.00  0.00    +0.000 C 
ENDBRANCH   4   7
BRANCH   3  17
ATOM     17  C   UNL     1       3.465   5.005  19.875  0.00  0.00    +0.000 A 
ATOM     18  C   UNL     1       2.819   3.865  20.287  0.00  0.00    +0.000 A 
ATOM     19  N   UNL     1       3.660   2.826  20.016  0.00  0.00    +0.000 N 
ATOM     20  N   UNL     1       4.821   3.200  19.455  0.00  0.00    +0.000 NA
ATOM     21  C   UNL     1       4.725   4.538  19.388  0.00  0.00    +0.000 A 
ATOM     22  H   UNL     1       3.509   1.836  20.189  0.00  0.00    +0.000 HD
BRANCH  21  23
ATOM     23  C   UNL     1       5.858   5.423  18.918  0.00  0.00    +0.000 A 
ATOM     24  N   UNL     1       6.998   5.506  19.587  0.00  0.00    +0.000 NA
ATOM     25  C   UNL     1       7.882   6.308  18.892  0.00  0.00    +0.000 A 
ATOM     26  C   UNL     1       7.394   6.882  17.738  0.00  0.00    +0.000 A 
ATOM     27  S   UNL     1       5.789   6.351  17.467  0.00  0.00    +0.000 S 
ENDBRANCH  21  23
ENDBRANCH   3  17
TORSDOF 3
ENDMDL
MODEL 5
REMARK VINA RESULT:      -6.9      4.303      6.238
REMARK  Name = 
REMARK  3 active torsions:
REMARK  status: ('A' for Active; 'I' for Inactive)
REMARK    1  A    between atoms: N_3  and  C_4
REMARK    2  A    between atoms: C_8  and  C_9
REMARK    3  A    between atoms: N_14  and  C_15
REMARK                            x       y       z     vdW  Elec       q    Type
REMARK                         _______ _______ _______ _____ _____    ______ ____
ROOT
ATOM      1  O   UNL     1       4.087   6.199  16.336  0.00  0.00    +0.000 OA
ATOM      2  C   UNL     1       4.030   4.980  16.484  0.00  0.00    +0.000 C 
ATOM      3  N   UNL     1       4.849   4.050  15.872  0.00  0.00    +0.000 N 
ATOM      4  N   UNL     1       3.126   4.356  17.329  0.00  0.00    +0.000 N 
ATOM      5  H   UNL     1       4.634   3.065  15.963  0.00  0.00    +0.000 HD
ATOM      6  H   UNL     1       3.020   3.370  17.144  0.00  0.00    +0.000 HD
ENDROOT
BRANCH   4   7
ATOM      7  C   UNL     1       1.997   4.968  18.053  0.00  0.00    +0.000 C 
ATOM      8  C   UNL     1       2.235   6.312  18.741  0.00  0.00    +0.000 C 
ATOM      9  C   UNL     1       3.242   6.157  19.865  0.00  0.00    +0.000 C 
ATOM     10  O   UNL     1       2.782   5.209  20.825  0.00  0.00    +0.000 OA
ATOM     11  C   UNL     1       2.478   3.896  20.317  0.00  0.00    +0.000 C 
ATOM     12  C   UNL     1       1.894   3.134  21.510  0.00  0.00    +0.000 C 
ATOM     13  C   UNL     1       2.753   1.896  21.652  0.00  0.00    +0.000 C 
ATOM     14  O   UNL     1       4.017   2.228  21.083  0.00  0.00    +0.000 OA
ATOM     15  C   UNL     1       3.736   3.080  19.965  0.00  0.00    +0.000 C 
ATOM     16  C   UNL     1       1.491   3.995  19.136  0.00  0.00    +0.000 C 
ENDBRANCH   4   7
BRANCH   3  17
ATOM     17  C   UNL     1       5.909   4.316  15.014  0.00  0.00    +0.000 A 
ATOM     18  C   UNL     1       6.091   3.913  13.713  0.00  0.00    +0.000 A 
ATOM     19  N   UNL     1       7.270   4.462  13.300  0.00  0.00    +0.000 N 
ATOM     20  N   UNL     1       7.883   5.199  14.241  0.00  0.00    +0.000 NA
ATOM     21  C   UNL     1       7.071   5.095  15.306  0.00  0.00    +0.000 A 
ATOM     22  H   UNL     1       7.718   4.374  12.393  0.00  0.00    +0.000 HD
BRANCH  21  23
ATOM     23  C   UNL     1       7.408   5.681  16.658  0.00  0.00    +0.000 A 
ATOM     24  N   UNL     1       7.584   6.983  16.827  0.00  0.00    +0.000 NA
ATOM     25  C   UNL     1       7.790   7.250  18.167  0.00  0.00    +0.000 A 
ATOM     26  C   UNL     1       7.835   6.152  18.999  0.00  0.00    +0.000 A 
ATOM     27  S   UNL     1       7.543   4.730  18.090  0.00  0.00    +0.000 S 
ENDBRANCH  21  23
ENDBRANCH   3  17
TORSDOF 3
ENDMDL
MODEL 6
REMARK VINA RESULT:      -6.7      1.388      1.458
REMARK  Name = 
REMARK  3 active torsions:
REMARK  status: ('A' for Active; 'I' for Inactive)
REMARK    1  A    between atoms: N_3  and  C_4
REMARK    2  A    between atoms: C_8  and  C_9
REMARK    3  A    between atoms: N_14  and  C_15
REMARK                            x       y       z     vdW  Elec       q    Type
REMARK                         _______ _______ _______ _____ _____    ______ ____
ROOT
ATOM      1  O   UNL     1       2.275   6.558  17.741  0.00  0.00    +0.000 OA
ATOM      2  C   UNL     1       2.695   7.072  18.776  0.00  0.00    +0.000 C 
ATOM      3  N   UNL     1       3.737   6.601  19.552  0.00  0.00    +0.000 N 
ATOM      4  N   UNL     1       2.179   8.243  19.309  0.00  0.00    +0.000 N 
ATOM      5  H   UNL     1       3.917   7.027  20.452  0.00  0.00    +0.000 HD
ATOM      6  H   UNL     1       2.432   8.389  20.274  0.00  0.00    +0.000 HD
ENDROOT
BRANCH   4   7
ATOM      7  C   UNL     1       0.980   8.982  18.872  0.00  0.00    +0.000 C 
ATOM      8  C   UNL     1       1.162  10.428  18.412  0.00  0.00    +0.000 C 
ATOM      9  C   UNL     1       1.624  11.294  19.569  0.00  0.00    +0.000 C 
ATOM     10  O   UNL     1       0.680  11.253  20.636  0.00  0.00    +0.000 OA
ATOM     11  C   UNL     1       0.374   9.944  21.156  0.00  0.00    +0.000 C 
ATOM     12  C   UNL     1      -0.739  10.174  22.181  0.00  0.00    +0.000 C 
ATOM     13  C   UNL     1      -0.222   9.578  23.472  0.00  0.00    +0.000 C 
ATOM     14  O   UNL     1       1.200   9.615  23.380  0.00  0.00    +0.000 OA
ATOM     15  C   UNL     1       1.514   9.353  22.006  0.00  0.00    +0.000 C 
ATOM     16  C   UNL     1      -0.057   9.004  20.012  0.00  0.00    +0.000 C 
ENDBRANCH   4   7
BRANCH   3  17
ATOM     17  C   UNL     1       4.529   5.490  19.288  0.00  0.00    +0.000 A 
ATOM     18  C   UNL     1       5.809   5.438  18.791  0.00  0.00    +0.000 A 
ATOM     19  N   UNL     1       6.153   4.119  18.747  0.00  0.00    +0.000 N 
ATOM     20  N   UNL     1       5.186   3.292  19.177  0.00  0.00    +0.000 NA
ATOM     21  C   UNL     1       4.174   4.119  19.486  0.00  0.00    +0.000 A 
ATOM     22  H   UNL     1       7.029   3.710  18.433  0.00  0.00    +0.000 HD
BRANCH  21  23
ATOM     23  C   UNL     1       2.812   3.628  19.919  0.00  0.00    +0.000 A 
ATOM     24  N   UNL     1       1.830   3.446  19.049  0.00  0.00    +0.000 NA
ATOM     25  C   UNL     1       0.734   2.911  19.697  0.00  0.00    +0.000 A 
ATOM     26  C   UNL     1       0.861   2.747  21.060  0.00  0.00    +0.000 A 
ATOM     27  S   UNL     1       2.432   3.218  21.550  0.00  0.00    +0.000 S 
ENDBRANCH  21  23
ENDBRANCH   3  17
TORSDOF 3
ENDMDL
MODEL 7
REMARK VINA RESULT:      -6.6      5.776      7.185
REMARK  Name = 
REMARK  3 active torsions:
REMARK  status: ('A' for Active; 'I' for Inactive)
REMARK    1  A    between atoms: N_3  and  C_4
REMARK    2  A    between atoms: C_8  and  C_9
REMARK    3  A    between atoms: N_14  and  C_15
REMARK                            x       y       z     vdW  Elec       q    Type
REMARK                         _______ _______ _______ _____ _____    ______ ____
ROOT
ATOM      1  O   UNL     1       0.206  10.067  18.784  0.00  0.00    +0.000 OA
ATOM      2  C   UNL     1      -0.301  11.080  18.305  0.00  0.00    +0.000 C 
ATOM      3  N   UNL     1       0.071  12.382  18.583  0.00  0.00    +0.000 N 
ATOM      4  N   UNL     1      -1.328  11.052  17.376  0.00  0.00    +0.000 N 
ATOM      5  H   UNL     1      -0.496  13.144  18.234  0.00  0.00    +0.000 HD
ATOM      6  H   UNL     1      -1.810  11.934  17.285  0.00  0.00    +0.000 HD
ENDROOT
BRANCH   4   7
ATOM      7  C   UNL     1      -2.102   9.882  16.921  0.00  0.00    +0.000 C 
ATOM      8  C   UNL     1      -2.639   9.895  15.490  0.00  0.00    +0.000 C 
ATOM      9  C   UNL     1      -3.667  10.998  15.324  0.00  0.00    +0.000 C 
ATOM     10  O   UNL     1      -4.750  10.818  16.234  0.00  0.00    +0.000 OA
ATOM     11  C   UNL     1      -4.395  10.749  17.628  0.00  0.00    +0.000 C 
ATOM     12  C   UNL     1      -5.704  10.429  18.355  0.00  0.00    +0.000 C 
ATOM     13  C   UNL     1      -5.871  11.529  19.379  0.00  0.00    +0.000 C 
ATOM     14  O   UNL     1      -5.152  12.651  18.872  0.00  0.00    +0.000 OA
ATOM     15  C   UNL     1      -3.995  12.115  18.216  0.00  0.00    +0.000 C 
ATOM     16  C   UNL     1      -3.314   9.672  17.851  0.00  0.00    +0.000 C 
ENDBRANCH   4   7
BRANCH   3  17
ATOM     17  C   UNL     1       1.107  12.788  19.416  0.00  0.00    +0.000 A 
ATOM     18  C   UNL     1       2.339  13.295  19.080  0.00  0.00    +0.000 A 
ATOM     19  N   UNL     1       2.976  13.570  20.255  0.00  0.00    +0.000 N 
ATOM     20  N   UNL     1       2.252  13.275  21.347  0.00  0.00    +0.000 NA
ATOM     21  C   UNL     1       1.113  12.769  20.846  0.00  0.00    +0.000 A 
ATOM     22  H   UNL     1       3.907  13.956  20.387  0.00  0.00    +0.000 HD
BRANCH  21  23
ATOM     23  C   UNL     1       0.018  12.190  21.712  0.00  0.00    +0.000 A 
ATOM     24  N   UNL     1       0.105  10.969  22.219  0.00  0.00    +0.000 NA
ATOM     25  C   UNL     1      -0.982  10.731  23.037  0.00  0.00    +0.000 A 
ATOM     26  C   UNL     1      -1.920  11.740  23.100  0.00  0.00    +0.000 A 
ATOM     27  S   UNL     1      -1.399  13.068  22.153  0.00  0.00    +0.000 S 
ENDBRANCH  21  23
ENDBRANCH   3  17
TORSDOF 3
ENDMDL
MODEL 8
REMARK VINA RESULT:      -6.6      3.043      6.801
REMARK  Name = 
REMARK  3 active torsions:
REMARK  status: ('A' for Active; 'I' for Inactive)
REMARK    1  A    between atoms: N_3  and  C_4
REMARK    2  A    between atoms: C_8  and  C_9
REMARK    3  A    between atoms: N_14  and  C_15
REMARK                            x       y       z     vdW  Elec       q    Type
REMARK                         _______ _______ _______ _____ _____    ______ ____
ROOT
ATOM      1  O   UNL     1       3.644   8.153  17.482  0.00  0.00    +0.000 OA
ATOM      2  C   UNL     1       2.875   7.706  18.330  0.00  0.00    +0.000 C 
ATOM      3  N   UNL     1       1.894   8.421  18.992  0.00  0.00    +0.000 N 
ATOM      4  N   UNL     1       2.870   6.380  18.732  0.00  0.00    +0.000 N 
ATOM      5  H   UNL     1       1.401   7.989  19.763  0.00  0.00    +0.000 HD
ATOM      6  H   UNL     1       2.384   6.228  19.603  0.00  0.00    +0.000 HD
ENDROOT
BRANCH   4   7
ATOM      7  C   UNL     1       3.839   5.326  18.379  0.00  0.00    +0.000 C 
ATOM      8  C   UNL     1       3.553   4.482  17.137  0.00  0.00    +0.000 C 
ATOM      9  C   UNL     1       2.297   3.656  17.341  0.00  0.00    +0.000 C 
ATOM     10  O   UNL     1       2.434   2.801  18.473  0.00  0.00    +0.000 OA
ATOM     11  C   UNL     1       2.744   3.453  19.720  0.00  0.00    +0.000 C 
ATOM     12  C   UNL     1       2.960   2.315  20.721  0.00  0.00    +0.000 C 
ATOM     13  C   UNL     1       1.995   2.589  21.853  0.00  0.00    +0.000 C 
ATOM     14  O   UNL     1       0.935   3.357  21.288  0.00  0.00    +0.000 OA
ATOM     15  C   UNL     1       1.544   4.216  20.314  0.00  0.00    +0.000 C 
ATOM     16  C   UNL     1       3.989   4.347  19.560  0.00  0.00    +0.000 C 
ENDBRANCH   4   7
BRANCH   3  17
ATOM     17  C   UNL     1       1.567   9.757  18.795  0.00  0.00    +0.000 A 
ATOM     18  C   UNL     1       1.945  10.599  17.777  0.00  0.00    +0.000 A 
ATOM     19  N   UNL     1       1.336  11.796  18.020  0.00  0.00    +0.000 N 
ATOM     20  N   UNL     1       0.583  11.805  19.132  0.00  0.00    +0.000 NA
ATOM     21  C   UNL     1       0.739  10.568  19.631  0.00  0.00    +0.000 A 
ATOM     22  H   UNL     1       1.392  12.649  17.472  0.00  0.00    +0.000 HD
BRANCH  21  23
ATOM     23  C   UNL     1       0.155  10.136  20.957  0.00  0.00    +0.000 A 
ATOM     24  N   UNL     1       0.157   8.867  21.337  0.00  0.00    +0.000 NA
ATOM     25  C   UNL     1      -0.351   8.768  22.618  0.00  0.00    +0.000 A 
ATOM     26  C   UNL     1      -0.796   9.945  23.181  0.00  0.00    +0.000 A 
ATOM     27  S   UNL     1      -0.511  11.242  22.099  0.00  0.00    +0.000 S 
ENDBRANCH  21  23
ENDBRANCH   3  17
TORSDOF 3
ENDMDL
MODEL 9
REMARK VINA RESULT:      -6.5      4.263      6.962
REMARK  Name = 
REMARK  3 active torsions:
REMARK  status: ('A' for Active; 'I' for Inactive)
REMARK    1  A    between atoms: N_3  and  C_4
REMARK    2  A    between atoms: C_8  and  C_9
REMARK    3  A    between atoms: N_14  and  C_15
REMARK                            x       y       z     vdW  Elec       q    Type
REMARK                         _______ _______ _______ _____ _____    ______ ____
ROOT
ATOM      1  O   UNL     1       5.793   3.968  18.568  0.00  0.00    +0.000 OA
ATOM      2  C   UNL     1       5.053   3.626  17.648  0.00  0.00    +0.000 C 
ATOM      3  N   UNL     1       5.209   3.958  16.315  0.00  0.00    +0.000 N 
ATOM      4  N   UNL     1       3.943   2.816  17.823  0.00  0.00    +0.000 N 
ATOM      5  H   UNL     1       4.473   3.731  15.658  0.00  0.00    +0.000 HD
ATOM      6  H   UNL     1       3.299   2.845  17.047  0.00  0.00    +0.000 HD
ENDROOT
BRANCH   4   7
ATOM      7  C   UNL     1       3.348   2.363  19.095  0.00  0.00    +0.000 C 
ATOM      8  C   UNL     1       1.974   1.695  19.041  0.00  0.00    +0.000 C 
ATOM      9  C   UNL     1       0.925   2.686  18.575  0.00  0.00    +0.000 C 
ATOM     10  O   UNL     1       0.871   3.810  19.449  0.00  0.00    +0.000 OA
ATOM     11  C   UNL     1       2.107   4.526  19.632  0.00  0.00    +0.000 C 
ATOM     12  C   UNL     1       1.801   5.583  20.696  0.00  0.00    +0.000 C 
ATOM     13  C   UNL     1       2.173   6.906  20.065  0.00  0.00    +0.000 C 
ATOM     14  O   UNL     1       2.063   6.714  18.657  0.00  0.00    +0.000 OA
ATOM     15  C   UNL     1       2.500   5.371  18.405  0.00  0.00    +0.000 C 
ATOM     16  C   UNL     1       3.226   3.557  20.062  0.00  0.00    +0.000 C 
ENDBRANCH   4   7
BRANCH   3  17
ATOM     17  C   UNL     1       6.246   4.700  15.762  0.00  0.00    +0.000 A 
ATOM     18  C   UNL     1       7.064   5.625  16.364  0.00  0.00    +0.000 A 
ATOM     19  N   UNL     1       7.941   6.045  15.407  0.00  0.00    +0.000 N 
ATOM     20  N   UNL     1       7.757   5.463  14.211  0.00  0.00    +0.000 NA
ATOM     21  C   UNL     1       6.703   4.656  14.408  0.00  0.00    +0.000 A 
ATOM     22  H   UNL     1       8.688   6.728  15.498  0.00  0.00    +0.000 HD
BRANCH  21  23
ATOM     23  C   UNL     1       6.053   3.863  13.297  0.00  0.00    +0.000 A 
ATOM     24  N   UNL     1       4.737   3.813  13.157  0.00  0.00    +0.000 NA
ATOM     25  C   UNL     1       4.422   3.099  12.018  0.00  0.00    +0.000 A 
ATOM     26  C   UNL     1       5.488   2.556  11.333  0.00  0.00    +0.000 A 
ATOM     27  S   UNL     1       6.951   3.006  12.101  0.00  0.00    +0.000 S 
ENDBRANCH  21  23
ENDBRANCH   3  17
TORSDOF 3
ENDMDL
