MODEL 1
REMARK VINA RESULT:      -5.6      0.000      0.000
REMARK  Name = 
REMARK  6 active torsions:
REMARK  status: ('A' for Active; 'I' for Inactive)
REMARK    1  A    between atoms: N_1  and  C_2
REMARK    2  A    between atoms: C_2  and  C_3
REMARK    3  A    between atoms: C_3  and  O_4
REMARK    4  A    between atoms: C_3  and  C_5
REMARK    5  A    between atoms: C_7  and  O_8
REMARK    6  A    between atoms: C_9  and  O_10
REMARK                            x       y       z     vdW  Elec       q    Type
REMARK                         _______ _______ _______ _____ _____    ______ ____
ROOT
ATOM      1  C   UNL     1       5.464   4.983  17.626  0.00  0.00    +0.000 A 
ATOM      2  C   UNL     1       6.154   4.769  18.833  0.00  0.00    +0.000 A 
ATOM      3  C   UNL     1       7.198   5.621  19.225  0.00  0.00    +0.000 A 
ATOM      4  C   UNL     1       7.562   6.702  18.403  0.00  0.00    +0.000 A 
ATOM      5  C   UNL     1       6.889   6.911  17.197  0.00  0.00    +0.000 A 
ATOM      6  C   UNL     1       5.851   6.062  16.803  0.00  0.00    +0.000 A 
ATOM      7  F   UNL     1       5.221   6.314  15.627  0.00  0.00    +0.000 F 
ENDROOT
BRANCH   3   8
ATOM      8  O   UNL     1       7.847   5.409  20.389  0.00  0.00    +0.000 OA
ATOM      9  H   UNL     1       8.231   4.551  20.617  0.00  0.00    +0.000 HD
ENDBRANCH   3   8
BRANCH   4  10
ATOM     10  O   UNL     1       8.547   7.552  18.759  0.00  0.00    +0.000 OA
ATOM     11  H   UNL     1       8.715   8.384  18.295  0.00  0.00    +0.000 HD
ENDBRANCH   4  10
BRANCH   1  12
ATOM     12  C   UNL     1       4.304   4.070  17.260  0.00  0.00    +0.000 C 
BRANCH  12  13
ATOM     13  O   UNL     1       4.544   2.778  17.758  0.00  0.00    +0.000 OA
ATOM     14  H   UNL     1       3.720   2.456  18.204  0.00  0.00    +0.000 HD
ENDBRANCH  12  13
BRANCH  12  15
ATOM     15  C   UNL     1       2.925   4.595  17.713  0.00  0.00    +0.000 C 
BRANCH  15  16
ATOM     16  N   UNL     1       1.861   3.675  17.323  0.00  0.00    +0.000 NA
ATOM     17  H   UNL     1       2.030   3.380  16.333  0.00  0.00    +0.000 HD
ATOM     18  H   UNL     1       0.947   4.185  17.342  0.00  0.00    +0.000 HD
ENDBRANCH  15  16
ENDBRANCH  12  15
ENDBRANCH   1  12
TORSDOF 6
ENDMDL
MODEL 2
REMARK VINA RESULT:      -5.6      3.707      4.814
REMARK  Name = 
REMARK  6 active torsions:
REMARK  status: ('A' for Active; 'I' for Inactive)
REMARK    1  A    between atoms: N_1  and  C_2
REMARK    2  A    between atoms: C_2  and  C_3
REMARK    3  A    between atoms: C_3  and  O_4
REMARK    4  A    between atoms: C_3  and  C_5
REMARK    5  A    between atoms: C_7  and  O_8
REMARK    6  A    between atoms: C_9  and  O_10
REMARK                            x       y       z     vdW  Elec       q    Type
REMARK                         _______ _______ _______ _____ _____    ______ ____
ROOT
ATOM      1  C   UNL     1       2.760   4.867  18.705  0.00  0.00    +0.000 A 
ATOM      2  C   UNL     1       3.836   4.313  19.421  0.00  0.00    +0.000 A 
ATOM      3  C   UNL     1       4.180   2.961  19.270  0.00  0.00    +0.000 A 
ATOM      4  C   UNL     1       3.442   2.147  18.393  0.00  0.00    +0.000 A 
ATOM      5  C   UNL     1       2.363   2.689  17.690  0.00  0.00    +0.000 A 
ATOM      6  C   UNL     1       2.017   4.035  17.841  0.00  0.00    +0.000 A 
ATOM      7  F   UNL     1       0.968   4.516  17.127  0.00  0.00    +0.000 F 
ENDROOT
BRANCH   3   8
ATOM      8  O   UNL     1       5.220   2.443  19.957  0.00  0.00    +0.000 OA
ATOM      9  H   UNL     1       6.133   2.514  19.642  0.00  0.00    +0.000 HD
ENDBRANCH   3   8
BRANCH   4  10
ATOM     10  O   UNL     1       3.758   0.848  18.209  0.00  0.00    +0.000 OA
ATOM     11  H   UNL     1       4.133   0.296  18.909  0.00  0.00    +0.000 HD
ENDBRANCH   4  10
BRANCH   1  12
ATOM     12  C   UNL     1       2.450   6.348  18.855  0.00  0.00    +0.000 C 
BRANCH  12  13
ATOM     13  O   UNL     1       2.632   6.736  20.194  0.00  0.00    +0.000 OA
ATOM     14  H   UNL     1       3.237   6.082  20.630  0.00  0.00    +0.000 HD
ENDBRANCH  12  13
BRANCH  12  15
ATOM     15  C   UNL     1       3.250   7.257  17.898  0.00  0.00    +0.000 C 
BRANCH  15  16
ATOM     16  N   UNL     1       2.483   8.447  17.542  0.00  0.00    +0.000 NA
ATOM     17  H   UNL     1       2.749   9.217  18.199  0.00  0.00    +0.000 HD
ATOM     18  H   UNL     1       1.466   8.252  17.691  0.00  0.00    +0.000 HD
ENDBRANCH  15  16
ENDBRANCH  12  15
ENDBRANCH   1  12
TORSDOF 6
ENDMDL
MODEL 3
REMARK VINA RESULT:      -5.6      2.951      4.632
REMARK  Name = 
REMARK  6 active torsions:
REMARK  status: ('A' for Active; 'I' for Inactive)
REMARK    1  A    between atoms: N_1  and  C_2
REMARK    2  A    between atoms: C_2  and  C_3
REMARK    3  A    between atoms: C_3  and  O_4
REMARK    4  A    between atoms: C_3  and  C_5
REMARK    5  A    between atoms: C_7  and  O_8
REMARK    6  A    between atoms: C_9  and  O_10
REMARK                            x       y       z     vdW  Elec       q    Type
REMARK                         _______ _______ _______ _____ _____    ______ ____
ROOT
ATOM      1  C   UNL     1       5.737   4.671  17.449  0.00  0.00    +0.000 A 
ATOM      2  C   UNL     1       4.637   4.056  16.826  0.00  0.00    +0.000 A 
ATOM      3  C   UNL     1       3.425   3.885  17.512  0.00  0.00    +0.000 A 
ATOM      4  C   UNL     1       3.305   4.333  18.839  0.00  0.00    +0.000 A 
ATOM      5  C   UNL     1       4.400   4.932  19.468  0.00  0.00    +0.000 A 
ATOM      6  C   UNL     1       5.609   5.101  18.787  0.00  0.00    +0.000 A 
ATOM      7  F   UNL     1       6.638   5.699  19.438  0.00  0.00    +0.000 F 
ENDROOT
BRANCH   3   8
ATOM      8  O   UNL     1       2.373   3.301  16.900  0.00  0.00    +0.000 OA
ATOM      9  H   UNL     1       1.488   3.294  17.290  0.00  0.00    +0.000 HD
ENDBRANCH   3   8
BRANCH   4  10
ATOM     10  O   UNL     1       2.149   4.203  19.521  0.00  0.00    +0.000 OA
ATOM     11  H   UNL     1       2.115   4.105  20.483  0.00  0.00    +0.000 HD
ENDBRANCH   4  10
BRANCH   1  12
ATOM     12  C   UNL     1       7.017   4.886  16.657  0.00  0.00    +0.000 C 
BRANCH  12  13
ATOM     13  O   UNL     1       8.053   4.115  17.214  0.00  0.00    +0.000 OA
ATOM     14  H   UNL     1       8.616   4.707  17.776  0.00  0.00    +0.000 HD
ENDBRANCH  12  13
BRANCH  12  15
ATOM     15  C   UNL     1       6.872   4.615  15.145  0.00  0.00    +0.000 C 
BRANCH  15  16
ATOM     16  N   UNL     1       7.712   5.522  14.367  0.00  0.00    +0.000 NA
ATOM     17  H   UNL     1       7.972   6.331  14.978  0.00  0.00    +0.000 HD
ATOM     18  H   UNL     1       7.152   5.903  13.570  0.00  0.00    +0.000 HD
ENDBRANCH  15  16
ENDBRANCH  12  15
ENDBRANCH   1  12
TORSDOF 6
ENDMDL
MODEL 4
REMARK VINA RESULT:      -5.6      2.575      4.992
REMARK  Name = 
REMARK  6 active torsions:
REMARK  status: ('A' for Active; 'I' for Inactive)
REMARK    1  A    between atoms: N_1  and  C_2
REMARK    2  A    between atoms: C_2  and  C_3
REMARK    3  A    between atoms: C_3  and  O_4
REMARK    4  A    between atoms: C_3  and  C_5
REMARK    5  A    between atoms: C_7  and  O_8
REMARK    6  A    between atoms: C_9  and  O_10
REMARK                            x       y       z     vdW  Elec       q    Type
REMARK                         _______ _______ _______ _____ _____    ______ ____
ROOT
ATOM      1  C   UNL     1       4.418   4.499  18.101  0.00  0.00    +0.000 A 
ATOM      2  C   UNL     1       4.275   3.123  18.354  0.00  0.00    +0.000 A 
ATOM      3  C   UNL     1       3.006   2.523  18.375  0.00  0.00    +0.000 A 
ATOM      4  C   UNL     1       1.862   3.305  18.140  0.00  0.00    +0.000 A 
ATOM      5  C   UNL     1       1.997   4.675  17.901  0.00  0.00    +0.000 A 
ATOM      6  C   UNL     1       3.259   5.274  17.883  0.00  0.00    +0.000 A 
ATOM      7  F   UNL     1       3.338   6.606  17.635  0.00  0.00    +0.000 F 
ENDROOT
BRANCH   3   8
ATOM      8  O   UNL     1       2.884   1.200  18.612  0.00  0.00    +0.000 OA
ATOM      9  H   UNL     1       3.187   0.793  19.436  0.00  0.00    +0.000 HD
ENDBRANCH   3   8
BRANCH   4  10
ATOM     10  O   UNL     1       0.629   2.757  18.132  0.00  0.00    +0.000 OA
ATOM     11  H   UNL     1      -0.179   3.283  18.207  0.00  0.00    +0.000 HD
ENDBRANCH   4  10
BRANCH   1  12
ATOM     12  C   UNL     1       5.812   5.103  18.035  0.00  0.00    +0.000 C 
BRANCH  12  13
ATOM     13  O   UNL     1       6.484   4.873  19.248  0.00  0.00    +0.000 OA
ATOM     14  H   UNL     1       5.814   4.854  19.979  0.00  0.00    +0.000 HD
ENDBRANCH  12  13
BRANCH  12  15
ATOM     15  C   UNL     1       6.649   4.619  16.832  0.00  0.00    +0.000 C 
BRANCH  15  16
ATOM     16  N   UNL     1       7.986   4.213  17.255  0.00  0.00    +0.000 NA
ATOM     17  H   UNL     1       7.965   4.038  18.287  0.00  0.00    +0.000 HD
ATOM     18  H   UNL     1       8.650   5.004  17.089  0.00  0.00    +0.000 HD
ENDBRANCH  15  16
ENDBRANCH  12  15
ENDBRANCH   1  12
TORSDOF 6
ENDMDL
MODEL 5
REMARK VINA RESULT:      -5.5      2.959      5.129
REMARK  Name = 
REMARK  6 active torsions:
REMARK  status: ('A' for Active; 'I' for Inactive)
REMARK    1  A    between atoms: N_1  and  C_2
REMARK    2  A    between atoms: C_2  and  C_3
REMARK    3  A    between atoms: C_3  and  O_4
REMARK    4  A    between atoms: C_3  and  C_5
REMARK    5  A    between atoms: C_7  and  O_8
REMARK    6  A    between atoms: C_9  and  O_10
REMARK                            x       y       z     vdW  Elec       q    Type
REMARK                         _______ _______ _______ _____ _____    ______ ____
ROOT
ATOM      1  C   UNL     1       3.868   4.509  17.429  0.00  0.00    +0.000 A 
ATOM      2  C   UNL     1       4.324   3.183  17.532  0.00  0.00    +0.000 A 
ATOM      3  C   UNL     1       3.471   2.162  17.980  0.00  0.00    +0.000 A 
ATOM      4  C   UNL     1       2.144   2.466  18.331  0.00  0.00    +0.000 A 
ATOM      5  C   UNL     1       1.690   3.784  18.244  0.00  0.00    +0.000 A 
ATOM      6  C   UNL     1       2.538   4.803  17.801  0.00  0.00    +0.000 A 
ATOM      7  F   UNL     1       2.046   6.065  17.723  0.00  0.00    +0.000 F 
ENDROOT
BRANCH   3   8
ATOM      8  O   UNL     1       3.918   0.892  18.067  0.00  0.00    +0.000 OA
ATOM      9  H   UNL     1       4.780   0.673  18.449  0.00  0.00    +0.000 HD
ENDBRANCH   3   8
BRANCH   4  10
ATOM     10  O   UNL     1       1.291   1.506  18.746  0.00  0.00    +0.000 OA
ATOM     11  H   UNL     1       1.582   0.719  19.227  0.00  0.00    +0.000 HD
ENDBRANCH   4  10
BRANCH   1  12
ATOM     12  C   UNL     1       4.805   5.579  16.891  0.00  0.00    +0.000 C 
BRANCH  12  13
ATOM     13  O   UNL     1       5.498   6.179  17.956  0.00  0.00    +0.000 OA
ATOM     14  H   UNL     1       5.521   5.541  18.714  0.00  0.00    +0.000 HD
ENDBRANCH  12  13
BRANCH  12  15
ATOM     15  C   UNL     1       5.779   5.071  15.806  0.00  0.00    +0.000 C 
BRANCH  15  16
ATOM     16  N   UNL     1       7.086   5.708  15.938  0.00  0.00    +0.000 NA
ATOM     17  H   UNL     1       7.539   5.348  16.809  0.00  0.00    +0.000 HD
ATOM     18  H   UNL     1       6.951   6.738  16.061  0.00  0.00    +0.000 HD
ENDBRANCH  15  16
ENDBRANCH  12  15
ENDBRANCH   1  12
TORSDOF 6
ENDMDL
MODEL 6
REMARK VINA RESULT:      -5.5      2.080      2.279
REMARK  Name = 
REMARK  6 active torsions:
REMARK  status: ('A' for Active; 'I' for Inactive)
REMARK    1  A    between atoms: N_1  and  C_2
REMARK    2  A    between atoms: C_2  and  C_3
REMARK    3  A    between atoms: C_3  and  O_4
REMARK    4  A    between atoms: C_3  and  C_5
REMARK    5  A    between atoms: C_7  and  O_8
REMARK    6  A    between atoms: C_9  and  O_10
REMARK                            x       y       z     vdW  Elec       q    Type
REMARK                         _______ _______ _______ _____ _____    ______ ____
ROOT
ATOM      1  C   UNL     1       4.319   4.676  17.674  0.00  0.00    +0.000 A 
ATOM      2  C   UNL     1       5.564   4.039  17.523  0.00  0.00    +0.000 A 
ATOM      3  C   UNL     1       6.702   4.766  17.140  0.00  0.00    +0.000 A 
ATOM      4  C   UNL     1       6.600   6.148  16.903  0.00  0.00    +0.000 A 
ATOM      5  C   UNL     1       5.363   6.783  17.037  0.00  0.00    +0.000 A 
ATOM      6  C   UNL     1       4.228   6.060  17.416  0.00  0.00    +0.000 A 
ATOM      7  F   UNL     1       3.052   6.726  17.544  0.00  0.00    +0.000 F 
ENDROOT
BRANCH   3   8
ATOM      8  O   UNL     1       7.893   4.144  17.007  0.00  0.00    +0.000 OA
ATOM      9  H   UNL     1       8.344   3.729  17.756  0.00  0.00    +0.000 HD
ENDBRANCH   3   8
BRANCH   4  10
ATOM     10  O   UNL     1       7.678   6.880  16.554  0.00  0.00    +0.000 OA
ATOM     11  H   UNL     1       7.662   7.526  15.834  0.00  0.00    +0.000 HD
ENDBRANCH   4  10
BRANCH   1  12
ATOM     12  C   UNL     1       3.120   3.866  18.140  0.00  0.00    +0.000 C 
BRANCH  12  13
ATOM     13  O   UNL     1       2.345   3.487  17.030  0.00  0.00    +0.000 OA
ATOM     14  H   UNL     1       1.853   2.658  17.261  0.00  0.00    +0.000 HD
ENDBRANCH  12  13
BRANCH  12  15
ATOM     15  C   UNL     1       3.488   2.644  19.008  0.00  0.00    +0.000 C 
BRANCH  15  16
ATOM     16  N   UNL     1       3.109   1.399  18.346  0.00  0.00    +0.000 NA
ATOM     17  H   UNL     1       2.087   1.444  18.123  0.00  0.00    +0.000 HD
ATOM     18  H   UNL     1       3.245   0.605  19.013  0.00  0.00    +0.000 HD
ENDBRANCH  15  16
ENDBRANCH  12  15
ENDBRANCH   1  12
TORSDOF 6
ENDMDL
MODEL 7
REMARK VINA RESULT:      -5.4      3.547      4.761
REMARK  Name = 
REMARK  6 active torsions:
REMARK  status: ('A' for Active; 'I' for Inactive)
REMARK    1  A    between atoms: N_1  and  C_2
REMARK    2  A    between atoms: C_2  and  C_3
REMARK    3  A    between atoms: C_3  and  O_4
REMARK    4  A    between atoms: C_3  and  C_5
REMARK    5  A    between atoms: C_7  and  O_8
REMARK    6  A    between atoms: C_9  and  O_10
REMARK                            x       y       z     vdW  Elec       q    Type
REMARK                         _______ _______ _______ _____ _____    ______ ____
ROOT
ATOM      1  C   UNL     1       3.024   5.437  19.491  0.00  0.00    +0.000 A 
ATOM      2  C   UNL     1       4.331   5.292  18.993  0.00  0.00    +0.000 A 
ATOM      3  C   UNL     1       5.014   4.072  19.110  0.00  0.00    +0.000 A 
ATOM      4  C   UNL     1       4.387   2.979  19.734  0.00  0.00    +0.000 A 
ATOM      5  C   UNL     1       3.094   3.122  20.243  0.00  0.00    +0.000 A 
ATOM      6  C   UNL     1       2.413   4.337  20.130  0.00  0.00    +0.000 A 
ATOM      7  F   UNL     1       1.155   4.422  20.630  0.00  0.00    +0.000 F 
ENDROOT
BRANCH   3   8
ATOM      8  O   UNL     1       6.265   3.943  18.621  0.00  0.00    +0.000 OA
ATOM      9  H   UNL     1       6.884   4.686  18.585  0.00  0.00    +0.000 HD
ENDBRANCH   3   8
BRANCH   4  10
ATOM     10  O   UNL     1       5.006   1.785  19.845  0.00  0.00    +0.000 OA
ATOM     11  H   UNL     1       4.641   0.969  19.478  0.00  0.00    +0.000 HD
ENDBRANCH   4  10
BRANCH   1  12
ATOM     12  C   UNL     1       2.297   6.759  19.300  0.00  0.00    +0.000 C 
BRANCH  12  13
ATOM     13  O   UNL     1       2.276   7.468  20.514  0.00  0.00    +0.000 OA
ATOM     14  H   UNL     1       1.880   6.884  21.210  0.00  0.00    +0.000 HD
ENDBRANCH  12  13
BRANCH  12  15
ATOM     15  C   UNL     1       2.864   7.627  18.156  0.00  0.00    +0.000 C 
BRANCH  15  16
ATOM     16  N   UNL     1       1.920   8.675  17.777  0.00  0.00    +0.000 NA
ATOM     17  H   UNL     1       1.048   8.549  18.341  0.00  0.00    +0.000 HD
ATOM     18  H   UNL     1       1.660   8.549  16.772  0.00  0.00    +0.000 HD
ENDBRANCH  15  16
ENDBRANCH  12  15
ENDBRANCH   1  12
TORSDOF 6
ENDMDL
MODEL 8
REMARK VINA RESULT:      -5.4      2.565      3.540
REMARK  Name = 
REMARK  6 active torsions:
REMARK  status: ('A' for Active; 'I' for Inactive)
REMARK    1  A    between atoms: N_1  and  C_2
REMARK    2  A    between atoms: C_2  and  C_3
REMARK    3  A    between atoms: C_3  and  O_4
REMARK    4  A    between atoms: C_3  and  C_5
REMARK    5  A    between atoms: C_7  and  O_8
REMARK    6  A    between atoms: C_9  and  O_10
REMARK                            x       y       z     vdW  Elec       q    Type
REMARK                         _______ _______ _______ _____ _____    ______ ____
ROOT
ATOM      1  C   UNL     1       3.139   4.299  18.280  0.00  0.00    +0.000 A 
ATOM      2  C   UNL     1       3.798   3.818  17.135  0.00  0.00    +0.000 A 
ATOM      3  C   UNL     1       5.199   3.843  17.047  0.00  0.00    +0.000 A 
ATOM      4  C   UNL     1       5.955   4.354  18.116  0.00  0.00    +0.000 A 
ATOM      5  C   UNL     1       5.305   4.847  19.250  0.00  0.00    +0.000 A 
ATOM      6  C   UNL     1       3.910   4.826  19.338  0.00  0.00    +0.000 A 
ATOM      7  F   UNL     1       3.327   5.304  20.466  0.00  0.00    +0.000 F 
ENDROOT
BRANCH   3   8
ATOM      8  O   UNL     1       5.819   3.371  15.945  0.00  0.00    +0.000 OA
ATOM      9  H   UNL     1       5.637   2.490  15.588  0.00  0.00    +0.000 HD
ENDBRANCH   3   8
BRANCH   4  10
ATOM     10  O   UNL     1       7.304   4.374  18.074  0.00  0.00    +0.000 OA
ATOM     11  H   UNL     1       7.839   4.923  18.664  0.00  0.00    +0.000 HD
ENDBRANCH   4  10
BRANCH   1  12
ATOM     12  C   UNL     1       1.623   4.209  18.360  0.00  0.00    +0.000 C 
BRANCH  12  13
ATOM     13  O   UNL     1       1.087   4.098  17.065  0.00  0.00    +0.000 OA
ATOM     14  H   UNL     1       0.432   4.830  16.934  0.00  0.00    +0.000 HD
ENDBRANCH  12  13
BRANCH  12  15
ATOM     15  C   UNL     1       1.110   3.077  19.276  0.00  0.00    +0.000 C 
BRANCH  15  16
ATOM     16  N   UNL     1       1.363   1.767  18.681  0.00  0.00    +0.000 NA
ATOM     17  H   UNL     1       1.508   1.078  19.455  0.00  0.00    +0.000 HD
ATOM     18  H   UNL     1       2.254   1.810  18.134  0.00  0.00    +0.000 HD
ENDBRANCH  15  16
ENDBRANCH  12  15
ENDBRANCH   1  12
TORSDOF 6
ENDMDL
MODEL 9
REMARK VINA RESULT:      -5.4      3.081      4.817
REMARK  Name = 
REMARK  6 active torsions:
REMARK  status: ('A' for Active; 'I' for Inactive)
REMARK    1  A    between atoms: N_1  and  C_2
REMARK    2  A    between atoms: C_2  and  C_3
REMARK    3  A    between atoms: C_3  and  O_4
REMARK    4  A    between atoms: C_3  and  C_5
REMARK    5  A    between atoms: C_7  and  O_8
REMARK    6  A    between atoms: C_9  and  O_10
REMARK                            x       y       z     vdW  Elec       q    Type
REMARK                         _______ _______ _______ _____ _____    ______ ____
ROOT
ATOM      1  C   UNL     1       4.575   4.791  16.902  0.00  0.00    +0.000 A 
ATOM      2  C   UNL     1       4.119   3.461  16.937  0.00  0.00    +0.000 A 
ATOM      3  C   UNL     1       2.943   3.122  17.625  0.00  0.00    +0.000 A 
ATOM      4  C   UNL     1       2.210   4.122  18.288  0.00  0.00    +0.000 A 
ATOM      5  C   UNL     1       2.667   5.442  18.268  0.00  0.00    +0.000 A 
ATOM      6  C   UNL     1       3.839   5.781  17.586  0.00  0.00    +0.000 A 
ATOM      7  F   UNL     1       4.234   7.080  17.586  0.00  0.00    +0.000 F 
ENDROOT
BRANCH   3   8
ATOM      8  O   UNL     1       2.511   1.844  17.644  0.00  0.00    +0.000 OA
ATOM      9  H   UNL     1       1.872   1.505  17.001  0.00  0.00    +0.000 HD
ENDBRANCH   3   8
BRANCH   4  10
ATOM     10  O   UNL     1       1.066   3.835  18.941  0.00  0.00    +0.000 OA
ATOM     11  H   UNL     1       0.786   4.303  19.740  0.00  0.00    +0.000 HD
ENDBRANCH   4  10
BRANCH   1  12
ATOM     12  C   UNL     1       5.825   5.128  16.103  0.00  0.00    +0.000 C 
BRANCH  12  13
ATOM     13  O   UNL     1       5.548   6.184  15.217  0.00  0.00    +0.000 OA
ATOM     14  H   UNL     1       5.401   5.803  14.314  0.00  0.00    +0.000 HD
ENDBRANCH  12  13
BRANCH  12  15
ATOM     15  C   UNL     1       7.061   5.439  16.974  0.00  0.00    +0.000 C 
BRANCH  15  16
ATOM     16  N   UNL     1       7.887   4.248  17.154  0.00  0.00    +0.000 NA
ATOM     17  H   UNL     1       7.713   3.604  16.349  0.00  0.00    +0.000 HD
ATOM     18  H   UNL     1       7.580   3.751  18.022  0.00  0.00    +0.000 HD
ENDBRANCH  15  16
ENDBRANCH  12  15
ENDBRANCH   1  12
TORSDOF 6
ENDMDL
