MODEL 1
REMARK VINA RESULT:      -8.3      0.000      0.000
REMARK  Name = 
REMARK  12 active torsions:
REMARK  status: ('A' for Active; 'I' for Inactive)
REMARK    1  A    between atoms: N_1  and  C_2
REMARK    2  A    between atoms: C_2  and  C_3
REMARK    3  A    between atoms: C_3  and  C_4
REMARK    4  A    between atoms: C_4  and  O_5
REMARK    5  A    between atoms: O_5  and  C_6
REMARK    6  A    between atoms: C_13  and  C_14
REMARK    7  A    between atoms: C_14  and  C_15
REMARK    8  A    between atoms: C_15  and  C_18
REMARK    9  A    between atoms: N_16  and  O_17
REMARK   10  A    between atoms: N_20  and  C_21
REMARK   11  A    between atoms: C_21  and  C_22
REMARK   12  A    between atoms: C_22  and  C_23
REMARK                            x       y       z     vdW  Elec       q    Type
REMARK                         _______ _______ _______ _____ _____    ______ ____
ROOT
ATOM      1  C   UNL     1       5.358   5.966  16.266  0.00  0.00    +0.000 C 
ENDROOT
BRANCH   1   9
ATOM      2  C   UNL     1       3.746   5.458  18.221  0.00  0.00    +0.000 A 
ATOM      3  C   UNL     1       2.745   5.934  19.124  0.00  0.00    +0.000 A 
ATOM      4 CL   UNL     1       2.030   5.004  20.440  0.00  0.00    +0.000 Cl
ATOM      5  C   UNL     1       2.268   7.244  19.009  0.00  0.00    +0.000 A 
ATOM      6  C   UNL     1       2.752   8.095  18.022  0.00  0.00    +0.000 A 
ATOM      7 CL   UNL     1       2.140   9.734  17.902  0.00  0.00    +0.000 Cl
ATOM      8  C   UNL     1       3.732   7.651  17.142  0.00  0.00    +0.000 A 
ATOM      9  C   UNL     1       4.241   6.344  17.225  0.00  0.00    +0.000 A 
BRANCH   2  10
ATOM     10  O   UNL     1       4.265   4.196  18.255  0.00  0.00    +0.000 OA
BRANCH  10  11
ATOM     11  C   UNL     1       4.804   3.509  19.324  0.00  0.00    +0.000 C 
BRANCH  11  12
ATOM     12  C   UNL     1       4.121   2.153  19.474  0.00  0.00    +0.000 C 
BRANCH  12  13
ATOM     13  C   UNL     1       3.438   1.723  18.175  0.00  0.00    +0.000 C 
BRANCH  13  14
ATOM     14  N   UNL     1       1.994   1.901  18.282  0.00  0.00    +0.000 NA
ATOM     15  H   UNL     1       1.715   2.684  17.649  0.00  0.00    +0.000 HD
ATOM     16  H   UNL     1       1.753   2.184  19.260  0.00  0.00    +0.000 HD
ENDBRANCH  13  14
ENDBRANCH  12  13
ENDBRANCH  11  12
ENDBRANCH  10  11
ENDBRANCH   2  10
ENDBRANCH   1   9
BRANCH   1  17
ATOM     17  C   UNL     1       6.647   5.591  16.977  0.00  0.00    +0.000 C 
ATOM     18  N   UNL     1       7.183   4.456  16.654  0.00  0.00    +0.000 NA
BRANCH  17  19
ATOM     19  C   UNL     1       7.295   6.516  17.972  0.00  0.00    +0.000 C 
ATOM     20  O   UNL     1       7.481   6.130  19.118  0.00  0.00    +0.000 OA
ATOM     21  N   UNL     1       7.699   7.768  17.615  0.00  0.00    +0.000 N 
ATOM     22  H   UNL     1       7.518   8.114  16.665  0.00  0.00    +0.000 HD
BRANCH  21  23
ATOM     23  C   UNL     1       8.378   8.672  18.525  0.00  0.00    +0.000 C 
BRANCH  23  24
ATOM     24  C   UNL     1       8.499  10.090  17.934  0.00  0.00    +0.000 C 
BRANCH  24  25
ATOM     25  C   UNL     1       9.607  10.862  18.605  0.00  0.00    +0.000 A 
ATOM     26  C   UNL     1       9.606  11.050  20.001  0.00  0.00    +0.000 A 
ATOM     27  C   UNL     1      10.631  11.777  20.612  0.00  0.00    +0.000 A 
ATOM     28  C   UNL     1      11.666  12.316  19.846  0.00  0.00    +0.000 A 
ATOM     29  C   UNL     1      11.681  12.127  18.462  0.00  0.00    +0.000 A 
ATOM     30  C   UNL     1      10.660  11.402  17.843  0.00  0.00    +0.000 A 
ENDBRANCH  24  25
ENDBRANCH  23  24
ENDBRANCH  21  23
ENDBRANCH  17  19
BRANCH  18  31
ATOM     31  O   UNL     1       8.302   4.011  17.189  0.00  0.00    +0.000 OA
ATOM     32  H   UNL     1       8.289   3.248  17.781  0.00  0.00    +0.000 HD
ENDBRANCH  18  31
ENDBRANCH   1  17
TORSDOF 12
ENDMDL
MODEL 2
REMARK VINA RESULT:      -8.2      0.462      1.025
REMARK  Name = 
REMARK  12 active torsions:
REMARK  status: ('A' for Active; 'I' for Inactive)
REMARK    1  A    between atoms: N_1  and  C_2
REMARK    2  A    between atoms: C_2  and  C_3
REMARK    3  A    between atoms: C_3  and  C_4
REMARK    4  A    between atoms: C_4  and  O_5
REMARK    5  A    between atoms: O_5  and  C_6
REMARK    6  A    between atoms: C_13  and  C_14
REMARK    7  A    between atoms: C_14  and  C_15
REMARK    8  A    between atoms: C_15  and  C_18
REMARK    9  A    between atoms: N_16  and  O_17
REMARK   10  A    between atoms: N_20  and  C_21
REMARK   11  A    between atoms: C_21  and  C_22
REMARK   12  A    between atoms: C_22  and  C_23
REMARK                            x       y       z     vdW  Elec       q    Type
REMARK                         _______ _______ _______ _____ _____    ______ ____
ROOT
ATOM      1  C   UNL     1       5.122   5.918  16.299  0.00  0.00    +0.000 C 
ENDROOT
BRANCH   1   9
ATOM      2  C   UNL     1       3.626   5.522  18.369  0.00  0.00    +0.000 A 
ATOM      3  C   UNL     1       2.700   6.057  19.318  0.00  0.00    +0.000 A 
ATOM      4 CL   UNL     1       2.046   5.191  20.707  0.00  0.00    +0.000 Cl
ATOM      5  C   UNL     1       2.256   7.377  19.191  0.00  0.00    +0.000 A 
ATOM      6  C   UNL     1       2.700   8.182  18.148  0.00  0.00    +0.000 A 
ATOM      7 CL   UNL     1       2.129   9.835  18.014  0.00  0.00    +0.000 Cl
ATOM      8  C   UNL     1       3.607   7.680  17.222  0.00  0.00    +0.000 A 
ATOM      9  C   UNL     1       4.081   6.361  17.315  0.00  0.00    +0.000 A 
BRANCH   2  10
ATOM     10  O   UNL     1       4.108   4.246  18.410  0.00  0.00    +0.000 OA
BRANCH  10  11
ATOM     11  C   UNL     1       4.876   3.641  19.385  0.00  0.00    +0.000 C 
BRANCH  11  12
ATOM     12  C   UNL     1       4.124   2.458  19.986  0.00  0.00    +0.000 C 
BRANCH  12  13
ATOM     13  C   UNL     1       3.101   1.886  19.003  0.00  0.00    +0.000 C 
BRANCH  13  14
ATOM     14  N   UNL     1       3.780   1.190  17.916  0.00  0.00    +0.000 NA
ATOM     15  H   UNL     1       4.367   0.431  18.332  0.00  0.00    +0.000 HD
ATOM     16  H   UNL     1       4.424   1.856  17.430  0.00  0.00    +0.000 HD
ENDBRANCH  13  14
ENDBRANCH  12  13
ENDBRANCH  11  12
ENDBRANCH  10  11
ENDBRANCH   2  10
ENDBRANCH   1   9
BRANCH   1  17
ATOM     17  C   UNL     1       6.453   5.557  16.934  0.00  0.00    +0.000 C 
ATOM     18  N   UNL     1       6.995   4.441  16.560  0.00  0.00    +0.000 NA
BRANCH  17  19
ATOM     19  C   UNL     1       7.132   6.477  17.914  0.00  0.00    +0.000 C 
ATOM     20  O   UNL     1       7.228   6.139  19.086  0.00  0.00    +0.000 OA
ATOM     21  N   UNL     1       7.663   7.667  17.516  0.00  0.00    +0.000 N 
ATOM     22  H   UNL     1       7.560   7.975  16.541  0.00  0.00    +0.000 HD
BRANCH  21  23
ATOM     23  C   UNL     1       8.376   8.557  18.413  0.00  0.00    +0.000 C 
BRANCH  23  24
ATOM     24  C   UNL     1       8.370  10.010  17.897  0.00  0.00    +0.000 C 
BRANCH  24  25
ATOM     25  C   UNL     1       9.480  10.812  18.529  0.00  0.00    +0.000 A 
ATOM     26  C   UNL     1      10.477  11.407  17.732  0.00  0.00    +0.000 A 
ATOM     27  C   UNL     1      11.509  12.137  18.328  0.00  0.00    +0.000 A 
ATOM     28  C   UNL     1      11.555  12.288  19.715  0.00  0.00    +0.000 A 
ATOM     29  C   UNL     1      10.566  11.709  20.514  0.00  0.00    +0.000 A 
ATOM     30  C   UNL     1       9.532  10.977  19.927  0.00  0.00    +0.000 A 
ENDBRANCH  24  25
ENDBRANCH  23  24
ENDBRANCH  21  23
ENDBRANCH  17  19
BRANCH  18  31
ATOM     31  O   UNL     1       8.150   4.010  17.027  0.00  0.00    +0.000 OA
ATOM     32  H   UNL     1       8.439   4.259  17.915  0.00  0.00    +0.000 HD
ENDBRANCH  18  31
ENDBRANCH   1  17
TORSDOF 12
ENDMDL
MODEL 3
REMARK VINA RESULT:      -7.9      1.376      1.691
REMARK  Name = 
REMARK  12 active torsions:
REMARK  status: ('A' for Active; 'I' for Inactive)
REMARK    1  A    between atoms: N_1  and  C_2
REMARK    2  A    between atoms: C_2  and  C_3
REMARK    3  A    between atoms: C_3  and  C_4
REMARK    4  A    between atoms: C_4  and  O_5
REMARK    5  A    between atoms: O_5  and  C_6
REMARK    6  A    between atoms: C_13  and  C_14
REMARK    7  A    between atoms: C_14  and  C_15
REMARK    8  A    between atoms: C_15  and  C_18
REMARK    9  A    between atoms: N_16  and  O_17
REMARK   10  A    between atoms: N_20  and  C_21
REMARK   11  A    between atoms: C_21  and  C_22
REMARK   12  A    between atoms: C_22  and  C_23
REMARK                            x       y       z     vdW  Elec       q    Type
REMARK                         _______ _______ _______ _____ _____    ______ ____
ROOT
ATOM      1  C   UNL     1       5.426   5.077  17.905  0.00  0.00    +0.000 C 
ENDROOT
BRANCH   1   9
ATOM      2  C   UNL     1       3.735   4.311  19.703  0.00  0.00    +0.000 A 
ATOM      3  C   UNL     1       2.618   4.634  20.535  0.00  0.00    +0.000 A 
ATOM      4 CL   UNL     1       1.915   3.576  21.757  0.00  0.00    +0.000 Cl
ATOM      5  C   UNL     1       2.004   5.886  20.423  0.00  0.00    +0.000 A 
ATOM      6  C   UNL     1       2.463   6.826  19.509  0.00  0.00    +0.000 A 
ATOM      7 CL   UNL     1       1.677   8.390  19.391  0.00  0.00    +0.000 Cl
ATOM      8  C   UNL     1       3.553   6.532  18.698  0.00  0.00    +0.000 A 
ATOM      9  C   UNL     1       4.201   5.288  18.780  0.00  0.00    +0.000 A 
BRANCH   2  10
ATOM     10  O   UNL     1       4.391   3.115  19.738  0.00  0.00    +0.000 OA
BRANCH  10  11
ATOM     11  C   UNL     1       3.959   1.876  19.307  0.00  0.00    +0.000 C 
BRANCH  11  12
ATOM     12  C   UNL     1       3.535   1.950  17.843  0.00  0.00    +0.000 C 
BRANCH  12  13
ATOM     13  C   UNL     1       2.046   2.275  17.707  0.00  0.00    +0.000 C 
BRANCH  13  14
ATOM     14  N   UNL     1       1.297   1.685  18.810  0.00  0.00    +0.000 NA
ATOM     15  H   UNL     1       1.824   0.847  19.150  0.00  0.00    +0.000 HD
ATOM     16  H   UNL     1       0.369   1.353  18.459  0.00  0.00    +0.000 HD
ENDBRANCH  13  14
ENDBRANCH  12  13
ENDBRANCH  11  12
ENDBRANCH  10  11
ENDBRANCH   2  10
ENDBRANCH   1   9
BRANCH   1  17
ATOM     17  C   UNL     1       6.683   5.699  18.486  0.00  0.00    +0.000 C 
ATOM     18  N   UNL     1       7.066   5.267  19.647  0.00  0.00    +0.000 NA
BRANCH  17  19
ATOM     19  C   UNL     1       7.474   6.732  17.728  0.00  0.00    +0.000 C 
ATOM     20  O   UNL     1       7.684   6.569  16.533  0.00  0.00    +0.000 OA
ATOM     21  N   UNL     1       7.939   7.856  18.340  0.00  0.00    +0.000 N 
ATOM     22  H   UNL     1       7.796   7.988  19.349  0.00  0.00    +0.000 HD
BRANCH  21  23
ATOM     23  C   UNL     1       8.655   8.905  17.637  0.00  0.00    +0.000 C 
BRANCH  23  24
ATOM     24  C   UNL     1       8.308  10.301  18.191  0.00  0.00    +0.000 C 
BRANCH  24  25
ATOM     25  C   UNL     1       9.532  10.975  18.759  0.00  0.00    +0.000 A 
ATOM     26  C   UNL     1       9.665  11.166  20.148  0.00  0.00    +0.000 A 
ATOM     27  C   UNL     1      10.798  11.802  20.663  0.00  0.00    +0.000 A 
ATOM     28  C   UNL     1      11.806  12.248  19.807  0.00  0.00    +0.000 A 
ATOM     29  C   UNL     1      11.687  12.056  18.429  0.00  0.00    +0.000 A 
ATOM     30  C   UNL     1      10.559  11.421  17.905  0.00  0.00    +0.000 A 
ENDBRANCH  24  25
ENDBRANCH  23  24
ENDBRANCH  21  23
ENDBRANCH  17  19
BRANCH  18  31
ATOM     31  O   UNL     1       8.140   5.716  20.263  0.00  0.00    +0.000 OA
ATOM     32  H   UNL     1       8.500   5.241  21.024  0.00  0.00    +0.000 HD
ENDBRANCH  18  31
ENDBRANCH   1  17
TORSDOF 12
ENDMDL
MODEL 4
REMARK VINA RESULT:      -7.6      2.208      3.784
REMARK  Name = 
REMARK  12 active torsions:
REMARK  status: ('A' for Active; 'I' for Inactive)
REMARK    1  A    between atoms: N_1  and  C_2
REMARK    2  A    between atoms: C_2  and  C_3
REMARK    3  A    between atoms: C_3  and  C_4
REMARK    4  A    between atoms: C_4  and  O_5
REMARK    5  A    between atoms: O_5  and  C_6
REMARK    6  A    between atoms: C_13  and  C_14
REMARK    7  A    between atoms: C_14  and  C_15
REMARK    8  A    between atoms: C_15  and  C_18
REMARK    9  A    between atoms: N_16  and  O_17
REMARK   10  A    between atoms: N_20  and  C_21
REMARK   11  A    between atoms: C_21  and  C_22
REMARK   12  A    between atoms: C_22  and  C_23
REMARK                            x       y       z     vdW  Elec       q    Type
REMARK                         _______ _______ _______ _____ _____    ______ ____
ROOT
ATOM      1  C   UNL     1       4.568   6.121  16.917  0.00  0.00    +0.000 C 
ENDROOT
BRANCH   1   9
ATOM      2  C   UNL     1       2.999   6.876  18.828  0.00  0.00    +0.000 A 
ATOM      3  C   UNL     1       2.261   6.528  20.001  0.00  0.00    +0.000 A 
ATOM      4 CL   UNL     1       1.187   7.608  20.890  0.00  0.00    +0.000 Cl
ATOM      5  C   UNL     1       2.348   5.233  20.521  0.00  0.00    +0.000 A 
ATOM      6  C   UNL     1       3.148   4.273  19.914  0.00  0.00    +0.000 A 
ATOM      7 CL   UNL     1       3.236   2.654  20.585  0.00  0.00    +0.000 Cl
ATOM      8  C   UNL     1       3.866   4.592  18.767  0.00  0.00    +0.000 A 
ATOM      9  C   UNL     1       3.804   5.880  18.210  0.00  0.00    +0.000 A 
BRANCH   2  10
ATOM     10  O   UNL     1       2.980   8.115  18.254  0.00  0.00    +0.000 OA
BRANCH  10  11
ATOM     11  C   UNL     1       1.926   8.778  17.660  0.00  0.00    +0.000 C 
BRANCH  11  12
ATOM     12  C   UNL     1       1.831  10.202  18.200  0.00  0.00    +0.000 C 
BRANCH  12  13
ATOM     13  C   UNL     1       0.408  10.537  18.651  0.00  0.00    +0.000 C 
BRANCH  13  14
ATOM     14  N   UNL     1      -0.560  10.025  17.687  0.00  0.00    +0.000 NA
ATOM     15  H   UNL     1      -0.035   9.527  16.932  0.00  0.00    +0.000 HD
ATOM     16  H   UNL     1      -1.063  10.829  17.244  0.00  0.00    +0.000 HD
ENDBRANCH  13  14
ENDBRANCH  12  13
ENDBRANCH  11  12
ENDBRANCH  10  11
ENDBRANCH   2  10
ENDBRANCH   1   9
BRANCH   1  17
ATOM     17  C   UNL     1       6.024   5.701  17.003  0.00  0.00    +0.000 C 
ATOM     18  N   UNL     1       6.384   4.689  16.278  0.00  0.00    +0.000 NA
BRANCH  17  19
ATOM     19  C   UNL     1       7.012   6.455  17.853  0.00  0.00    +0.000 C 
ATOM     20  O   UNL     1       7.421   5.950  18.890  0.00  0.00    +0.000 OA
ATOM     21  N   UNL     1       7.479   7.679  17.477  0.00  0.00    +0.000 N 
ATOM     22  H   UNL     1       7.119   8.127  16.626  0.00  0.00    +0.000 HD
BRANCH  21  23
ATOM     23  C   UNL     1       8.473   8.416  18.235  0.00  0.00    +0.000 C 
BRANCH  23  24
ATOM     24  C   UNL     1       8.201   9.933  18.207  0.00  0.00    +0.000 C 
BRANCH  24  25
ATOM     25  C   UNL     1       9.382  10.703  18.744  0.00  0.00    +0.000 A 
ATOM     26  C   UNL     1       9.435  11.078  20.101  0.00  0.00    +0.000 A 
ATOM     27  C   UNL     1      10.527  11.801  20.587  0.00  0.00    +0.000 A 
ATOM     28  C   UNL     1      11.575  12.152  19.734  0.00  0.00    +0.000 A 
ATOM     29  C   UNL     1      11.536  11.777  18.390  0.00  0.00    +0.000 A 
ATOM     30  C   UNL     1      10.448  11.055  17.895  0.00  0.00    +0.000 A 
ENDBRANCH  24  25
ENDBRANCH  23  24
ENDBRANCH  21  23
ENDBRANCH  17  19
BRANCH  18  31
ATOM     31  O   UNL     1       7.617   4.223  16.253  0.00  0.00    +0.000 OA
ATOM     32  H   UNL     1       7.931   3.640  16.957  0.00  0.00    +0.000 HD
ENDBRANCH  18  31
ENDBRANCH   1  17
TORSDOF 12
ENDMDL
MODEL 5
REMARK VINA RESULT:      -7.5      2.239      3.871
REMARK  Name = 
REMARK  12 active torsions:
REMARK  status: ('A' for Active; 'I' for Inactive)
REMARK    1  A    between atoms: N_1  and  C_2
REMARK    2  A    between atoms: C_2  and  C_3
REMARK    3  A    between atoms: C_3  and  C_4
REMARK    4  A    between atoms: C_4  and  O_5
REMARK    5  A    between atoms: O_5  and  C_6
REMARK    6  A    between atoms: C_13  and  C_14
REMARK    7  A    between atoms: C_14  and  C_15
REMARK    8  A    between atoms: C_15  and  C_18
REMARK    9  A    between atoms: N_16  and  O_17
REMARK   10  A    between atoms: N_20  and  C_21
REMARK   11  A    between atoms: C_21  and  C_22
REMARK   12  A    between atoms: C_22  and  C_23
REMARK                            x       y       z     vdW  Elec       q    Type
REMARK                         _______ _______ _______ _____ _____    ______ ____
ROOT
ATOM      1  C   UNL     1       4.661   6.617  16.863  0.00  0.00    +0.000 C 
ENDROOT
BRANCH   1   9
ATOM      2  C   UNL     1       3.030   6.767  18.862  0.00  0.00    +0.000 A 
ATOM      3  C   UNL     1       2.390   6.110  19.958  0.00  0.00    +0.000 A 
ATOM      4 CL   UNL     1       1.166   6.828  21.005  0.00  0.00    +0.000 Cl
ATOM      5  C   UNL     1       2.712   4.784  20.260  0.00  0.00    +0.000 A 
ATOM      6  C   UNL     1       3.652   4.089  19.509  0.00  0.00    +0.000 A 
ATOM      7 CL   UNL     1       4.035   2.424  19.907  0.00  0.00    +0.000 Cl
ATOM      8  C   UNL     1       4.277   4.710  18.434  0.00  0.00    +0.000 A 
ATOM      9  C   UNL     1       3.981   6.040  18.094  0.00  0.00    +0.000 A 
BRANCH   2  10
ATOM     10  O   UNL     1       2.784   8.060  18.498  0.00  0.00    +0.000 OA
BRANCH  10  11
ATOM     11  C   UNL     1       1.746   8.564  17.740  0.00  0.00    +0.000 C 
BRANCH  11  12
ATOM     12  C   UNL     1       1.464  10.011  18.135  0.00  0.00    +0.000 C 
BRANCH  12  13
ATOM     13  C   UNL     1       1.004  10.116  19.590  0.00  0.00    +0.000 C 
BRANCH  13  14
ATOM     14  N   UNL     1      -0.453  10.148  19.657  0.00  0.00    +0.000 NA
ATOM     15  H   UNL     1      -0.765  11.133  19.498  0.00  0.00    +0.000 HD
ATOM     16  H   UNL     1      -0.760   9.870  20.618  0.00  0.00    +0.000 HD
ENDBRANCH  13  14
ENDBRANCH  12  13
ENDBRANCH  11  12
ENDBRANCH  10  11
ENDBRANCH   2  10
ENDBRANCH   1   9
BRANCH   1  17
ATOM     17  C   UNL     1       6.124   6.222  16.755  0.00  0.00    +0.000 C 
ATOM     18  N   UNL     1       6.418   5.299  15.895  0.00  0.00    +0.000 NA
BRANCH  17  19
ATOM     19  C   UNL     1       7.186   6.906  17.574  0.00  0.00    +0.000 C 
ATOM     20  O   UNL     1       7.857   6.247  18.358  0.00  0.00    +0.000 OA
ATOM     21  N   UNL     1       7.431   8.240  17.443  0.00  0.00    +0.000 N 
ATOM     22  H   UNL     1       6.853   8.809  16.812  0.00  0.00    +0.000 HD
BRANCH  21  23
ATOM     23  C   UNL     1       8.482   8.929  18.169  0.00  0.00    +0.000 C 
BRANCH  23  24
ATOM     24  C   UNL     1       8.520  10.431  17.825  0.00  0.00    +0.000 C 
BRANCH  24  25
ATOM     25  C   UNL     1       9.673  11.114  18.518  0.00  0.00    +0.000 A 
ATOM     26  C   UNL     1      10.692  11.735  17.769  0.00  0.00    +0.000 A 
ATOM     27  C   UNL     1      11.763  12.354  18.420  0.00  0.00    +0.000 A 
ATOM     28  C   UNL     1      11.828  12.366  19.815  0.00  0.00    +0.000 A 
ATOM     29  C   UNL     1      10.818  11.760  20.566  0.00  0.00    +0.000 A 
ATOM     30  C   UNL     1       9.745  11.139  19.924  0.00  0.00    +0.000 A 
ENDBRANCH  24  25
ENDBRANCH  23  24
ENDBRANCH  21  23
ENDBRANCH  17  19
BRANCH  18  31
ATOM     31  O   UNL     1       7.646   4.865  15.696  0.00  0.00    +0.000 OA
ATOM     32  H   UNL     1       8.376   5.208  16.229  0.00  0.00    +0.000 HD
ENDBRANCH  18  31
ENDBRANCH   1  17
TORSDOF 12
ENDMDL
MODEL 6
REMARK VINA RESULT:      -7.5      2.052      4.000
REMARK  Name = 
REMARK  12 active torsions:
REMARK  status: ('A' for Active; 'I' for Inactive)
REMARK    1  A    between atoms: N_1  and  C_2
REMARK    2  A    between atoms: C_2  and  C_3
REMARK    3  A    between atoms: C_3  and  C_4
REMARK    4  A    between atoms: C_4  and  O_5
REMARK    5  A    between atoms: O_5  and  C_6
REMARK    6  A    between atoms: C_13  and  C_14
REMARK    7  A    between atoms: C_14  and  C_15
REMARK    8  A    between atoms: C_15  and  C_18
REMARK    9  A    between atoms: N_16  and  O_17
REMARK   10  A    between atoms: N_20  and  C_21
REMARK   11  A    between atoms: C_21  and  C_22
REMARK   12  A    between atoms: C_22  and  C_23
REMARK                            x       y       z     vdW  Elec       q    Type
REMARK                         _______ _______ _______ _____ _____    ______ ____
ROOT
ATOM      1  C   UNL     1       4.610   6.492  16.317  0.00  0.00    +0.000 C 
ENDROOT
BRANCH   1   9
ATOM      2  C   UNL     1       3.136   6.331  18.434  0.00  0.00    +0.000 A 
ATOM      3  C   UNL     1       2.498   5.503  19.409  0.00  0.00    +0.000 A 
ATOM      4 CL   UNL     1       1.430   6.071  20.691  0.00  0.00    +0.000 Cl
ATOM      5  C   UNL     1       2.690   4.118  19.381  0.00  0.00    +0.000 A 
ATOM      6  C   UNL     1       3.498   3.530  18.415  0.00  0.00    +0.000 A 
ATOM      7 CL   UNL     1       3.720   1.789  18.400  0.00  0.00    +0.000 Cl
ATOM      8  C   UNL     1       4.119   4.319  17.454  0.00  0.00    +0.000 A 
ATOM      9  C   UNL     1       3.950   5.714  17.444  0.00  0.00    +0.000 A 
BRANCH   2  10
ATOM     10  O   UNL     1       3.011   7.689  18.388  0.00  0.00    +0.000 OA
BRANCH  10  11
ATOM     11  C   UNL     1       2.029   8.488  18.940  0.00  0.00    +0.000 C 
BRANCH  11  12
ATOM     12  C   UNL     1       1.535   9.499  17.908  0.00  0.00    +0.000 C 
BRANCH  12  13
ATOM     13  C   UNL     1       1.333  10.882  18.531  0.00  0.00    +0.000 C 
BRANCH  13  14
ATOM     14  N   UNL     1       2.338  11.813  18.029  0.00  0.00    +0.000 NA
ATOM     15  H   UNL     1       3.069  11.261  17.523  0.00  0.00    +0.000 HD
ATOM     16  H   UNL     1       2.803  12.287  18.838  0.00  0.00    +0.000 HD
ENDBRANCH  13  14
ENDBRANCH  12  13
ENDBRANCH  11  12
ENDBRANCH  10  11
ENDBRANCH   2  10
ENDBRANCH   1   9
BRANCH   1  17
ATOM     17  C   UNL     1       6.103   6.239  16.218  0.00  0.00    +0.000 C 
ATOM     18  N   UNL     1       6.507   5.501  15.232  0.00  0.00    +0.000 NA
BRANCH  17  19
ATOM     19  C   UNL     1       7.072   6.855  17.192  0.00  0.00    +0.000 C 
ATOM     20  O   UNL     1       7.719   6.129  17.936  0.00  0.00    +0.000 OA
ATOM     21  N   UNL     1       7.260   8.203  17.246  0.00  0.00    +0.000 N 
ATOM     22  H   UNL     1       6.700   8.824  16.649  0.00  0.00    +0.000 HD
BRANCH  21  23
ATOM     23  C   UNL     1       8.224   8.836  18.128  0.00  0.00    +0.000 C 
BRANCH  23  24
ATOM     24  C   UNL     1       8.543  10.276  17.682  0.00  0.00    +0.000 C 
BRANCH  24  25
ATOM     25  C   UNL     1       9.577  10.903  18.584  0.00  0.00    +0.000 A 
ATOM     26  C   UNL     1      10.777  11.413  18.051  0.00  0.00    +0.000 A 
ATOM     27  C   UNL     1      11.734  11.981  18.897  0.00  0.00    +0.000 A 
ATOM     28  C   UNL     1      11.506  12.052  20.272  0.00  0.00    +0.000 A 
ATOM     29  C   UNL     1      10.315  11.557  20.808  0.00  0.00    +0.000 A 
ATOM     30  C   UNL     1       9.353  10.988  19.971  0.00  0.00    +0.000 A 
ENDBRANCH  24  25
ENDBRANCH  23  24
ENDBRANCH  21  23
ENDBRANCH  17  19
BRANCH  18  31
ATOM     31  O   UNL     1       7.775   5.207  15.025  0.00  0.00    +0.000 OA
ATOM     32  H   UNL     1       8.115   4.333  15.255  0.00  0.00    +0.000 HD
ENDBRANCH  18  31
ENDBRANCH   1  17
TORSDOF 12
ENDMDL
MODEL 7
REMARK VINA RESULT:      -7.4      1.097      1.512
REMARK  Name = 
REMARK  12 active torsions:
REMARK  status: ('A' for Active; 'I' for Inactive)
REMARK    1  A    between atoms: N_1  and  C_2
REMARK    2  A    between atoms: C_2  and  C_3
REMARK    3  A    between atoms: C_3  and  C_4
REMARK    4  A    between atoms: C_4  and  O_5
REMARK    5  A    between atoms: O_5  and  C_6
REMARK    6  A    between atoms: C_13  and  C_14
REMARK    7  A    between atoms: C_14  and  C_15
REMARK    8  A    between atoms: C_15  and  C_18
REMARK    9  A    between atoms: N_16  and  O_17
REMARK   10  A    between atoms: N_20  and  C_21
REMARK   11  A    between atoms: C_21  and  C_22
REMARK   12  A    between atoms: C_22  and  C_23
REMARK                            x       y       z     vdW  Elec       q    Type
REMARK                         _______ _______ _______ _____ _____    ______ ____
ROOT
ATOM      1  C   UNL     1       5.136   5.349  17.194  0.00  0.00    +0.000 C 
ENDROOT
BRANCH   1   9
ATOM      2  C   UNL     1       3.326   5.411  19.038  0.00  0.00    +0.000 A 
ATOM      3  C   UNL     1       2.319   6.157  19.726  0.00  0.00    +0.000 A 
ATOM      4 CL   UNL     1       1.400   5.590  21.120  0.00  0.00    +0.000 Cl
ATOM      5  C   UNL     1       2.008   7.456  19.311  0.00  0.00    +0.000 A 
ATOM      6  C   UNL     1       2.664   8.036  18.232  0.00  0.00    +0.000 A 
ATOM      7 CL   UNL     1       2.257   9.669  17.735  0.00  0.00    +0.000 Cl
ATOM      8  C   UNL     1       3.652   7.328  17.558  0.00  0.00    +0.000 A 
ATOM      9  C   UNL     1       3.998   6.022  17.944  0.00  0.00    +0.000 A 
BRANCH   2  10
ATOM     10  O   UNL     1       3.691   4.138  19.368  0.00  0.00    +0.000 OA
BRANCH  10  11
ATOM     11  C   UNL     1       3.038   3.233  20.181  0.00  0.00    +0.000 C 
BRANCH  11  12
ATOM     12  C   UNL     1       2.198   2.280  19.335  0.00  0.00    +0.000 C 
BRANCH  12  13
ATOM     13  C   UNL     1       2.818   2.063  17.953  0.00  0.00    +0.000 C 
BRANCH  13  14
ATOM     14  N   UNL     1       2.242   2.997  16.991  0.00  0.00    +0.000 NA
ATOM     15  H   UNL     1       2.109   3.917  17.470  0.00  0.00    +0.000 HD
ATOM     16  H   UNL     1       1.299   2.653  16.699  0.00  0.00    +0.000 HD
ENDBRANCH  13  14
ENDBRANCH  12  13
ENDBRANCH  11  12
ENDBRANCH  10  11
ENDBRANCH   2  10
ENDBRANCH   1   9
BRANCH   1  17
ATOM     17  C   UNL     1       6.496   5.625  17.809  0.00  0.00    +0.000 C 
ATOM     18  N   UNL     1       6.867   4.849  18.779  0.00  0.00    +0.000 NA
BRANCH  17  19
ATOM     19  C   UNL     1       7.390   6.717  17.285  0.00  0.00    +0.000 C 
ATOM     20  O   UNL     1       7.831   6.637  16.146  0.00  0.00    +0.000 OA
ATOM     21  N   UNL     1       7.698   7.805  18.045  0.00  0.00    +0.000 N 
ATOM     22  H   UNL     1       7.359   7.868  19.013  0.00  0.00    +0.000 HD
BRANCH  21  23
ATOM     23  C   UNL     1       8.507   8.908  17.561  0.00  0.00    +0.000 C 
BRANCH  23  24
ATOM     24  C   UNL     1       8.201  10.215  18.319  0.00  0.00    +0.000 C 
BRANCH  24  25
ATOM     25  C   UNL     1       9.473  10.885  18.775  0.00  0.00    +0.000 A 
ATOM     26  C   UNL     1      10.487  11.200  17.850  0.00  0.00    +0.000 A 
ATOM     27  C   UNL     1      11.668  11.810  18.283  0.00  0.00    +0.000 A 
ATOM     28  C   UNL     1      11.848  12.116  19.633  0.00  0.00    +0.000 A 
ATOM     29  C   UNL     1      10.844  11.816  20.557  0.00  0.00    +0.000 A 
ATOM     30  C   UNL     1       9.662  11.206  20.133  0.00  0.00    +0.000 A 
ENDBRANCH  24  25
ENDBRANCH  23  24
ENDBRANCH  21  23
ENDBRANCH  17  19
BRANCH  18  31
ATOM     31  O   UNL     1       8.024   4.974  19.398  0.00  0.00    +0.000 OA
ATOM     32  H   UNL     1       8.079   5.457  20.233  0.00  0.00    +0.000 HD
ENDBRANCH  18  31
ENDBRANCH   1  17
TORSDOF 12
ENDMDL
MODEL 8
REMARK VINA RESULT:      -7.3      1.464      1.672
REMARK  Name = 
REMARK  12 active torsions:
REMARK  status: ('A' for Active; 'I' for Inactive)
REMARK    1  A    between atoms: N_1  and  C_2
REMARK    2  A    between atoms: C_2  and  C_3
REMARK    3  A    between atoms: C_3  and  C_4
REMARK    4  A    between atoms: C_4  and  O_5
REMARK    5  A    between atoms: O_5  and  C_6
REMARK    6  A    between atoms: C_13  and  C_14
REMARK    7  A    between atoms: C_14  and  C_15
REMARK    8  A    between atoms: C_15  and  C_18
REMARK    9  A    between atoms: N_16  and  O_17
REMARK   10  A    between atoms: N_20  and  C_21
REMARK   11  A    between atoms: C_21  and  C_22
REMARK   12  A    between atoms: C_22  and  C_23
REMARK                            x       y       z     vdW  Elec       q    Type
REMARK                         _______ _______ _______ _____ _____    ______ ____
ROOT
ATOM      1  C   UNL     1       6.035   4.367  17.754  0.00  0.00    +0.000 C 
ENDROOT
BRANCH   1   9
ATOM      2  C   UNL     1       3.504   3.898  17.994  0.00  0.00    +0.000 A 
ATOM      3  C   UNL     1       2.179   4.421  18.114  0.00  0.00    +0.000 A 
ATOM      4 CL   UNL     1       0.722   3.461  18.370  0.00  0.00    +0.000 Cl
ATOM      5  C   UNL     1       1.965   5.801  18.048  0.00  0.00    +0.000 A 
ATOM      6  C   UNL     1       3.026   6.679  17.863  0.00  0.00    +0.000 A 
ATOM      7 CL   UNL     1       2.730   8.407  17.786  0.00  0.00    +0.000 Cl
ATOM      8  C   UNL     1       4.322   6.189  17.752  0.00  0.00    +0.000 A 
ATOM      9  C   UNL     1       4.582   4.810  17.816  0.00  0.00    +0.000 A 
BRANCH   2  10
ATOM     10  O   UNL     1       3.807   2.568  18.040  0.00  0.00    +0.000 OA
BRANCH  10  11
ATOM     11  C   UNL     1       3.630   1.675  19.078  0.00  0.00    +0.000 C 
BRANCH  11  12
ATOM     12  C   UNL     1       4.021   2.327  20.402  0.00  0.00    +0.000 C 
BRANCH  12  13
ATOM     13  C   UNL     1       2.838   2.379  21.371  0.00  0.00    +0.000 C 
BRANCH  13  14
ATOM     14  N   UNL     1       2.349   3.747  21.497  0.00  0.00    +0.000 NA
ATOM     15  H   UNL     1       1.765   3.962  20.657  0.00  0.00    +0.000 HD
ATOM     16  H   UNL     1       3.161   4.406  21.494  0.00  0.00    +0.000 HD
ENDBRANCH  13  14
ENDBRANCH  12  13
ENDBRANCH  11  12
ENDBRANCH  10  11
ENDBRANCH   2  10
ENDBRANCH   1   9
BRANCH   1  17
ATOM     17  C   UNL     1       6.961   5.447  17.223  0.00  0.00    +0.000 C 
ATOM     18  N   UNL     1       7.095   5.520  15.936  0.00  0.00    +0.000 NA
BRANCH  17  19
ATOM     19  C   UNL     1       7.651   6.416  18.146  0.00  0.00    +0.000 C 
ATOM     20  O   UNL     1       8.107   6.013  19.208  0.00  0.00    +0.000 OA
ATOM     21  N   UNL     1       7.798   7.729  17.811  0.00  0.00    +0.000 N 
ATOM     22  H   UNL     1       7.391   8.085  16.938  0.00  0.00    +0.000 HD
BRANCH  21  23
ATOM     23  C   UNL     1       8.506   8.685  18.643  0.00  0.00    +0.000 C 
BRANCH  23  24
ATOM     24  C   UNL     1       8.664  10.046  17.936  0.00  0.00    +0.000 C 
BRANCH  24  25
ATOM     25  C   UNL     1       9.695  10.899  18.633  0.00  0.00    +0.000 A 
ATOM     26  C   UNL     1       9.664  11.059  20.032  0.00  0.00    +0.000 A 
ATOM     27  C   UNL     1      10.616  11.861  20.668  0.00  0.00    +0.000 A 
ATOM     28  C   UNL     1      11.606  12.503  19.923  0.00  0.00    +0.000 A 
ATOM     29  C   UNL     1      11.650  12.344  18.536  0.00  0.00    +0.000 A 
ATOM     30  C   UNL     1      10.703  11.545  17.893  0.00  0.00    +0.000 A 
ENDBRANCH  24  25
ENDBRANCH  23  24
ENDBRANCH  21  23
ENDBRANCH  17  19
BRANCH  18  31
ATOM     31  O   UNL     1       7.862   6.412  15.342  0.00  0.00    +0.000 OA
ATOM     32  H   UNL     1       8.057   6.335  14.399  0.00  0.00    +0.000 HD
ENDBRANCH  18  31
ENDBRANCH   1  17
TORSDOF 12
ENDMDL
MODEL 9
REMARK VINA RESULT:      -7.1      2.060      3.657
REMARK  Name = 
REMARK  12 active torsions:
REMARK  status: ('A' for Active; 'I' for Inactive)
REMARK    1  A    between atoms: N_1  and  C_2
REMARK    2  A    between atoms: C_2  and  C_3
REMARK    3  A    between atoms: C_3  and  C_4
REMARK    4  A    between atoms: C_4  and  O_5
REMARK    5  A    between atoms: O_5  and  C_6
REMARK    6  A    between atoms: C_13  and  C_14
REMARK    7  A    between atoms: C_14  and  C_15
REMARK    8  A    between atoms: C_15  and  C_18
REMARK    9  A    between atoms: N_16  and  O_17
REMARK   10  A    between atoms: N_20  and  C_21
REMARK   11  A    between atoms: C_21  and  C_22
REMARK   12  A    between atoms: C_22  and  C_23
REMARK                            x       y       z     vdW  Elec       q    Type
REMARK                         _______ _______ _______ _____ _____    ______ ____
ROOT
ATOM      1  C   UNL     1       4.453   6.801  16.911  0.00  0.00    +0.000 C 
ENDROOT
BRANCH   1   9
ATOM      2  C   UNL     1       2.906   5.999  18.820  0.00  0.00    +0.000 A 
ATOM      3  C   UNL     1       2.292   4.906  19.506  0.00  0.00    +0.000 A 
ATOM      4 CL   UNL     1       1.129   5.051  20.824  0.00  0.00    +0.000 Cl
ATOM      5  C   UNL     1       2.588   3.592  19.131  0.00  0.00    +0.000 A 
ATOM      6  C   UNL     1       3.479   3.329  18.097  0.00  0.00    +0.000 A 
ATOM      7 CL   UNL     1       3.831   1.671  17.645  0.00  0.00    +0.000 Cl
ATOM      8  C   UNL     1       4.079   4.381  17.414  0.00  0.00    +0.000 A 
ATOM      9  C   UNL     1       3.806   5.716  17.756  0.00  0.00    +0.000 A 
BRANCH   2  10
ATOM     10  O   UNL     1       2.681   7.312  19.121  0.00  0.00    +0.000 OA
BRANCH  10  11
ATOM     11  C   UNL     1       1.555   7.895  19.666  0.00  0.00    +0.000 C 
BRANCH  11  12
ATOM     12  C   UNL     1       1.736   9.408  19.747  0.00  0.00    +0.000 C 
BRANCH  12  13
ATOM     13  C   UNL     1       1.223  10.103  18.484  0.00  0.00    +0.000 C 
BRANCH  13  14
ATOM     14  N   UNL     1       1.909   9.580  17.307  0.00  0.00    +0.000 NA
ATOM     15  H   UNL     1       2.126   8.571  17.479  0.00  0.00    +0.000 HD
ATOM     16  H   UNL     1       2.819  10.082  17.187  0.00  0.00    +0.000 HD
ENDBRANCH  13  14
ENDBRANCH  12  13
ENDBRANCH  11  12
ENDBRANCH  10  11
ENDBRANCH   2  10
ENDBRANCH   1   9
BRANCH   1  17
ATOM     17  C   UNL     1       5.913   6.521  16.604  0.00  0.00    +0.000 C 
ATOM     18  N   UNL     1       6.162   5.791  15.562  0.00  0.00    +0.000 NA
BRANCH  17  19
ATOM     19  C   UNL     1       7.020   7.103  17.443  0.00  0.00    +0.000 C 
ATOM     20  O   UNL     1       7.701   6.361  18.137  0.00  0.00    +0.000 OA
ATOM     21  N   UNL     1       7.293   8.438  17.425  0.00  0.00    +0.000 N 
ATOM     22  H   UNL     1       6.708   9.075  16.871  0.00  0.00    +0.000 HD
BRANCH  21  23
ATOM     23  C   UNL     1       8.385   9.035  18.172  0.00  0.00    +0.000 C 
BRANCH  23  24
ATOM     24  C   UNL     1       8.531  10.538  17.865  0.00  0.00    +0.000 C 
BRANCH  24  25
ATOM     25  C   UNL     1       9.731  11.119  18.570  0.00  0.00    +0.000 A 
ATOM     26  C   UNL     1       9.749  11.238  19.973  0.00  0.00    +0.000 A 
ATOM     27  C   UNL     1      10.861  11.788  20.617  0.00  0.00    +0.000 A 
ATOM     28  C   UNL     1      11.962  12.219  19.875  0.00  0.00    +0.000 A 
ATOM     29  C   UNL     1      11.957  12.098  18.484  0.00  0.00    +0.000 A 
ATOM     30  C   UNL     1      10.850  11.549  17.832  0.00  0.00    +0.000 A 
ENDBRANCH  24  25
ENDBRANCH  23  24
ENDBRANCH  21  23
ENDBRANCH  17  19
BRANCH  18  31
ATOM     31  O   UNL     1       7.382   5.475  15.179  0.00  0.00    +0.000 OA
ATOM     32  H   UNL     1       7.906   4.845  15.691  0.00  0.00    +0.000 HD
ENDBRANCH  18  31
ENDBRANCH   1  17
TORSDOF 12
ENDMDL
