MODEL 1
REMARK VINA RESULT:      -7.8      0.000      0.000
REMARK  Name = 
REMARK  7 active torsions:
REMARK  status: ('A' for Active; 'I' for Inactive)
REMARK    1  A    between atoms: C_2  and  C_4
REMARK    2  A    between atoms: C_7  and  N_8
REMARK    3  A    between atoms: N_8  and  C_9
REMARK    4  A    between atoms: C_9  and  C_10
REMARK    5  A    between atoms: C_10  and  C_11
REMARK    6  A    between atoms: C_11  and  C_12
REMARK    7  A    between atoms: C_12  and  C_13
REMARK                            x       y       z     vdW  Elec       q    Type
REMARK                         _______ _______ _______ _____ _____    ______ ____
ROOT
ATOM      1  C   UNL     1       6.818   5.980  17.910  0.00  0.00    +0.000 A 
ATOM      2  C   UNL     1       6.139   5.585  19.069  0.00  0.00    +0.000 A 
ATOM      3  C   UNL     1       5.292   4.485  19.042  0.00  0.00    +0.000 A 
ATOM      4  C   UNL     1       5.070   3.782  17.856  0.00  0.00    +0.000 A 
ATOM      5  C   UNL     1       5.776   4.202  16.683  0.00  0.00    +0.000 A 
ATOM      6  C   UNL     1       5.674   3.568  15.443  0.00  0.00    +0.000 A 
ATOM      7  N   UNL     1       6.324   3.935  14.319  0.00  0.00    +0.000 NA
ATOM      8  C   UNL     1       7.133   4.984  14.454  0.00  0.00    +0.000 A 
ATOM      9  N   UNL     1       7.336   5.673  15.585  0.00  0.00    +0.000 NA
ATOM     10  C   UNL     1       6.661   5.295  16.699  0.00  0.00    +0.000 A 
ENDROOT
BRANCH   1  12
ATOM     11  N   UNL     1       7.635   8.139  17.113  0.00  0.00    +0.000 N 
ATOM     12  C   UNL     1       7.723   7.154  18.053  0.00  0.00    +0.000 C 
ATOM     13  O   UNL     1       8.531   7.227  18.971  0.00  0.00    +0.000 OA
ATOM     14  H   UNL     1       8.140   8.998  17.284  0.00  0.00    +0.000 HD
ATOM     15  H   UNL     1       6.826   8.169  16.498  0.00  0.00    +0.000 HD
ENDBRANCH   1  12
BRANCH   4  16
ATOM     16  N   UNL     1       4.260   2.639  17.821  0.00  0.00    +0.000 N 
ATOM     17  H   UNL     1       3.478   2.724  17.178  0.00  0.00    +0.000 HD
BRANCH  16  18
ATOM     18  C   UNL     1       3.938   1.903  19.040  0.00  0.00    +0.000 C 
BRANCH  18  19
ATOM     19  C   UNL     1       2.481   1.439  19.011  0.00  0.00    +0.000 C 
BRANCH  19  20
ATOM     20  C   UNL     1       1.544   2.512  18.451  0.00  0.00    +0.000 C 
BRANCH  20  21
ATOM     21  C   UNL     1       1.057   3.458  19.549  0.00  0.00    +0.000 C 
BRANCH  21  22
ATOM     22  C   UNL     1       1.605   4.848  19.351  0.00  0.00    +0.000 A 
ATOM     23  C   UNL     1       1.746   5.714  20.443  0.00  0.00    +0.000 A 
ATOM     24  C   UNL     1       2.204   7.019  20.257  0.00  0.00    +0.000 A 
ATOM     25  C   UNL     1       2.528   7.469  18.979  0.00  0.00    +0.000 A 
ATOM     26  C   UNL     1       2.398   6.615  17.886  0.00  0.00    +0.000 A 
ATOM     27  C   UNL     1       1.937   5.309  18.070  0.00  0.00    +0.000 A 
ENDBRANCH  21  22
ENDBRANCH  20  21
ENDBRANCH  19  20
ENDBRANCH  18  19
ENDBRANCH  16  18
ENDBRANCH   4  16
TORSDOF 7
ENDMDL
MODEL 2
REMARK VINA RESULT:      -7.4      1.085      1.786
REMARK  Name = 
REMARK  7 active torsions:
REMARK  status: ('A' for Active; 'I' for Inactive)
REMARK    1  A    between atoms: C_2  and  C_4
REMARK    2  A    between atoms: C_7  and  N_8
REMARK    3  A    between atoms: N_8  and  C_9
REMARK    4  A    between atoms: C_9  and  C_10
REMARK    5  A    between atoms: C_10  and  C_11
REMARK    6  A    between atoms: C_11  and  C_12
REMARK    7  A    between atoms: C_12  and  C_13
REMARK                            x       y       z     vdW  Elec       q    Type
REMARK                         _______ _______ _______ _____ _____    ______ ____
ROOT
ATOM      1  C   UNL     1       6.902   5.996  17.987  0.00  0.00    +0.000 A 
ATOM      2  C   UNL     1       6.264   5.575  19.160  0.00  0.00    +0.000 A 
ATOM      3  C   UNL     1       5.425   4.468  19.141  0.00  0.00    +0.000 A 
ATOM      4  C   UNL     1       5.171   3.784  17.951  0.00  0.00    +0.000 A 
ATOM      5  C   UNL     1       5.834   4.230  16.763  0.00  0.00    +0.000 A 
ATOM      6  C   UNL     1       5.698   3.617  15.516  0.00  0.00    +0.000 A 
ATOM      7  N   UNL     1       6.308   4.009  14.378  0.00  0.00    +0.000 NA
ATOM      8  C   UNL     1       7.112   5.063  14.506  0.00  0.00    +0.000 A 
ATOM      9  N   UNL     1       7.346   5.734  15.641  0.00  0.00    +0.000 NA
ATOM     10  C   UNL     1       6.710   5.331  16.769  0.00  0.00    +0.000 A 
ENDROOT
BRANCH   1  12
ATOM     11  N   UNL     1       7.696   8.161  17.184  0.00  0.00    +0.000 N 
ATOM     12  C   UNL     1       7.800   7.175  18.121  0.00  0.00    +0.000 C 
ATOM     13  O   UNL     1       8.619   7.252  19.030  0.00  0.00    +0.000 OA
ATOM     14  H   UNL     1       8.197   9.023  17.350  0.00  0.00    +0.000 HD
ATOM     15  H   UNL     1       6.879   8.187  16.579  0.00  0.00    +0.000 HD
ENDBRANCH   1  12
BRANCH   4  16
ATOM     16  N   UNL     1       4.369   2.634  17.922  0.00  0.00    +0.000 N 
ATOM     17  H   UNL     1       4.601   2.006  17.157  0.00  0.00    +0.000 HD
BRANCH  16  18
ATOM     18  C   UNL     1       2.941   2.703  18.213  0.00  0.00    +0.000 C 
BRANCH  18  19
ATOM     19  C   UNL     1       2.295   3.850  17.435  0.00  0.00    +0.000 C 
BRANCH  19  20
ATOM     20  C   UNL     1       1.938   5.033  18.339  0.00  0.00    +0.000 C 
BRANCH  20  21
ATOM     21  C   UNL     1       2.756   6.275  17.983  0.00  0.00    +0.000 C 
BRANCH  21  22
ATOM     22  C   UNL     1       2.168   7.511  18.614  0.00  0.00    +0.000 A 
ATOM     23  C   UNL     1       1.900   7.542  19.989  0.00  0.00    +0.000 A 
ATOM     24  C   UNL     1       1.308   8.665  20.569  0.00  0.00    +0.000 A 
ATOM     25  C   UNL     1       0.980   9.767  19.781  0.00  0.00    +0.000 A 
ATOM     26  C   UNL     1       1.247   9.749  18.414  0.00  0.00    +0.000 A 
ATOM     27  C   UNL     1       1.838   8.625  17.831  0.00  0.00    +0.000 A 
ENDBRANCH  21  22
ENDBRANCH  20  21
ENDBRANCH  19  20
ENDBRANCH  18  19
ENDBRANCH  16  18
ENDBRANCH   4  16
TORSDOF 7
ENDMDL
MODEL 3
REMARK VINA RESULT:      -7.3      0.849      1.316
REMARK  Name = 
REMARK  7 active torsions:
REMARK  status: ('A' for Active; 'I' for Inactive)
REMARK    1  A    between atoms: C_2  and  C_4
REMARK    2  A    between atoms: C_7  and  N_8
REMARK    3  A    between atoms: N_8  and  C_9
REMARK    4  A    between atoms: C_9  and  C_10
REMARK    5  A    between atoms: C_10  and  C_11
REMARK    6  A    between atoms: C_11  and  C_12
REMARK    7  A    between atoms: C_12  and  C_13
REMARK                            x       y       z     vdW  Elec       q    Type
REMARK                         _______ _______ _______ _____ _____    ______ ____
ROOT
ATOM      1  C   UNL     1       6.787   6.011  17.818  0.00  0.00    +0.000 A 
ATOM      2  C   UNL     1       6.158   5.587  18.995  0.00  0.00    +0.000 A 
ATOM      3  C   UNL     1       5.385   4.432  18.997  0.00  0.00    +0.000 A 
ATOM      4  C   UNL     1       5.189   3.700  17.825  0.00  0.00    +0.000 A 
ATOM      5  C   UNL     1       5.843   4.150  16.633  0.00  0.00    +0.000 A 
ATOM      6  C   UNL     1       5.761   3.494  15.404  0.00  0.00    +0.000 A 
ATOM      7  N   UNL     1       6.363   3.888  14.262  0.00  0.00    +0.000 NA
ATOM      8  C   UNL     1       7.102   4.991  14.369  0.00  0.00    +0.000 A 
ATOM      9  N   UNL     1       7.280   5.708  15.486  0.00  0.00    +0.000 NA
ATOM     10  C   UNL     1       6.652   5.301  16.618  0.00  0.00    +0.000 A 
ENDROOT
BRANCH   1  12
ATOM     11  N   UNL     1       8.499   7.322  18.962  0.00  0.00    +0.000 N 
ATOM     12  C   UNL     1       7.613   7.244  17.928  0.00  0.00    +0.000 C 
ATOM     13  O   UNL     1       7.491   8.166  17.130  0.00  0.00    +0.000 OA
ATOM     14  H   UNL     1       9.160   8.088  18.959  0.00  0.00    +0.000 HD
ATOM     15  H   UNL     1       8.742   6.478  19.474  0.00  0.00    +0.000 HD
ENDBRANCH   1  12
BRANCH   4  16
ATOM     16  N   UNL     1       4.456   2.505  17.820  0.00  0.00    +0.000 N 
ATOM     17  H   UNL     1       4.920   1.755  17.315  0.00  0.00    +0.000 HD
BRANCH  16  18
ATOM     18  C   UNL     1       3.006   2.510  17.662  0.00  0.00    +0.000 C 
BRANCH  18  19
ATOM     19  C   UNL     1       2.337   1.871  18.880  0.00  0.00    +0.000 C 
BRANCH  19  20
ATOM     20  C   UNL     1       2.378   2.785  20.108  0.00  0.00    +0.000 C 
BRANCH  20  21
ATOM     21  C   UNL     1       1.179   3.733  20.141  0.00  0.00    +0.000 C 
BRANCH  21  22
ATOM     22  C   UNL     1       1.579   5.128  19.737  0.00  0.00    +0.000 A 
ATOM     23  C   UNL     1       1.996   5.392  18.426  0.00  0.00    +0.000 A 
ATOM     24  C   UNL     1       2.416   6.672  18.061  0.00  0.00    +0.000 A 
ATOM     25  C   UNL     1       2.421   7.699  19.001  0.00  0.00    +0.000 A 
ATOM     26  C   UNL     1       2.002   7.451  20.306  0.00  0.00    +0.000 A 
ATOM     27  C   UNL     1       1.584   6.170  20.675  0.00  0.00    +0.000 A 
ENDBRANCH  21  22
ENDBRANCH  20  21
ENDBRANCH  19  20
ENDBRANCH  18  19
ENDBRANCH  16  18
ENDBRANCH   4  16
TORSDOF 7
ENDMDL
MODEL 4
REMARK VINA RESULT:      -7.0      0.893      1.714
REMARK  Name = 
REMARK  7 active torsions:
REMARK  status: ('A' for Active; 'I' for Inactive)
REMARK    1  A    between atoms: C_2  and  C_4
REMARK    2  A    between atoms: C_7  and  N_8
REMARK    3  A    between atoms: N_8  and  C_9
REMARK    4  A    between atoms: C_9  and  C_10
REMARK    5  A    between atoms: C_10  and  C_11
REMARK    6  A    between atoms: C_11  and  C_12
REMARK    7  A    between atoms: C_12  and  C_13
REMARK                            x       y       z     vdW  Elec       q    Type
REMARK                         _______ _______ _______ _____ _____    ______ ____
ROOT
ATOM      1  C   UNL     1       6.789   5.959  17.951  0.00  0.00    +0.000 A 
ATOM      2  C   UNL     1       6.136   5.583  19.131  0.00  0.00    +0.000 A 
ATOM      3  C   UNL     1       5.274   4.495  19.136  0.00  0.00    +0.000 A 
ATOM      4  C   UNL     1       5.012   3.784  17.964  0.00  0.00    +0.000 A 
ATOM      5  C   UNL     1       5.691   4.183  16.768  0.00  0.00    +0.000 A 
ATOM      6  C   UNL     1       5.549   3.539  15.538  0.00  0.00    +0.000 A 
ATOM      7  N   UNL     1       6.173   3.887  14.394  0.00  0.00    +0.000 NA
ATOM      8  C   UNL     1       6.999   4.927  14.497  0.00  0.00    +0.000 A 
ATOM      9  N   UNL     1       7.241   5.624  15.615  0.00  0.00    +0.000 NA
ATOM     10  C   UNL     1       6.591   5.265  16.750  0.00  0.00    +0.000 A 
ENDROOT
BRANCH   1  12
ATOM     11  N   UNL     1       7.597   8.110  17.126  0.00  0.00    +0.000 N 
ATOM     12  C   UNL     1       7.712   7.122  18.058  0.00  0.00    +0.000 C 
ATOM     13  O   UNL     1       8.560   7.183  18.942  0.00  0.00    +0.000 OA
ATOM     14  H   UNL     1       8.119   8.963  17.277  0.00  0.00    +0.000 HD
ATOM     15  H   UNL     1       6.763   8.152  16.545  0.00  0.00    +0.000 HD
ENDBRANCH   1  12
BRANCH   4  16
ATOM     16  N   UNL     1       4.186   2.651  17.961  0.00  0.00    +0.000 N 
ATOM     17  H   UNL     1       4.638   1.829  17.571  0.00  0.00    +0.000 HD
BRANCH  16  18
ATOM     18  C   UNL     1       2.767   2.752  17.632  0.00  0.00    +0.000 C 
BRANCH  18  19
ATOM     19  C   UNL     1       2.275   4.185  17.842  0.00  0.00    +0.000 C 
BRANCH  19  20
ATOM     20  C   UNL     1       1.640   4.382  19.221  0.00  0.00    +0.000 C 
BRANCH  20  21
ATOM     21  C   UNL     1       2.390   5.437  20.036  0.00  0.00    +0.000 C 
BRANCH  21  22
ATOM     22  C   UNL     1       2.120   6.823  19.508  0.00  0.00    +0.000 A 
ATOM     23  C   UNL     1       2.591   7.200  18.243  0.00  0.00    +0.000 A 
ATOM     24  C   UNL     1       2.388   8.498  17.771  0.00  0.00    +0.000 A 
ATOM     25  C   UNL     1       1.711   9.428  18.557  0.00  0.00    +0.000 A 
ATOM     26  C   UNL     1       1.233   9.062  19.813  0.00  0.00    +0.000 A 
ATOM     27  C   UNL     1       1.437   7.765  20.288  0.00  0.00    +0.000 A 
ENDBRANCH  21  22
ENDBRANCH  20  21
ENDBRANCH  19  20
ENDBRANCH  18  19
ENDBRANCH  16  18
ENDBRANCH   4  16
TORSDOF 7
ENDMDL
MODEL 5
REMARK VINA RESULT:      -6.9      1.241      1.643
REMARK  Name = 
REMARK  7 active torsions:
REMARK  status: ('A' for Active; 'I' for Inactive)
REMARK    1  A    between atoms: C_2  and  C_4
REMARK    2  A    between atoms: C_7  and  N_8
REMARK    3  A    between atoms: N_8  and  C_9
REMARK    4  A    between atoms: C_9  and  C_10
REMARK    5  A    between atoms: C_10  and  C_11
REMARK    6  A    between atoms: C_11  and  C_12
REMARK    7  A    between atoms: C_12  and  C_13
REMARK                            x       y       z     vdW  Elec       q    Type
REMARK                         _______ _______ _______ _____ _____    ______ ____
ROOT
ATOM      1  C   UNL     1       6.619   5.203  18.452  0.00  0.00    +0.000 A 
ATOM      2  C   UNL     1       5.741   4.754  19.446  0.00  0.00    +0.000 A 
ATOM      3  C   UNL     1       4.644   3.972  19.108  0.00  0.00    +0.000 A 
ATOM      4  C   UNL     1       4.375   3.655  17.776  0.00  0.00    +0.000 A 
ATOM      5  C   UNL     1       5.286   4.122  16.775  0.00  0.00    +0.000 A 
ATOM      6  C   UNL     1       5.156   3.847  15.413  0.00  0.00    +0.000 A 
ATOM      7  N   UNL     1       5.995   4.269  14.444  0.00  0.00    +0.000 NA
ATOM      8  C   UNL     1       7.030   4.990  14.871  0.00  0.00    +0.000 A 
ATOM      9  N   UNL     1       7.284   5.313  16.146  0.00  0.00    +0.000 NA
ATOM     10  C   UNL     1       6.419   4.890  17.101  0.00  0.00    +0.000 A 
ENDROOT
BRANCH   1  12
ATOM     11  N   UNL     1       8.527   5.509  19.945  0.00  0.00    +0.000 N 
ATOM     12  C   UNL     1       7.778   6.011  18.922  0.00  0.00    +0.000 C 
ATOM     13  O   UNL     1       8.041   7.098  18.421  0.00  0.00    +0.000 OA
ATOM     14  H   UNL     1       9.393   5.980  20.169  0.00  0.00    +0.000 HD
ATOM     15  H   UNL     1       8.433   4.527  20.195  0.00  0.00    +0.000 HD
ENDBRANCH   1  12
BRANCH   4  16
ATOM     16  N   UNL     1       3.303   2.824  17.422  0.00  0.00    +0.000 N 
ATOM     17  H   UNL     1       3.013   2.938  16.454  0.00  0.00    +0.000 HD
BRANCH  16  18
ATOM     18  C   UNL     1       2.195   2.586  18.342  0.00  0.00    +0.000 C 
BRANCH  18  19
ATOM     19  C   UNL     1       1.375   3.864  18.527  0.00  0.00    +0.000 C 
BRANCH  19  20
ATOM     20  C   UNL     1       1.064   4.143  19.999  0.00  0.00    +0.000 C 
BRANCH  20  21
ATOM     21  C   UNL     1       2.096   5.084  20.621  0.00  0.00    +0.000 C 
BRANCH  21  22
ATOM     22  C   UNL     1       1.977   6.473  20.048  0.00  0.00    +0.000 A 
ATOM     23  C   UNL     1       1.372   7.494  20.793  0.00  0.00    +0.000 A 
ATOM     24  C   UNL     1       1.213   8.769  20.248  0.00  0.00    +0.000 A 
ATOM     25  C   UNL     1       1.659   9.035  18.955  0.00  0.00    +0.000 A 
ATOM     26  C   UNL     1       2.267   8.030  18.207  0.00  0.00    +0.000 A 
ATOM     27  C   UNL     1       2.425   6.753  18.750  0.00  0.00    +0.000 A 
ENDBRANCH  21  22
ENDBRANCH  20  21
ENDBRANCH  19  20
ENDBRANCH  18  19
ENDBRANCH  16  18
ENDBRANCH   4  16
TORSDOF 7
ENDMDL
MODEL 6
REMARK VINA RESULT:      -6.9      1.924      3.995
REMARK  Name = 
REMARK  7 active torsions:
REMARK  status: ('A' for Active; 'I' for Inactive)
REMARK    1  A    between atoms: C_2  and  C_4
REMARK    2  A    between atoms: C_7  and  N_8
REMARK    3  A    between atoms: N_8  and  C_9
REMARK    4  A    between atoms: C_9  and  C_10
REMARK    5  A    between atoms: C_10  and  C_11
REMARK    6  A    between atoms: C_11  and  C_12
REMARK    7  A    between atoms: C_12  and  C_13
REMARK                            x       y       z     vdW  Elec       q    Type
REMARK                         _______ _______ _______ _____ _____    ______ ____
ROOT
ATOM      1  C   UNL     1       5.884   4.906  16.205  0.00  0.00    +0.000 A 
ATOM      2  C   UNL     1       4.507   5.142  16.122  0.00  0.00    +0.000 A 
ATOM      3  C   UNL     1       3.789   5.498  17.257  0.00  0.00    +0.000 A 
ATOM      4  C   UNL     1       4.415   5.587  18.501  0.00  0.00    +0.000 A 
ATOM      5  C   UNL     1       5.825   5.344  18.563  0.00  0.00    +0.000 A 
ATOM      6  C   UNL     1       6.581   5.434  19.734  0.00  0.00    +0.000 A 
ATOM      7  N   UNL     1       7.909   5.213  19.829  0.00  0.00    +0.000 NA
ATOM      8  C   UNL     1       8.511   4.904  18.683  0.00  0.00    +0.000 A 
ATOM      9  N   UNL     1       7.912   4.799  17.489  0.00  0.00    +0.000 NA
ATOM     10  C   UNL     1       6.574   5.011  17.420  0.00  0.00    +0.000 A 
ENDROOT
BRANCH   1  12
ATOM     11  N   UNL     1       6.188   3.404  14.304  0.00  0.00    +0.000 N 
ATOM     12  C   UNL     1       6.564   4.558  14.928  0.00  0.00    +0.000 C 
ATOM     13  O   UNL     1       7.444   5.270  14.460  0.00  0.00    +0.000 OA
ATOM     14  H   UNL     1       6.540   3.237  13.371  0.00  0.00    +0.000 HD
ATOM     15  H   UNL     1       5.322   2.948  14.582  0.00  0.00    +0.000 HD
ENDBRANCH   1  12
BRANCH   4  16
ATOM     16  N   UNL     1       3.718   5.995  19.646  0.00  0.00    +0.000 N 
ATOM     17  H   UNL     1       3.665   5.273  20.359  0.00  0.00    +0.000 HD
BRANCH  16  18
ATOM     18  C   UNL     1       2.512   6.810  19.546  0.00  0.00    +0.000 C 
BRANCH  18  19
ATOM     19  C   UNL     1       1.378   6.182  20.357  0.00  0.00    +0.000 C 
BRANCH  19  20
ATOM     20  C   UNL     1       1.865   5.026  21.234  0.00  0.00    +0.000 C 
BRANCH  20  21
ATOM     21  C   UNL     1       1.212   3.703  20.830  0.00  0.00    +0.000 C 
BRANCH  21  22
ATOM     22  C   UNL     1       2.052   2.971  19.816  0.00  0.00    +0.000 A 
ATOM     23  C   UNL     1       3.328   2.506  20.160  0.00  0.00    +0.000 A 
ATOM     24  C   UNL     1       4.131   1.872  19.210  0.00  0.00    +0.000 A 
ATOM     25  C   UNL     1       3.664   1.696  17.909  0.00  0.00    +0.000 A 
ATOM     26  C   UNL     1       2.395   2.149  17.557  0.00  0.00    +0.000 A 
ATOM     27  C   UNL     1       1.591   2.786  18.505  0.00  0.00    +0.000 A 
ENDBRANCH  21  22
ENDBRANCH  20  21
ENDBRANCH  19  20
ENDBRANCH  18  19
ENDBRANCH  16  18
ENDBRANCH   4  16
TORSDOF 7
ENDMDL
MODEL 7
REMARK VINA RESULT:      -6.8      1.935      4.047
REMARK  Name = 
REMARK  7 active torsions:
REMARK  status: ('A' for Active; 'I' for Inactive)
REMARK    1  A    between atoms: C_2  and  C_4
REMARK    2  A    between atoms: C_7  and  N_8
REMARK    3  A    between atoms: N_8  and  C_9
REMARK    4  A    between atoms: C_9  and  C_10
REMARK    5  A    between atoms: C_10  and  C_11
REMARK    6  A    between atoms: C_11  and  C_12
REMARK    7  A    between atoms: C_12  and  C_13
REMARK                            x       y       z     vdW  Elec       q    Type
REMARK                         _______ _______ _______ _____ _____    ______ ____
ROOT
ATOM      1  C   UNL     1       5.884   4.892  16.215  0.00  0.00    +0.000 A 
ATOM      2  C   UNL     1       4.506   5.129  16.145  0.00  0.00    +0.000 A 
ATOM      3  C   UNL     1       3.800   5.489  17.285  0.00  0.00    +0.000 A 
ATOM      4  C   UNL     1       4.438   5.580  18.523  0.00  0.00    +0.000 A 
ATOM      5  C   UNL     1       5.849   5.336  18.573  0.00  0.00    +0.000 A 
ATOM      6  C   UNL     1       6.616   5.428  19.735  0.00  0.00    +0.000 A 
ATOM      7  N   UNL     1       7.944   5.206  19.819  0.00  0.00    +0.000 NA
ATOM      8  C   UNL     1       8.535   4.893  18.667  0.00  0.00    +0.000 A 
ATOM      9  N   UNL     1       7.924   4.786  17.479  0.00  0.00    +0.000 NA
ATOM     10  C   UNL     1       6.586   4.999  17.423  0.00  0.00    +0.000 A 
ENDROOT
BRANCH   1  12
ATOM     11  N   UNL     1       6.163   3.389  14.311  0.00  0.00    +0.000 N 
ATOM     12  C   UNL     1       6.551   4.540  14.932  0.00  0.00    +0.000 C 
ATOM     13  O   UNL     1       7.432   5.247  14.457  0.00  0.00    +0.000 OA
ATOM     14  H   UNL     1       6.506   3.220  13.375  0.00  0.00    +0.000 HD
ATOM     15  H   UNL     1       5.296   2.939  14.596  0.00  0.00    +0.000 HD
ENDBRANCH   1  12
BRANCH   4  16
ATOM     16  N   UNL     1       3.753   5.992  19.674  0.00  0.00    +0.000 N 
ATOM     17  H   UNL     1       3.937   5.401  20.481  0.00  0.00    +0.000 HD
BRANCH  16  18
ATOM     18  C   UNL     1       2.377   6.474  19.602  0.00  0.00    +0.000 C 
BRANCH  18  19
ATOM     19  C   UNL     1       1.571   5.960  20.796  0.00  0.00    +0.000 C 
BRANCH  19  20
ATOM     20  C   UNL     1       0.655   4.794  20.417  0.00  0.00    +0.000 C 
BRANCH  20  21
ATOM     21  C   UNL     1       1.219   3.458  20.902  0.00  0.00    +0.000 C 
BRANCH  21  22
ATOM     22  C   UNL     1       2.165   2.868  19.889  0.00  0.00    +0.000 A 
ATOM     23  C   UNL     1       1.736   2.634  18.575  0.00  0.00    +0.000 A 
ATOM     24  C   UNL     1       2.592   2.041  17.647  0.00  0.00    +0.000 A 
ATOM     25  C   UNL     1       3.884   1.678  18.021  0.00  0.00    +0.000 A 
ATOM     26  C   UNL     1       4.324   1.911  19.322  0.00  0.00    +0.000 A 
ATOM     27  C   UNL     1       3.468   2.503  20.254  0.00  0.00    +0.000 A 
ENDBRANCH  21  22
ENDBRANCH  20  21
ENDBRANCH  19  20
ENDBRANCH  18  19
ENDBRANCH  16  18
ENDBRANCH   4  16
TORSDOF 7
ENDMDL
MODEL 8
REMARK VINA RESULT:      -6.8      1.791      2.876
REMARK  Name = 
REMARK  7 active torsions:
REMARK  status: ('A' for Active; 'I' for Inactive)
REMARK    1  A    between atoms: C_2  and  C_4
REMARK    2  A    between atoms: C_7  and  N_8
REMARK    3  A    between atoms: N_8  and  C_9
REMARK    4  A    between atoms: C_9  and  C_10
REMARK    5  A    between atoms: C_10  and  C_11
REMARK    6  A    between atoms: C_11  and  C_12
REMARK    7  A    between atoms: C_12  and  C_13
REMARK                            x       y       z     vdW  Elec       q    Type
REMARK                         _______ _______ _______ _____ _____    ______ ____
ROOT
ATOM      1  C   UNL     1       6.087   4.428  15.782  0.00  0.00    +0.000 A 
ATOM      2  C   UNL     1       5.200   3.376  16.043  0.00  0.00    +0.000 A 
ATOM      3  C   UNL     1       4.800   3.107  17.345  0.00  0.00    +0.000 A 
ATOM      4  C   UNL     1       5.303   3.847  18.416  0.00  0.00    +0.000 A 
ATOM      5  C   UNL     1       6.208   4.919  18.127  0.00  0.00    +0.000 A 
ATOM      6  C   UNL     1       6.756   5.760  19.097  0.00  0.00    +0.000 A 
ATOM      7  N   UNL     1       7.610   6.778  18.861  0.00  0.00    +0.000 NA
ATOM      8  C   UNL     1       7.911   6.973  17.578  0.00  0.00    +0.000 A 
ATOM      9  N   UNL     1       7.446   6.254  16.548  0.00  0.00    +0.000 NA
ATOM     10  C   UNL     1       6.601   5.226  16.811  0.00  0.00    +0.000 A 
ENDROOT
BRANCH   1  12
ATOM     11  N   UNL     1       7.546   5.384  14.074  0.00  0.00    +0.000 N 
ATOM     12  C   UNL     1       6.430   4.650  14.351  0.00  0.00    +0.000 C 
ATOM     13  O   UNL     1       5.728   4.206  13.450  0.00  0.00    +0.000 OA
ATOM     14  H   UNL     1       7.863   5.416  13.114  0.00  0.00    +0.000 HD
ATOM     15  H   UNL     1       8.226   5.553  14.812  0.00  0.00    +0.000 HD
ENDBRANCH   1  12
BRANCH   4  16
ATOM     16  N   UNL     1       4.871   3.624  19.731  0.00  0.00    +0.000 N 
ATOM     17  H   UNL     1       5.483   4.041  20.427  0.00  0.00    +0.000 HD
BRANCH  16  18
ATOM     18  C   UNL     1       4.314   2.337  20.134  0.00  0.00    +0.000 C 
BRANCH  18  19
ATOM     19  C   UNL     1       3.042   2.544  20.958  0.00  0.00    +0.000 C 
BRANCH  19  20
ATOM     20  C   UNL     1       1.775   2.261  20.147  0.00  0.00    +0.000 C 
BRANCH  20  21
ATOM     21  C   UNL     1       0.825   3.459  20.157  0.00  0.00    +0.000 C 
BRANCH  21  22
ATOM     22  C   UNL     1       1.500   4.691  19.612  0.00  0.00    +0.000 A 
ATOM     23  C   UNL     1       1.813   5.760  20.463  0.00  0.00    +0.000 A 
ATOM     24  C   UNL     1       2.392   6.923  19.954  0.00  0.00    +0.000 A 
ATOM     25  C   UNL     1       2.666   7.029  18.592  0.00  0.00    +0.000 A 
ATOM     26  C   UNL     1       2.365   5.971  17.737  0.00  0.00    +0.000 A 
ATOM     27  C   UNL     1       1.783   4.806  18.244  0.00  0.00    +0.000 A 
ENDBRANCH  21  22
ENDBRANCH  20  21
ENDBRANCH  19  20
ENDBRANCH  18  19
ENDBRANCH  16  18
ENDBRANCH   4  16
TORSDOF 7
ENDMDL
MODEL 9
REMARK VINA RESULT:      -6.7      0.919      1.165
REMARK  Name = 
REMARK  7 active torsions:
REMARK  status: ('A' for Active; 'I' for Inactive)
REMARK    1  A    between atoms: C_2  and  C_4
REMARK    2  A    between atoms: C_7  and  N_8
REMARK    3  A    between atoms: N_8  and  C_9
REMARK    4  A    between atoms: C_9  and  C_10
REMARK    5  A    between atoms: C_10  and  C_11
REMARK    6  A    between atoms: C_11  and  C_12
REMARK    7  A    between atoms: C_12  and  C_13
REMARK                            x       y       z     vdW  Elec       q    Type
REMARK                         _______ _______ _______ _____ _____    ______ ____
ROOT
ATOM      1  C   UNL     1       6.781   6.049  17.882  0.00  0.00    +0.000 A 
ATOM      2  C   UNL     1       6.175   5.654  19.081  0.00  0.00    +0.000 A 
ATOM      3  C   UNL     1       5.418   4.491  19.131  0.00  0.00    +0.000 A 
ATOM      4  C   UNL     1       5.212   3.721  17.985  0.00  0.00    +0.000 A 
ATOM      5  C   UNL     1       5.842   4.142  16.770  0.00  0.00    +0.000 A 
ATOM      6  C   UNL     1       5.750   3.448  15.562  0.00  0.00    +0.000 A 
ATOM      7  N   UNL     1       6.330   3.814  14.400  0.00  0.00    +0.000 NA
ATOM      8  C   UNL     1       7.057   4.928  14.461  0.00  0.00    +0.000 A 
ATOM      9  N   UNL     1       7.243   5.681  15.554  0.00  0.00    +0.000 NA
ATOM     10  C   UNL     1       6.638   5.301  16.707  0.00  0.00    +0.000 A 
ENDROOT
BRANCH   1  12
ATOM     11  N   UNL     1       8.511   7.405  18.946  0.00  0.00    +0.000 N 
ATOM     12  C   UNL     1       7.594   7.295  17.942  0.00  0.00    +0.000 C 
ATOM     13  O   UNL     1       7.434   8.200  17.131  0.00  0.00    +0.000 OA
ATOM     14  H   UNL     1       9.161   8.178  18.907  0.00  0.00    +0.000 HD
ATOM     15  H   UNL     1       8.782   6.574  19.466  0.00  0.00    +0.000 HD
ENDBRANCH   1  12
BRANCH   4  16
ATOM     16  N   UNL     1       4.494   2.518  18.027  0.00  0.00    +0.000 N 
ATOM     17  H   UNL     1       5.088   1.697  17.955  0.00  0.00    +0.000 HD
BRANCH  16  18
ATOM     18  C   UNL     1       3.214   2.379  17.341  0.00  0.00    +0.000 C 
BRANCH  18  19
ATOM     19  C   UNL     1       2.089   2.167  18.355  0.00  0.00    +0.000 C 
BRANCH  19  20
ATOM     20  C   UNL     1       1.216   3.415  18.519  0.00  0.00    +0.000 C 
BRANCH  20  21
ATOM     21  C   UNL     1       1.772   4.595  17.722  0.00  0.00    +0.000 C 
BRANCH  21  22
ATOM     22  C   UNL     1       1.880   5.827  18.582  0.00  0.00    +0.000 A 
ATOM     23  C   UNL     1       1.696   5.739  19.968  0.00  0.00    +0.000 A 
ATOM     24  C   UNL     1       1.744   6.886  20.763  0.00  0.00    +0.000 A 
ATOM     25  C   UNL     1       1.979   8.129  20.180  0.00  0.00    +0.000 A 
ATOM     26  C   UNL     1       2.170   8.228  18.804  0.00  0.00    +0.000 A 
ATOM     27  C   UNL     1       2.119   7.083  18.006  0.00  0.00    +0.000 A 
ENDBRANCH  21  22
ENDBRANCH  20  21
ENDBRANCH  19  20
ENDBRANCH  18  19
ENDBRANCH  16  18
ENDBRANCH   4  16
TORSDOF 7
ENDMDL
