MODEL 1
REMARK VINA RESULT:      -7.1      0.000      0.000
REMARK  Name = 
REMARK  7 active torsions:
REMARK  status: ('A' for Active; 'I' for Inactive)
REMARK    1  A    between atoms: O5*_1  and  C5*_2
REMARK    2  A    between atoms: C5*_2  and  C4*_3
REMARK    3  A    between atoms: C1*_5  and  N_6
REMARK    4  A    between atoms: N_11  and  C_12
REMARK    5  A    between atoms: N_19  and  C_20
REMARK    6  A    between atoms: C2*_28  and  O2*_29
REMARK    7  A    between atoms: C3*_30  and  O3*_31
REMARK                            x       y       z     vdW  Elec       q    Type
REMARK                         _______ _______ _______ _____ _____    ______ ____
ROOT
ATOM      1  N   UNL     1       1.713  13.342  18.647  0.00  0.00    +0.000 N 
ATOM      2  C   UNL     1       0.530  14.020  18.729  0.00  0.00    +0.000 A 
ATOM      3  N   UNL     1      -0.505  13.215  18.657  0.00  0.00    +0.000 NA
ATOM      4  C   UNL     1       0.035  11.952  18.536  0.00  0.00    +0.000 A 
ATOM      5  C   UNL     1      -0.541  10.676  18.441  0.00  0.00    +0.000 A 
ATOM      6  N   UNL     1      -1.902  10.373  18.463  0.00  0.00    +0.000 N 
ATOM      7  N   UNL     1       0.302   9.619  18.337  0.00  0.00    +0.000 NA
ATOM      8  C   UNL     1       1.643   9.791  18.338  0.00  0.00    +0.000 A 
ATOM      9  N   UNL     1       2.482   8.673  18.262  0.00  0.00    +0.000 N 
ATOM     10  N   UNL     1       2.273  10.980  18.401  0.00  0.00    +0.000 NA
ATOM     11  C   UNL     1       1.418  12.010  18.511  0.00  0.00    +0.000 A 
ATOM     12  H   UNL     1      -2.014   9.413  18.149  0.00  0.00    +0.000 HD
ATOM     13  H   UNL     1       3.443   8.977  18.203  0.00  0.00    +0.000 HD
ENDROOT
BRANCH   9  14
ATOM     14  C   UNL     1       2.280   7.345  18.677  0.00  0.00    +0.000 A 
ATOM     15  C   UNL     1       2.371   6.248  17.809  0.00  0.00    +0.000 A 
ATOM     16  C   UNL     1       2.205   4.939  18.267  0.00  0.00    +0.000 A 
ATOM     17  C   UNL     1       1.955   4.698  19.614  0.00  0.00    +0.000 A 
ATOM     18  C   UNL     1       1.880   5.767  20.500  0.00  0.00    +0.000 A 
ATOM     19  C   UNL     1       2.050   7.078  20.035  0.00  0.00    +0.000 A 
ENDBRANCH   9  14
BRANCH   1  22
ATOM     20  C4* UNL     1       4.026  15.147  20.487  0.00  0.00    +0.000 C 
ATOM     21  O4* UNL     1       3.503  13.853  20.108  0.00  0.00    +0.000 OA
ATOM     22  C1* UNL     1       3.043  13.912  18.731  0.00  0.00    +0.000 C 
ATOM     23  C2* UNL     1       3.122  15.369  18.276  0.00  0.00    +0.000 C 
ATOM     24  C3* UNL     1       4.207  15.921  19.188  0.00  0.00    +0.000 C 
BRANCH  23  25
ATOM     25  O2* UNL     1       3.491  15.512  16.903  0.00  0.00    +0.000 OA
ATOM     26  H2* UNL     1       2.785  16.050  16.486  0.00  0.00    +0.000 HD
ENDBRANCH  23  25
BRANCH  24  27
ATOM     27  O3* UNL     1       5.490  15.625  18.592  0.00  0.00    +0.000 OA
ATOM     28  H3* UNL     1       5.715  14.695  18.778  0.00  0.00    +0.000 HD
ENDBRANCH  24  27
BRANCH  20  29
ATOM     29  C5* UNL     1       3.090  15.829  21.492  0.00  0.00    +0.000 C 
BRANCH  29  30
ATOM     30  O5* UNL     1       2.479  14.881  22.358  0.00  0.00    +0.000 OA
ATOM     31  H5* UNL     1       2.758  13.995  22.059  0.00  0.00    +0.000 HD
ENDBRANCH  29  30
ENDBRANCH  20  29
ENDBRANCH   1  22
BRANCH   6  32
ATOM     32  C   UNL     1      -2.836  11.345  17.919  0.00  0.00    +0.000 C 
ATOM     33  C   UNL     1      -3.752  10.761  16.846  0.00  0.00    +0.000 C 
ATOM     34  C   UNL     1      -4.937  11.713  16.826  0.00  0.00    +0.000 C 
ATOM     35  C   UNL     1      -5.099  12.191  18.264  0.00  0.00    +0.000 C 
ATOM     36  C   UNL     1      -3.821  11.793  19.002  0.00  0.00    +0.000 C 
ENDBRANCH   6  32
TORSDOF 7
ENDMDL
MODEL 2
REMARK VINA RESULT:      -7.0      1.108      1.582
REMARK  Name = 
REMARK  7 active torsions:
REMARK  status: ('A' for Active; 'I' for Inactive)
REMARK    1  A    between atoms: O5*_1  and  C5*_2
REMARK    2  A    between atoms: C5*_2  and  C4*_3
REMARK    3  A    between atoms: C1*_5  and  N_6
REMARK    4  A    between atoms: N_11  and  C_12
REMARK    5  A    between atoms: N_19  and  C_20
REMARK    6  A    between atoms: C2*_28  and  O2*_29
REMARK    7  A    between atoms: C3*_30  and  O3*_31
REMARK                            x       y       z     vdW  Elec       q    Type
REMARK                         _______ _______ _______ _____ _____    ______ ____
ROOT
ATOM      1  N   UNL     1       1.111  13.819  19.074  0.00  0.00    +0.000 N 
ATOM      2  C   UNL     1      -0.134  14.376  19.144  0.00  0.00    +0.000 A 
ATOM      3  N   UNL     1      -1.082  13.488  18.957  0.00  0.00    +0.000 NA
ATOM      4  C   UNL     1      -0.419  12.293  18.771  0.00  0.00    +0.000 A 
ATOM      5  C   UNL     1      -0.865  10.981  18.551  0.00  0.00    +0.000 A 
ATOM      6  N   UNL     1      -2.191  10.553  18.478  0.00  0.00    +0.000 N 
ATOM      7  N   UNL     1       0.079  10.017  18.413  0.00  0.00    +0.000 NA
ATOM      8  C   UNL     1       1.396  10.311  18.497  0.00  0.00    +0.000 A 
ATOM      9  N   UNL     1       2.341   9.285  18.383  0.00  0.00    +0.000 N 
ATOM     10  N   UNL     1       1.906  11.544  18.683  0.00  0.00    +0.000 NA
ATOM     11  C   UNL     1       0.952  12.480  18.824  0.00  0.00    +0.000 A 
ATOM     12  H   UNL     1      -2.195   9.615  18.087  0.00  0.00    +0.000 HD
ATOM     13  H   UNL     1       3.270   9.680  18.398  0.00  0.00    +0.000 HD
ENDROOT
BRANCH   9  14
ATOM     14  C   UNL     1       2.248   7.915  18.687  0.00  0.00    +0.000 A 
ATOM     15  C   UNL     1       2.473   6.904  17.743  0.00  0.00    +0.000 A 
ATOM     16  C   UNL     1       2.413   5.552  18.092  0.00  0.00    +0.000 A 
ATOM     17  C   UNL     1       2.136   5.183  19.404  0.00  0.00    +0.000 A 
ATOM     18  C   UNL     1       1.930   6.167  20.365  0.00  0.00    +0.000 A 
ATOM     19  C   UNL     1       1.993   7.521  20.010  0.00  0.00    +0.000 A 
ENDBRANCH   9  14
BRANCH   1  22
ATOM     20  C4* UNL     1       2.852  16.811  19.178  0.00  0.00    +0.000 C 
ATOM     21  O4* UNL     1       2.132  15.785  19.903  0.00  0.00    +0.000 OA
ATOM     22  C1* UNL     1       2.375  14.500  19.271  0.00  0.00    +0.000 C 
ATOM     23  C2* UNL     1       3.148  14.755  17.977  0.00  0.00    +0.000 C 
ATOM     24  C3* UNL     1       3.841  16.075  18.284  0.00  0.00    +0.000 C 
BRANCH  23  25
ATOM     25  O2* UNL     1       4.105  13.736  17.681  0.00  0.00    +0.000 OA
ATOM     26  H2* UNL     1       4.020  13.553  16.722  0.00  0.00    +0.000 HD
ENDBRANCH  23  25
BRANCH  24  27
ATOM     27  O3* UNL     1       5.061  15.786  19.001  0.00  0.00    +0.000 OA
ATOM     28  H3* UNL     1       5.037  14.859  19.301  0.00  0.00    +0.000 HD
ENDBRANCH  24  27
BRANCH  20  29
ATOM     29  C5* UNL     1       1.874  17.711  18.414  0.00  0.00    +0.000 C 
BRANCH  29  30
ATOM     30  O5* UNL     1       2.295  17.911  17.070  0.00  0.00    +0.000 OA
ATOM     31  H5* UNL     1       3.222  17.612  17.010  0.00  0.00    +0.000 HD
ENDBRANCH  29  30
ENDBRANCH  20  29
ENDBRANCH   1  22
BRANCH   6  32
ATOM     32  C   UNL     1      -3.187  11.475  17.958  0.00  0.00    +0.000 C 
ATOM     33  C   UNL     1      -4.093  10.847  16.903  0.00  0.00    +0.000 C 
ATOM     34  C   UNL     1      -5.328  11.733  16.913  0.00  0.00    +0.000 C 
ATOM     35  C   UNL     1      -5.484  12.197  18.357  0.00  0.00    +0.000 C 
ATOM     36  C   UNL     1      -4.171  11.865  19.065  0.00  0.00    +0.000 C 
ENDBRANCH   6  32
TORSDOF 7
ENDMDL
MODEL 3
REMARK VINA RESULT:      -6.5      4.170      7.249
REMARK  Name = 
REMARK  7 active torsions:
REMARK  status: ('A' for Active; 'I' for Inactive)
REMARK    1  A    between atoms: O5*_1  and  C5*_2
REMARK    2  A    between atoms: C5*_2  and  C4*_3
REMARK    3  A    between atoms: C1*_5  and  N_6
REMARK    4  A    between atoms: N_11  and  C_12
REMARK    5  A    between atoms: N_19  and  C_20
REMARK    6  A    between atoms: C2*_28  and  O2*_29
REMARK    7  A    between atoms: C3*_30  and  O3*_31
REMARK                            x       y       z     vdW  Elec       q    Type
REMARK                         _______ _______ _______ _____ _____    ______ ____
ROOT
ATOM      1  N   UNL     1      -2.167  13.230  22.692  0.00  0.00    +0.000 N 
ATOM      2  C   UNL     1      -1.821  14.550  22.748  0.00  0.00    +0.000 A 
ATOM      3  N   UNL     1      -0.611  14.762  22.288  0.00  0.00    +0.000 NA
ATOM      4  C   UNL     1      -0.155  13.520  21.900  0.00  0.00    +0.000 A 
ATOM      5  C   UNL     1       1.044  13.085  21.314  0.00  0.00    +0.000 A 
ATOM      6  N   UNL     1       2.129  13.883  20.949  0.00  0.00    +0.000 N 
ATOM      7  N   UNL     1       1.165  11.761  21.052  0.00  0.00    +0.000 NA
ATOM      8  C   UNL     1       0.164  10.897  21.334  0.00  0.00    +0.000 A 
ATOM      9  N   UNL     1       0.311   9.541  21.019  0.00  0.00    +0.000 N 
ATOM     10  N   UNL     1      -1.005  11.228  21.916  0.00  0.00    +0.000 NA
ATOM     11  C   UNL     1      -1.104  12.546  22.159  0.00  0.00    +0.000 A 
ATOM     12  H   UNL     1       2.921  13.271  20.770  0.00  0.00    +0.000 HD
ATOM     13  H   UNL     1      -0.490   9.028  21.356  0.00  0.00    +0.000 HD
ENDROOT
BRANCH   9  14
ATOM     14  C   UNL     1       1.073   8.910  20.019  0.00  0.00    +0.000 A 
ATOM     15  C   UNL     1       1.242   9.444  18.734  0.00  0.00    +0.000 A 
ATOM     16  C   UNL     1       2.042   8.809  17.780  0.00  0.00    +0.000 A 
ATOM     17  C   UNL     1       2.700   7.626  18.098  0.00  0.00    +0.000 A 
ATOM     18  C   UNL     1       2.565   7.086  19.373  0.00  0.00    +0.000 A 
ATOM     19  C   UNL     1       1.764   7.728  20.326  0.00  0.00    +0.000 A 
ENDBRANCH   9  14
BRANCH   1  22
ATOM     20  C4* UNL     1      -5.554  12.883  22.059  0.00  0.00    +0.000 C 
ATOM     21  O4* UNL     1      -4.216  12.361  21.888  0.00  0.00    +0.000 OA
ATOM     22  C1* UNL     1      -3.438  12.652  23.081  0.00  0.00    +0.000 C 
ATOM     23  C2* UNL     1      -4.281  13.557  23.977  0.00  0.00    +0.000 C 
ATOM     24  C3* UNL     1      -5.694  13.197  23.543  0.00  0.00    +0.000 C 
BRANCH  23  25
ATOM     25  O2* UNL     1      -4.098  13.300  25.371  0.00  0.00    +0.000 OA
ATOM     26  H2* UNL     1      -4.960  13.486  25.799  0.00  0.00    +0.000 HD
ENDBRANCH  23  25
BRANCH  24  27
ATOM     27  O3* UNL     1      -6.105  12.023  24.277  0.00  0.00    +0.000 OA
ATOM     28  H3* UNL     1      -5.375  11.746  24.861  0.00  0.00    +0.000 HD
ENDBRANCH  24  27
BRANCH  20  29
ATOM     29  C5* UNL     1      -5.777  14.093  21.144  0.00  0.00    +0.000 C 
BRANCH  29  30
ATOM     30  O5* UNL     1      -4.692  14.267  20.241  0.00  0.00    +0.000 OA
ATOM     31  H5* UNL     1      -4.141  13.464  20.294  0.00  0.00    +0.000 HD
ENDBRANCH  29  30
ENDBRANCH  20  29
ENDBRANCH   1  22
BRANCH   6  32
ATOM     32  C   UNL     1       2.400  15.080  21.727  0.00  0.00    +0.000 C 
ATOM     33  C   UNL     1       3.793  15.087  22.352  0.00  0.00    +0.000 C 
ATOM     34  C   UNL     1       4.062  16.559  22.617  0.00  0.00    +0.000 C 
ATOM     35  C   UNL     1       3.362  17.310  21.491  0.00  0.00    +0.000 C 
ATOM     36  C   UNL     1       2.430  16.307  20.812  0.00  0.00    +0.000 C 
ENDBRANCH   6  32
TORSDOF 7
ENDMDL
MODEL 4
REMARK VINA RESULT:      -6.5      4.425      7.193
REMARK  Name = 
REMARK  7 active torsions:
REMARK  status: ('A' for Active; 'I' for Inactive)
REMARK    1  A    between atoms: O5*_1  and  C5*_2
REMARK    2  A    between atoms: C5*_2  and  C4*_3
REMARK    3  A    between atoms: C1*_5  and  N_6
REMARK    4  A    between atoms: N_11  and  C_12
REMARK    5  A    between atoms: N_19  and  C_20
REMARK    6  A    between atoms: C2*_28  and  O2*_29
REMARK    7  A    between atoms: C3*_30  and  O3*_31
REMARK                            x       y       z     vdW  Elec       q    Type
REMARK                         _______ _______ _______ _____ _____    ______ ____
ROOT
ATOM      1  N   UNL     1      -3.308  13.359  21.805  0.00  0.00    +0.000 N 
ATOM      2  C   UNL     1      -3.407  14.648  21.367  0.00  0.00    +0.000 A 
ATOM      3  N   UNL     1      -2.385  14.994  20.619  0.00  0.00    +0.000 NA
ATOM      4  C   UNL     1      -1.592  13.868  20.557  0.00  0.00    +0.000 A 
ATOM      5  C   UNL     1      -0.384  13.589  19.900  0.00  0.00    +0.000 A 
ATOM      6  N   UNL     1       0.339  14.458  19.082  0.00  0.00    +0.000 N 
ATOM      7  N   UNL     1       0.134  12.345  20.051  0.00  0.00    +0.000 NA
ATOM      8  C   UNL     1      -0.497  11.410  20.796  0.00  0.00    +0.000 A 
ATOM      9  N   UNL     1       0.051  10.126  20.902  0.00  0.00    +0.000 N 
ATOM     10  N   UNL     1      -1.644  11.604  21.476  0.00  0.00    +0.000 NA
ATOM     11  C   UNL     1      -2.141  12.840  21.305  0.00  0.00    +0.000 A 
ATOM     12  H   UNL     1       1.264  14.060  18.944  0.00  0.00    +0.000 HD
ATOM     13  H   UNL     1      -0.501   9.577  21.544  0.00  0.00    +0.000 HD
ENDROOT
BRANCH   9  14
ATOM     14  C   UNL     1       0.869   9.403  20.016  0.00  0.00    +0.000 A 
ATOM     15  C   UNL     1       1.539   8.226  20.379  0.00  0.00    +0.000 A 
ATOM     16  C   UNL     1       2.309   7.511  19.458  0.00  0.00    +0.000 A 
ATOM     17  C   UNL     1       2.416   7.956  18.145  0.00  0.00    +0.000 A 
ATOM     18  C   UNL     1       1.744   9.109  17.753  0.00  0.00    +0.000 A 
ATOM     19  C   UNL     1       0.971   9.820  18.680  0.00  0.00    +0.000 A 
ENDBRANCH   9  14
BRANCH   1  22
ATOM     20  C4* UNL     1      -6.633  12.669  22.487  0.00  0.00    +0.000 C 
ATOM     21  O4* UNL     1      -5.420  12.293  21.793  0.00  0.00    +0.000 OA
ATOM     22  C1* UNL     1      -4.275  12.644  22.615  0.00  0.00    +0.000 C 
ATOM     23  C2* UNL     1      -4.788  13.442  23.813  0.00  0.00    +0.000 C 
ATOM     24  C3* UNL     1      -6.221  12.943  23.928  0.00  0.00    +0.000 C 
BRANCH  23  25
ATOM     25  O2* UNL     1      -4.062  13.183  25.016  0.00  0.00    +0.000 OA
ATOM     26  H2* UNL     1      -4.228  12.243  25.238  0.00  0.00    +0.000 HD
ENDBRANCH  23  25
BRANCH  24  27
ATOM     27  O3* UNL     1      -6.211  11.720  24.697  0.00  0.00    +0.000 OA
ATOM     28  H3* UNL     1      -5.572  11.814  25.427  0.00  0.00    +0.000 HD
ENDBRANCH  24  27
BRANCH  20  29
ATOM     29  C5* UNL     1      -7.298  13.863  21.793  0.00  0.00    +0.000 C 
BRANCH  29  30
ATOM     30  O5* UNL     1      -7.551  13.591  20.420  0.00  0.00    +0.000 OA
ATOM     31  H5* UNL     1      -7.018  12.810  20.178  0.00  0.00    +0.000 HD
ENDBRANCH  29  30
ENDBRANCH  20  29
ENDBRANCH   1  22
BRANCH   6  32
ATOM     32  C   UNL     1       0.284  15.882  19.367  0.00  0.00    +0.000 C 
ATOM     33  C   UNL     1       1.663  16.526  19.475  0.00  0.00    +0.000 C 
ATOM     34  C   UNL     1       1.395  18.000  19.220  0.00  0.00    +0.000 C 
ATOM     35  C   UNL     1       0.243  18.037  18.223  0.00  0.00    +0.000 C 
ATOM     36  C   UNL     1      -0.351  16.630  18.190  0.00  0.00    +0.000 C 
ENDBRANCH   6  32
TORSDOF 7
ENDMDL
MODEL 5
REMARK VINA RESULT:      -6.4      1.642      5.880
REMARK  Name = 
REMARK  7 active torsions:
REMARK  status: ('A' for Active; 'I' for Inactive)
REMARK    1  A    between atoms: O5*_1  and  C5*_2
REMARK    2  A    between atoms: C5*_2  and  C4*_3
REMARK    3  A    between atoms: C1*_5  and  N_6
REMARK    4  A    between atoms: N_11  and  C_12
REMARK    5  A    between atoms: N_19  and  C_20
REMARK    6  A    between atoms: C2*_28  and  O2*_29
REMARK    7  A    between atoms: C3*_30  and  O3*_31
REMARK                            x       y       z     vdW  Elec       q    Type
REMARK                         _______ _______ _______ _____ _____    ______ ____
ROOT
ATOM      1  N   UNL     1       1.707  13.979  18.601  0.00  0.00    +0.000 N 
ATOM      2  C   UNL     1       2.659  13.077  18.219  0.00  0.00    +0.000 A 
ATOM      3  N   UNL     1       2.234  11.839  18.324  0.00  0.00    +0.000 NA
ATOM      4  C   UNL     1       0.938  11.946  18.783  0.00  0.00    +0.000 A 
ATOM      5  C   UNL     1      -0.051  10.993  19.071  0.00  0.00    +0.000 A 
ATOM      6  N   UNL     1       0.060   9.609  18.934  0.00  0.00    +0.000 N 
ATOM      7  N   UNL     1      -1.249  11.453  19.510  0.00  0.00    +0.000 NA
ATOM      8  C   UNL     1      -1.481  12.777  19.651  0.00  0.00    +0.000 A 
ATOM      9  N   UNL     1      -2.741  13.216  20.075  0.00  0.00    +0.000 N 
ATOM     10  N   UNL     1      -0.581  13.752  19.419  0.00  0.00    +0.000 NA
ATOM     11  C   UNL     1       0.595  13.272  18.979  0.00  0.00    +0.000 A 
ATOM     12  H   UNL     1      -0.718   9.183  19.428  0.00  0.00    +0.000 HD
ATOM     13  H   UNL     1      -2.726  14.218  20.195  0.00  0.00    +0.000 HD
ENDROOT
BRANCH   9  14
ATOM     14  C   UNL     1      -4.012  12.631  19.931  0.00  0.00    +0.000 A 
ATOM     15  C   UNL     1      -4.397  11.905  18.795  0.00  0.00    +0.000 A 
ATOM     16  C   UNL     1      -5.654  11.302  18.706  0.00  0.00    +0.000 A 
ATOM     17  C   UNL     1      -6.553  11.404  19.763  0.00  0.00    +0.000 A 
ATOM     18  C   UNL     1      -6.188  12.101  20.910  0.00  0.00    +0.000 A 
ATOM     19  C   UNL     1      -4.925  12.702  20.994  0.00  0.00    +0.000 A 
ENDBRANCH   9  14
BRANCH   1  22
ATOM     20  C4* UNL     1       3.772  16.756  18.451  0.00  0.00    +0.000 C 
ATOM     21  O4* UNL     1       2.956  15.796  17.740  0.00  0.00    +0.000 OA
ATOM     22  C1* UNL     1       1.826  15.424  18.575  0.00  0.00    +0.000 C 
ATOM     23  C2* UNL     1       2.037  16.052  19.952  0.00  0.00    +0.000 C 
ATOM     24  C3* UNL     1       2.923  17.244  19.617  0.00  0.00    +0.000 C 
BRANCH  23  25
ATOM     25  O2* UNL     1       0.821  16.480  20.569  0.00  0.00    +0.000 OA
ATOM     26  H2* UNL     1       1.022  17.336  21.002  0.00  0.00    +0.000 HD
ENDBRANCH  23  25
BRANCH  24  27
ATOM     27  O3* UNL     1       2.070  18.336  19.207  0.00  0.00    +0.000 OA
ATOM     28  H3* UNL     1       1.563  18.645  19.980  0.00  0.00    +0.000 HD
ENDBRANCH  24  27
BRANCH  20  29
ATOM     29  C5* UNL     1       5.101  16.120  18.874  0.00  0.00    +0.000 C 
BRANCH  29  30
ATOM     30  O5* UNL     1       5.508  15.111  17.957  0.00  0.00    +0.000 OA
ATOM     31  H5* UNL     1       4.864  15.110  17.225  0.00  0.00    +0.000 HD
ENDBRANCH  29  30
ENDBRANCH  20  29
ENDBRANCH   1  22
BRANCH   6  32
ATOM     32  C   UNL     1       1.364   8.998  19.129  0.00  0.00    +0.000 C 
ATOM     33  C   UNL     1       1.335   7.820  20.099  0.00  0.00    +0.000 C 
ATOM     34  C   UNL     1       2.583   7.028  19.743  0.00  0.00    +0.000 C 
ATOM     35  C   UNL     1       2.764   7.207  18.241  0.00  0.00    +0.000 C 
ATOM     36  C   UNL     1       1.844   8.354  17.825  0.00  0.00    +0.000 C 
ENDBRANCH   6  32
TORSDOF 7
ENDMDL
MODEL 6
REMARK VINA RESULT:      -6.3      3.760      6.322
REMARK  Name = 
REMARK  7 active torsions:
REMARK  status: ('A' for Active; 'I' for Inactive)
REMARK    1  A    between atoms: O5*_1  and  C5*_2
REMARK    2  A    between atoms: C5*_2  and  C4*_3
REMARK    3  A    between atoms: C1*_5  and  N_6
REMARK    4  A    between atoms: N_11  and  C_12
REMARK    5  A    between atoms: N_19  and  C_20
REMARK    6  A    between atoms: C2*_28  and  O2*_29
REMARK    7  A    between atoms: C3*_30  and  O3*_31
REMARK                            x       y       z     vdW  Elec       q    Type
REMARK                         _______ _______ _______ _____ _____    ______ ____
ROOT
ATOM      1  N   UNL     1      -1.810  13.477  21.126  0.00  0.00    +0.000 N 
ATOM      2  C   UNL     1      -1.628  14.728  20.610  0.00  0.00    +0.000 A 
ATOM      3  N   UNL     1      -0.539  14.805  19.881  0.00  0.00    +0.000 NA
ATOM      4  C   UNL     1       0.003  13.538  19.915  0.00  0.00    +0.000 A 
ATOM      5  C   UNL     1       1.142  12.973  19.320  0.00  0.00    +0.000 A 
ATOM      6  N   UNL     1       2.049  13.618  18.479  0.00  0.00    +0.000 N 
ATOM      7  N   UNL     1       1.385  11.661  19.563  0.00  0.00    +0.000 NA
ATOM      8  C   UNL     1       0.555  10.927  20.338  0.00  0.00    +0.000 A 
ATOM      9  N   UNL     1       0.821   9.568  20.539  0.00  0.00    +0.000 N 
ATOM     10  N   UNL     1      -0.542  11.398  20.962  0.00  0.00    +0.000 NA
ATOM     11  C   UNL     1      -0.766  12.697  20.701  0.00  0.00    +0.000 A 
ATOM     12  H   UNL     1       2.873  13.029  18.399  0.00  0.00    +0.000 HD
ATOM     13  H   UNL     1       0.151   9.188  21.192  0.00  0.00    +0.000 HD
ENDROOT
BRANCH   9  14
ATOM     14  C   UNL     1       1.491   8.635  19.728  0.00  0.00    +0.000 A 
ATOM     15  C   UNL     1       1.841   8.890  18.395  0.00  0.00    +0.000 A 
ATOM     16  C   UNL     1       2.545   7.953  17.634  0.00  0.00    +0.000 A 
ATOM     17  C   UNL     1       2.924   6.740  18.197  0.00  0.00    +0.000 A 
ATOM     18  C   UNL     1       2.608   6.470  19.525  0.00  0.00    +0.000 A 
ATOM     19  C   UNL     1       1.904   7.414  20.284  0.00  0.00    +0.000 A 
ENDBRANCH   9  14
BRANCH   1  22
ATOM     20  C4* UNL     1      -4.275  14.278  23.424  0.00  0.00    +0.000 C 
ATOM     21  O4* UNL     1      -3.903  14.101  22.037  0.00  0.00    +0.000 OA
ATOM     22  C1* UNL     1      -2.924  13.032  21.941  0.00  0.00    +0.000 C 
ATOM     23  C2* UNL     1      -2.529  12.633  23.362  0.00  0.00    +0.000 C 
ATOM     24  C3* UNL     1      -3.762  13.043  24.154  0.00  0.00    +0.000 C 
BRANCH  23  25
ATOM     25  O2* UNL     1      -2.276  11.233  23.506  0.00  0.00    +0.000 OA
ATOM     26  H2* UNL     1      -2.075  11.089  24.454  0.00  0.00    +0.000 HD
ENDBRANCH  23  25
BRANCH  24  27
ATOM     27  O3* UNL     1      -4.725  11.968  24.078  0.00  0.00    +0.000 OA
ATOM     28  H3* UNL     1      -4.852  11.727  23.142  0.00  0.00    +0.000 HD
ENDBRANCH  24  27
BRANCH  20  29
ATOM     29  C5* UNL     1      -3.713  15.598  23.964  0.00  0.00    +0.000 C 
BRANCH  29  30
ATOM     30  O5* UNL     1      -4.563  16.154  24.960  0.00  0.00    +0.000 OA
ATOM     31  H5* UNL     1      -4.159  16.994  25.248  0.00  0.00    +0.000 HD
ENDBRANCH  29  30
ENDBRANCH  20  29
ENDBRANCH   1  22
BRANCH   6  32
ATOM     32  C   UNL     1       2.285  15.038  18.677  0.00  0.00    +0.000 C 
ATOM     33  C   UNL     1       3.101  15.342  19.931  0.00  0.00    +0.000 C 
ATOM     34  C   UNL     1       3.680  16.721  19.660  0.00  0.00    +0.000 C 
ATOM     35  C   UNL     1       3.921  16.773  18.156  0.00  0.00    +0.000 C 
ATOM     36  C   UNL     1       3.169  15.587  17.553  0.00  0.00    +0.000 C 
ENDBRANCH   6  32
TORSDOF 7
ENDMDL
MODEL 7
REMARK VINA RESULT:      -6.3      5.338      9.162
REMARK  Name = 
REMARK  7 active torsions:
REMARK  status: ('A' for Active; 'I' for Inactive)
REMARK    1  A    between atoms: O5*_1  and  C5*_2
REMARK    2  A    between atoms: C5*_2  and  C4*_3
REMARK    3  A    between atoms: C1*_5  and  N_6
REMARK    4  A    between atoms: N_11  and  C_12
REMARK    5  A    between atoms: N_19  and  C_20
REMARK    6  A    between atoms: C2*_28  and  O2*_29
REMARK    7  A    between atoms: C3*_30  and  O3*_31
REMARK                            x       y       z     vdW  Elec       q    Type
REMARK                         _______ _______ _______ _____ _____    ______ ____
ROOT
ATOM      1  N   UNL     1       8.611  14.701  19.409  0.00  0.00    +0.000 N 
ATOM      2  C   UNL     1       9.261  14.336  20.553  0.00  0.00    +0.000 A 
ATOM      3  N   UNL     1       8.436  14.187  21.563  0.00  0.00    +0.000 NA
ATOM      4  C   UNL     1       7.187  14.456  21.044  0.00  0.00    +0.000 A 
ATOM      5  C   UNL     1       5.900  14.445  21.604  0.00  0.00    +0.000 A 
ATOM      6  N   UNL     1       5.567  14.119  22.919  0.00  0.00    +0.000 N 
ATOM      7  N   UNL     1       4.864  14.763  20.790  0.00  0.00    +0.000 NA
ATOM      8  C   UNL     1       5.064  15.066  19.487  0.00  0.00    +0.000 A 
ATOM      9  N   UNL     1       3.966  15.356  18.669  0.00  0.00    +0.000 N 
ATOM     10  N   UNL     1       6.265  15.121  18.880  0.00  0.00    +0.000 NA
ATOM     11  C   UNL     1       7.275  14.796  19.705  0.00  0.00    +0.000 A 
ATOM     12  H   UNL     1       4.611  14.421  23.083  0.00  0.00    +0.000 HD
ATOM     13  H   UNL     1       4.292  15.626  17.752  0.00  0.00    +0.000 HD
ENDROOT
BRANCH   9  14
ATOM     14  C   UNL     1       2.627  14.935  18.748  0.00  0.00    +0.000 A 
ATOM     15  C   UNL     1       1.566  15.805  19.033  0.00  0.00    +0.000 A 
ATOM     16  C   UNL     1       0.242  15.358  19.061  0.00  0.00    +0.000 A 
ATOM     17  C   UNL     1      -0.049  14.025  18.793  0.00  0.00    +0.000 A 
ATOM     18  C   UNL     1       0.984  13.145  18.487  0.00  0.00    +0.000 A 
ATOM     19  C   UNL     1       2.309  13.599  18.458  0.00  0.00    +0.000 A 
ENDBRANCH   9  14
BRANCH   1  22
ATOM     20  C4* UNL     1      11.007  13.768  17.089  0.00  0.00    +0.000 C 
ATOM     21  O4* UNL     1       9.649  13.635  17.570  0.00  0.00    +0.000 OA
ATOM     22  C1* UNL     1       9.207  14.912  18.105  0.00  0.00    +0.000 C 
ATOM     23  C2* UNL     1      10.412  15.852  18.120  0.00  0.00    +0.000 C 
ATOM     24  C3* UNL     1      11.278  15.265  17.015  0.00  0.00    +0.000 C 
BRANCH  23  25
ATOM     25  O2* UNL     1      10.072  17.210  17.833  0.00  0.00    +0.000 OA
ATOM     26  H2* UNL     1       9.399  17.468  18.497  0.00  0.00    +0.000 HD
ENDBRANCH  23  25
BRANCH  24  27
ATOM     27  O3* UNL     1      10.824  15.805  15.754  0.00  0.00    +0.000 OA
ATOM     28  H3* UNL     1      10.307  16.613  15.926  0.00  0.00    +0.000 HD
ENDBRANCH  24  27
BRANCH  20  29
ATOM     29  C5* UNL     1      11.975  13.006  18.001  0.00  0.00    +0.000 C 
BRANCH  29  30
ATOM     30  O5* UNL     1      12.104  11.647  17.599  0.00  0.00    +0.000 OA
ATOM     31  H5* UNL     1      11.314  11.174  17.922  0.00  0.00    +0.000 HD
ENDBRANCH  29  30
ENDBRANCH  20  29
ENDBRANCH   1  22
BRANCH   6  32
ATOM     32  C   UNL     1       6.528  14.414  23.969  0.00  0.00    +0.000 C 
ATOM     33  C   UNL     1       5.937  15.240  25.108  0.00  0.00    +0.000 C 
ATOM     34  C   UNL     1       6.871  14.965  26.276  0.00  0.00    +0.000 C 
ATOM     35  C   UNL     1       7.339  13.526  26.093  0.00  0.00    +0.000 C 
ATOM     36  C   UNL     1       6.955  13.121  24.670  0.00  0.00    +0.000 C 
ENDBRANCH   6  32
TORSDOF 7
ENDMDL
MODEL 8
REMARK VINA RESULT:      -6.3      4.236      7.012
REMARK  Name = 
REMARK  7 active torsions:
REMARK  status: ('A' for Active; 'I' for Inactive)
REMARK    1  A    between atoms: O5*_1  and  C5*_2
REMARK    2  A    between atoms: C5*_2  and  C4*_3
REMARK    3  A    between atoms: C1*_5  and  N_6
REMARK    4  A    between atoms: N_11  and  C_12
REMARK    5  A    between atoms: N_19  and  C_20
REMARK    6  A    between atoms: C2*_28  and  O2*_29
REMARK    7  A    between atoms: C3*_30  and  O3*_31
REMARK                            x       y       z     vdW  Elec       q    Type
REMARK                         _______ _______ _______ _____ _____    ______ ____
ROOT
ATOM      1  N   UNL     1      -2.683  13.321  22.037  0.00  0.00    +0.000 N 
ATOM      2  C   UNL     1      -2.609  14.650  21.730  0.00  0.00    +0.000 A 
ATOM      3  N   UNL     1      -1.529  14.936  21.040  0.00  0.00    +0.000 NA
ATOM      4  C   UNL     1      -0.880  13.731  20.880  0.00  0.00    +0.000 A 
ATOM      5  C   UNL     1       0.305  13.368  20.220  0.00  0.00    +0.000 A 
ATOM      6  N   UNL     1       1.155  14.215  19.508  0.00  0.00    +0.000 N 
ATOM      7  N   UNL     1       0.661  12.060  20.255  0.00  0.00    +0.000 NA
ATOM      8  C   UNL     1      -0.103  11.143  20.890  0.00  0.00    +0.000 A 
ATOM      9  N   UNL     1       0.279   9.797  20.876  0.00  0.00    +0.000 N 
ATOM     10  N   UNL     1      -1.238  11.412  21.564  0.00  0.00    +0.000 NA
ATOM     11  C   UNL     1      -1.574  12.712  21.509  0.00  0.00    +0.000 A 
ATOM     12  H   UNL     1       2.027  13.719  19.347  0.00  0.00    +0.000 HD
ATOM     13  H   UNL     1      -0.356   9.261  21.449  0.00  0.00    +0.000 HD
ENDROOT
BRANCH   9  14
ATOM     14  C   UNL     1       1.029   9.066  19.937  0.00  0.00    +0.000 A 
ATOM     15  C   UNL     1       1.246   9.502  18.623  0.00  0.00    +0.000 A 
ATOM     16  C   UNL     1       2.033   8.769  17.731  0.00  0.00    +0.000 A 
ATOM     17  C   UNL     1       2.632   7.584  18.142  0.00  0.00    +0.000 A 
ATOM     18  C   UNL     1       2.450   7.139  19.448  0.00  0.00    +0.000 A 
ATOM     19  C   UNL     1       1.661   7.879  20.338  0.00  0.00    +0.000 A 
ENDBRANCH   9  14
BRANCH   1  22
ATOM     20  C4* UNL     1      -6.079  12.711  22.337  0.00  0.00    +0.000 C 
ATOM     21  O4* UNL     1      -4.799  12.287  21.813  0.00  0.00    +0.000 OA
ATOM     22  C1* UNL     1      -3.755  12.658  22.753  0.00  0.00    +0.000 C 
ATOM     23  C2* UNL     1      -4.394  13.517  23.843  0.00  0.00    +0.000 C 
ATOM     24  C3* UNL     1      -5.840  13.044  23.804  0.00  0.00    +0.000 C 
BRANCH  23  25
ATOM     25  O2* UNL     1      -3.825  13.302  25.137  0.00  0.00    +0.000 OA
ATOM     26  H2* UNL     1      -3.283  14.095  25.331  0.00  0.00    +0.000 HD
ENDBRANCH  23  25
BRANCH  24  27
ATOM     27  O3* UNL     1      -5.948  11.857  24.620  0.00  0.00    +0.000 OA
ATOM     28  H3* UNL     1      -6.784  11.404  24.407  0.00  0.00    +0.000 HD
ENDBRANCH  24  27
BRANCH  20  29
ATOM     29  C5* UNL     1      -6.631  13.883  21.516  0.00  0.00    +0.000 C 
BRANCH  29  30
ATOM     30  O5* UNL     1      -5.856  14.106  20.344  0.00  0.00    +0.000 OA
ATOM     31  H5* UNL     1      -5.479  15.004  20.414  0.00  0.00    +0.000 HD
ENDBRANCH  29  30
ENDBRANCH  20  29
ENDBRANCH   1  22
BRANCH   6  32
ATOM     32  C   UNL     1       1.266  15.600  19.933  0.00  0.00    +0.000 C 
ATOM     33  C   UNL     1       2.705  16.030  20.204  0.00  0.00    +0.000 C 
ATOM     34  C   UNL     1       2.658  17.545  20.085  0.00  0.00    +0.000 C 
ATOM     35  C   UNL     1       1.609  17.836  19.018  0.00  0.00    +0.000 C 
ATOM     36  C   UNL     1       0.838  16.535  18.799  0.00  0.00    +0.000 C 
ENDBRANCH   6  32
TORSDOF 7
ENDMDL
MODEL 9
REMARK VINA RESULT:      -6.3      6.977      9.984
REMARK  Name = 
REMARK  7 active torsions:
REMARK  status: ('A' for Active; 'I' for Inactive)
REMARK    1  A    between atoms: O5*_1  and  C5*_2
REMARK    2  A    between atoms: C5*_2  and  C4*_3
REMARK    3  A    between atoms: C1*_5  and  N_6
REMARK    4  A    between atoms: N_11  and  C_12
REMARK    5  A    between atoms: N_19  and  C_20
REMARK    6  A    between atoms: C2*_28  and  O2*_29
REMARK    7  A    between atoms: C3*_30  and  O3*_31
REMARK                            x       y       z     vdW  Elec       q    Type
REMARK                         _______ _______ _______ _____ _____    ______ ____
ROOT
ATOM      1  N   UNL     1      10.178  12.995  20.124  0.00  0.00    +0.000 N 
ATOM      2  C   UNL     1      10.366  12.191  21.212  0.00  0.00    +0.000 A 
ATOM      3  N   UNL     1       9.369  12.271  22.061  0.00  0.00    +0.000 NA
ATOM      4  C   UNL     1       8.484  13.159  21.488  0.00  0.00    +0.000 A 
ATOM      5  C   UNL     1       7.227  13.643  21.886  0.00  0.00    +0.000 A 
ATOM      6  N   UNL     1       6.528  13.292  23.042  0.00  0.00    +0.000 N 
ATOM      7  N   UNL     1       6.611  14.526  21.063  0.00  0.00    +0.000 NA
ATOM      8  C   UNL     1       7.181  14.914  19.900  0.00  0.00    +0.000 A 
ATOM      9  N   UNL     1       6.499  15.802  19.060  0.00  0.00    +0.000 N 
ATOM     10  N   UNL     1       8.390  14.516  19.458  0.00  0.00    +0.000 NA
ATOM     11  C   UNL     1       8.977  13.637  20.287  0.00  0.00    +0.000 A 
ATOM     12  H   UNL     1       5.777  13.964  23.168  0.00  0.00    +0.000 HD
ATOM     13  H   UNL     1       7.088  16.041  18.275  0.00  0.00    +0.000 HD
ENDROOT
BRANCH   9  14
ATOM     14  C   UNL     1       5.122  16.030  18.890  0.00  0.00    +0.000 A 
ATOM     15  C   UNL     1       4.392  16.931  19.677  0.00  0.00    +0.000 A 
ATOM     16  C   UNL     1       3.033  17.162  19.451  0.00  0.00    +0.000 A 
ATOM     17  C   UNL     1       2.375  16.501  18.419  0.00  0.00    +0.000 A 
ATOM     18  C   UNL     1       3.082  15.617  17.610  0.00  0.00    +0.000 A 
ATOM     19  C   UNL     1       4.445  15.391  17.840  0.00  0.00    +0.000 A 
ENDBRANCH   9  14
BRANCH   1  22
ATOM     20  C4* UNL     1      11.439  14.996  17.594  0.00  0.00    +0.000 C 
ATOM     21  O4* UNL     1      11.591  14.474  18.935  0.00  0.00    +0.000 OA
ATOM     22  C1* UNL     1      11.060  13.123  18.981  0.00  0.00    +0.000 C 
ATOM     23  C2* UNL     1      10.380  12.844  17.641  0.00  0.00    +0.000 C 
ATOM     24  C3* UNL     1      11.119  13.796  16.712  0.00  0.00    +0.000 C 
BRANCH  23  25
ATOM     25  O2* UNL     1      10.527  11.491  17.204  0.00  0.00    +0.000 OA
ATOM     26  H2* UNL     1      10.212  11.468  16.276  0.00  0.00    +0.000 HD
ENDBRANCH  23  25
BRANCH  24  27
ATOM     27  O3* UNL     1      12.333  13.146  16.276  0.00  0.00    +0.000 OA
ATOM     28  H3* UNL     1      12.283  13.003  15.313  0.00  0.00    +0.000 HD
ENDBRANCH  24  27
BRANCH  20  29
ATOM     29  C5* UNL     1      10.366  16.091  17.565  0.00  0.00    +0.000 C 
BRANCH  29  30
ATOM     30  O5* UNL     1       9.152  15.614  16.997  0.00  0.00    +0.000 OA
ATOM     31  H5* UNL     1       8.674  16.387  16.645  0.00  0.00    +0.000 HD
ENDBRANCH  29  30
ENDBRANCH  20  29
ENDBRANCH   1  22
BRANCH   6  32
ATOM     32  C   UNL     1       7.288  12.940  24.230  0.00  0.00    +0.000 C 
ATOM     33  C   UNL     1       7.260  14.025  25.303  0.00  0.00    +0.000 C 
ATOM     34  C   UNL     1       7.602  13.278  26.582  0.00  0.00    +0.000 C 
ATOM     35  C   UNL     1       7.002  11.887  26.413  0.00  0.00    +0.000 C 
ATOM     36  C   UNL     1       6.640  11.746  24.935  0.00  0.00    +0.000 C 
ENDBRANCH   6  32
TORSDOF 7
ENDMDL
