MODEL 1
REMARK VINA RESULT:      -6.9      0.000      0.000
REMARK  Name = 
REMARK  8 active torsions:
REMARK  status: ('A' for Active; 'I' for Inactive)
REMARK    1  A    between atoms: C_1  and  N_2
REMARK    2  A    between atoms: N_2  and  C_3
REMARK    3  A    between atoms: N_2  and  C_4
REMARK    4  A    between atoms: C_4  and  C_5
REMARK    5  A    between atoms: C_5  and  C_6
REMARK    6  A    between atoms: C_6  and  N_7
REMARK    7  A    between atoms: C_9  and  C_10
REMARK    8  A    between atoms: C_23  and  C_24
REMARK                            x       y       z     vdW  Elec       q    Type
REMARK                         _______ _______ _______ _____ _____    ______ ____
ROOT
ATOM      1  C   UNL     1       0.729   9.718  19.678  0.00  0.00    +0.000 A 
ATOM      2  C   UNL     1      -0.252   9.962  18.675  0.00  0.00    +0.000 A 
ATOM      3  C   UNL     1      -0.587  11.271  18.319  0.00  0.00    +0.000 A 
ATOM      4  C   UNL     1      -0.072  12.264  19.115  0.00  0.00    +0.000 A 
ATOM      5  C   UNL     1       0.360  11.957  20.417  0.00  0.00    +0.000 A 
ATOM      6  C   UNL     1       0.962  10.729  20.626  0.00  0.00    +0.000 A 
ATOM      7  C   UNL     1       0.713  13.236  21.082  0.00  0.00    +0.000 C 
ATOM      8  O   UNL     1       0.650  13.523  22.258  0.00  0.00    +0.000 OA
ATOM      9  C   UNL     1       1.113  14.061  19.966  0.00  0.00    +0.000 A 
ATOM     10  C   UNL     1       0.578  13.551  18.787  0.00  0.00    +0.000 A 
ATOM     11  N   UNL     1       1.515  13.835  17.803  0.00  0.00    +0.000 N 
ATOM     12  C   UNL     1       2.540  14.625  18.355  0.00  0.00    +0.000 A 
ATOM     13  C   UNL     1       3.763  15.041  17.802  0.00  0.00    +0.000 A 
ATOM     14  C   UNL     1       4.881  15.029  18.649  0.00  0.00    +0.000 A 
ATOM     15  C   UNL     1       4.710  15.074  20.030  0.00  0.00    +0.000 A 
ATOM     16  C   UNL     1       3.423  15.022  20.579  0.00  0.00    +0.000 A 
ATOM     17  C   UNL     1       2.350  14.683  19.733  0.00  0.00    +0.000 A 
ATOM     18  H   UNL     1       1.660  13.277  16.970  0.00  0.00    +0.000 HD
ENDROOT
BRANCH   1  21
ATOM     19  N   UNL     1       2.730   6.880  18.675  0.00  0.00    +0.000 N 
ATOM     20  C   UNL     1       2.171   8.102  18.404  0.00  0.00    +0.000 A 
ATOM     21  C   UNL     1       1.576   8.546  19.554  0.00  0.00    +0.000 A 
ATOM     22  C   UNL     1       1.770   7.467  20.448  0.00  0.00    +0.000 A 
ATOM     23  N   UNL     1       2.486   6.461  19.942  0.00  0.00    +0.000 NA
BRANCH  19  24
ATOM     24  C   UNL     1       3.478   5.997  17.792  0.00  0.00    +0.000 C 
BRANCH  24  25
ATOM     25  C   UNL     1       4.991   6.062  17.959  0.00  0.00    +0.000 C 
BRANCH  25  26
ATOM     26  C   UNL     1       5.572   5.007  18.905  0.00  0.00    +0.000 C 
BRANCH  26  28
ATOM     27  C   UNL     1       7.311   4.597  17.247  0.00  0.00    +0.000 C 
ATOM     28  N   UNL     1       6.996   4.710  18.673  0.00  0.00    +0.000 NA
ATOM     29  C   UNL     1       7.817   5.773  19.268  0.00  0.00    +0.000 C 
ENDBRANCH  26  28
ENDBRANCH  25  26
ENDBRANCH  24  25
ENDBRANCH  19  24
ENDBRANCH   1  21
BRANCH  14  30
ATOM     30  C   UNL     1       6.179  14.752  18.087  0.00  0.00    +0.000 C 
ATOM     31  N   UNL     1       7.171  14.501  17.545  0.00  0.00    +0.000 NA
ENDBRANCH  14  30
TORSDOF 6
ENDMDL
MODEL 2
REMARK VINA RESULT:      -6.9      3.750      8.285
REMARK  Name = 
REMARK  8 active torsions:
REMARK  status: ('A' for Active; 'I' for Inactive)
REMARK    1  A    between atoms: C_1  and  N_2
REMARK    2  A    between atoms: N_2  and  C_3
REMARK    3  A    between atoms: N_2  and  C_4
REMARK    4  A    between atoms: C_4  and  C_5
REMARK    5  A    between atoms: C_5  and  C_6
REMARK    6  A    between atoms: C_6  and  N_7
REMARK    7  A    between atoms: C_9  and  C_10
REMARK    8  A    between atoms: C_23  and  C_24
REMARK                            x       y       z     vdW  Elec       q    Type
REMARK                         _______ _______ _______ _____ _____    ______ ____
ROOT
ATOM      1  C   UNL     1       1.790   6.039  19.906  0.00  0.00    +0.000 A 
ATOM      2  C   UNL     1       2.033   5.022  20.873  0.00  0.00    +0.000 A 
ATOM      3  C   UNL     1       3.127   4.163  20.732  0.00  0.00    +0.000 A 
ATOM      4  C   UNL     1       3.803   4.236  19.540  0.00  0.00    +0.000 A 
ATOM      5  C   UNL     1       3.168   4.787  18.414  0.00  0.00    +0.000 A 
ATOM      6  C   UNL     1       2.307   5.852  18.614  0.00  0.00    +0.000 A 
ATOM      7  C   UNL     1       4.071   4.591  17.253  0.00  0.00    +0.000 C 
ATOM      8  O   UNL     1       3.785   4.443  16.084  0.00  0.00    +0.000 OA
ATOM      9  C   UNL     1       5.374   4.583  17.876  0.00  0.00    +0.000 A 
ATOM     10  C   UNL     1       5.248   4.281  19.229  0.00  0.00    +0.000 A 
ATOM     11  N   UNL     1       6.260   4.990  19.862  0.00  0.00    +0.000 N 
ATOM     12  C   UNL     1       7.070   5.605  18.890  0.00  0.00    +0.000 A 
ATOM     13  C   UNL     1       8.119   6.529  19.036  0.00  0.00    +0.000 A 
ATOM     14  C   UNL     1       8.184   7.570  18.099  0.00  0.00    +0.000 A 
ATOM     15  C   UNL     1       7.571   7.429  16.856  0.00  0.00    +0.000 A 
ATOM     16  C   UNL     1       6.798   6.296  16.581  0.00  0.00    +0.000 A 
ATOM     17  C   UNL     1       6.462   5.441  17.649  0.00  0.00    +0.000 A 
ATOM     18  H   UNL     1       6.211   5.334  20.813  0.00  0.00    +0.000 HD
ENDROOT
BRANCH   1  21
ATOM     19  N   UNL     1       0.833   9.460  20.582  0.00  0.00    +0.000 N 
ATOM     20  C   UNL     1       1.404   8.519  19.764  0.00  0.00    +0.000 A 
ATOM     21  C   UNL     1       1.210   7.295  20.347  0.00  0.00    +0.000 A 
ATOM     22  C   UNL     1       0.572   7.622  21.566  0.00  0.00    +0.000 A 
ATOM     23  N   UNL     1       0.314   8.923  21.715  0.00  0.00    +0.000 NA
BRANCH  19  24
ATOM     24  C   UNL     1       0.763  10.902  20.410  0.00  0.00    +0.000 C 
BRANCH  24  25
ATOM     25  C   UNL     1       0.677  11.368  18.961  0.00  0.00    +0.000 C 
BRANCH  25  26
ATOM     26  C   UNL     1      -0.685  11.943  18.559  0.00  0.00    +0.000 C 
BRANCH  26  28
ATOM     27  C   UNL     1      -3.095  11.588  18.479  0.00  0.00    +0.000 C 
ATOM     28  N   UNL     1      -1.778  10.954  18.557  0.00  0.00    +0.000 NA
ATOM     29  C   UNL     1      -1.608  10.047  17.414  0.00  0.00    +0.000 C 
ENDBRANCH  26  28
ENDBRANCH  25  26
ENDBRANCH  24  25
ENDBRANCH  19  24
ENDBRANCH   1  21
BRANCH  14  30
ATOM     30  C   UNL     1       8.698   8.851  18.513  0.00  0.00    +0.000 C 
ATOM     31  N   UNL     1       9.054   9.868  18.936  0.00  0.00    +0.000 NA
ENDBRANCH  14  30
TORSDOF 6
ENDMDL
MODEL 3
REMARK VINA RESULT:      -6.8      1.224      1.593
REMARK  Name = 
REMARK  8 active torsions:
REMARK  status: ('A' for Active; 'I' for Inactive)
REMARK    1  A    between atoms: C_1  and  N_2
REMARK    2  A    between atoms: N_2  and  C_3
REMARK    3  A    between atoms: N_2  and  C_4
REMARK    4  A    between atoms: C_4  and  C_5
REMARK    5  A    between atoms: C_5  and  C_6
REMARK    6  A    between atoms: C_6  and  N_7
REMARK    7  A    between atoms: C_9  and  C_10
REMARK    8  A    between atoms: C_23  and  C_24
REMARK                            x       y       z     vdW  Elec       q    Type
REMARK                         _______ _______ _______ _____ _____    ______ ____
ROOT
ATOM      1  C   UNL     1       0.559   9.871  19.911  0.00  0.00    +0.000 A 
ATOM      2  C   UNL     1      -0.432  10.095  18.914  0.00  0.00    +0.000 A 
ATOM      3  C   UNL     1      -0.732  11.396  18.498  0.00  0.00    +0.000 A 
ATOM      4  C   UNL     1      -0.172  12.410  19.234  0.00  0.00    +0.000 A 
ATOM      5  C   UNL     1       0.272  12.154  20.543  0.00  0.00    +0.000 A 
ATOM      6  C   UNL     1       0.840  10.919  20.803  0.00  0.00    +0.000 A 
ATOM      7  C   UNL     1       0.677  13.452  21.138  0.00  0.00    +0.000 C 
ATOM      8  O   UNL     1       0.644  13.799  22.299  0.00  0.00    +0.000 OA
ATOM      9  C   UNL     1       1.083  14.208  19.975  0.00  0.00    +0.000 A 
ATOM     10  C   UNL     1       0.511  13.657  18.832  0.00  0.00    +0.000 A 
ATOM     11  N   UNL     1       1.439  13.862  17.820  0.00  0.00    +0.000 N 
ATOM     12  C   UNL     1       2.498  14.645  18.315  0.00  0.00    +0.000 A 
ATOM     13  C   UNL     1       3.723  14.994  17.722  0.00  0.00    +0.000 A 
ATOM     14  C   UNL     1       4.855  14.988  18.550  0.00  0.00    +0.000 A 
ATOM     15  C   UNL     1       4.710  15.107  19.931  0.00  0.00    +0.000 A 
ATOM     16  C   UNL     1       3.432  15.123  20.502  0.00  0.00    +0.000 A 
ATOM     17  C   UNL     1       2.334  14.778  19.691  0.00  0.00    +0.000 A 
ATOM     18  H   UNL     1       1.552  13.260  17.014  0.00  0.00    +0.000 HD
ENDROOT
BRANCH   1  21
ATOM     19  N   UNL     1       2.560   6.995  19.018  0.00  0.00    +0.000 N 
ATOM     20  C   UNL     1       2.092   8.255  18.746  0.00  0.00    +0.000 A 
ATOM     21  C   UNL     1       1.366   8.667  19.833  0.00  0.00    +0.000 A 
ATOM     22  C   UNL     1       1.395   7.535  20.680  0.00  0.00    +0.000 A 
ATOM     23  N   UNL     1       2.131   6.524  20.216  0.00  0.00    +0.000 NA
BRANCH  19  24
ATOM     24  C   UNL     1       3.382   6.126  18.191  0.00  0.00    +0.000 C 
BRANCH  24  25
ATOM     25  C   UNL     1       4.524   5.438  18.931  0.00  0.00    +0.000 C 
BRANCH  25  26
ATOM     26  C   UNL     1       4.605   3.924  18.707  0.00  0.00    +0.000 C 
BRANCH  26  28
ATOM     27  C   UNL     1       3.159   2.075  18.053  0.00  0.00    +0.000 C 
ATOM     28  N   UNL     1       3.339   3.212  18.957  0.00  0.00    +0.000 NA
ATOM     29  C   UNL     1       3.316   2.735  20.346  0.00  0.00    +0.000 C 
ENDBRANCH  26  28
ENDBRANCH  25  26
ENDBRANCH  24  25
ENDBRANCH  19  24
ENDBRANCH   1  21
BRANCH  14  30
ATOM     30  C   UNL     1       6.133  14.642  17.982  0.00  0.00    +0.000 C 
ATOM     31  N   UNL     1       7.198  14.361  17.625  0.00  0.00    +0.000 NA
ENDBRANCH  14  30
TORSDOF 6
ENDMDL
MODEL 4
REMARK VINA RESULT:      -6.8      0.904      1.258
REMARK  Name = 
REMARK  8 active torsions:
REMARK  status: ('A' for Active; 'I' for Inactive)
REMARK    1  A    between atoms: C_1  and  N_2
REMARK    2  A    between atoms: N_2  and  C_3
REMARK    3  A    between atoms: N_2  and  C_4
REMARK    4  A    between atoms: C_4  and  C_5
REMARK    5  A    between atoms: C_5  and  C_6
REMARK    6  A    between atoms: C_6  and  N_7
REMARK    7  A    between atoms: C_9  and  C_10
REMARK    8  A    between atoms: C_23  and  C_24
REMARK                            x       y       z     vdW  Elec       q    Type
REMARK                         _______ _______ _______ _____ _____    ______ ____
ROOT
ATOM      1  C   UNL     1       0.683   9.678  19.709  0.00  0.00    +0.000 A 
ATOM      2  C   UNL     1      -0.307   9.904  18.711  0.00  0.00    +0.000 A 
ATOM      3  C   UNL     1      -0.663  11.208  18.354  0.00  0.00    +0.000 A 
ATOM      4  C   UNL     1      -0.158  12.210  19.144  0.00  0.00    +0.000 A 
ATOM      5  C   UNL     1       0.285  11.913  20.444  0.00  0.00    +0.000 A 
ATOM      6  C   UNL     1       0.907  10.695  20.653  0.00  0.00    +0.000 A 
ATOM      7  C   UNL     1       0.623  13.198  21.105  0.00  0.00    +0.000 C 
ATOM      8  O   UNL     1       0.562  13.487  22.280  0.00  0.00    +0.000 OA
ATOM      9  C   UNL     1       1.004  14.026  19.984  0.00  0.00    +0.000 A 
ATOM     10  C   UNL     1       0.471  13.506  18.809  0.00  0.00    +0.000 A 
ATOM     11  N   UNL     1       1.398  13.801  17.819  0.00  0.00    +0.000 N 
ATOM     12  C   UNL     1       2.414  14.607  18.364  0.00  0.00    +0.000 A 
ATOM     13  C   UNL     1       3.627  15.040  17.803  0.00  0.00    +0.000 A 
ATOM     14  C   UNL     1       4.750  15.047  18.643  0.00  0.00    +0.000 A 
ATOM     15  C   UNL     1       4.586  15.093  20.026  0.00  0.00    +0.000 A 
ATOM     16  C   UNL     1       3.304  15.023  20.582  0.00  0.00    +0.000 A 
ATOM     17  C   UNL     1       2.230  14.667  19.743  0.00  0.00    +0.000 A 
ATOM     18  H   UNL     1       1.546  13.244  16.987  0.00  0.00    +0.000 HD
ENDROOT
BRANCH   1  21
ATOM     19  N   UNL     1       2.759   6.895  18.699  0.00  0.00    +0.000 N 
ATOM     20  C   UNL     1       2.202   8.122  18.447  0.00  0.00    +0.000 A 
ATOM     21  C   UNL     1       1.547   8.518  19.583  0.00  0.00    +0.000 A 
ATOM     22  C   UNL     1       1.708   7.408  20.445  0.00  0.00    +0.000 A 
ATOM     23  N   UNL     1       2.458   6.427  19.937  0.00  0.00    +0.000 NA
BRANCH  19  24
ATOM     24  C   UNL     1       3.557   6.053  17.822  0.00  0.00    +0.000 C 
BRANCH  24  25
ATOM     25  C   UNL     1       4.847   6.694  17.324  0.00  0.00    +0.000 C 
BRANCH  25  26
ATOM     26  C   UNL     1       5.170   6.412  15.853  0.00  0.00    +0.000 C 
BRANCH  26  28
ATOM     27  C   UNL     1       7.103   5.363  16.904  0.00  0.00    +0.000 C 
ATOM     28  N   UNL     1       6.453   5.719  15.641  0.00  0.00    +0.000 NA
ATOM     29  C   UNL     1       6.223   4.500  14.855  0.00  0.00    +0.000 C 
ENDBRANCH  26  28
ENDBRANCH  25  26
ENDBRANCH  24  25
ENDBRANCH  19  24
ENDBRANCH   1  21
BRANCH  14  30
ATOM     30  C   UNL     1       6.049  14.788  18.075  0.00  0.00    +0.000 C 
ATOM     31  N   UNL     1       7.090  14.680  17.581  0.00  0.00    +0.000 NA
ENDBRANCH  14  30
TORSDOF 6
ENDMDL
MODEL 5
REMARK VINA RESULT:      -6.7      4.173      6.689
REMARK  Name = 
REMARK  8 active torsions:
REMARK  status: ('A' for Active; 'I' for Inactive)
REMARK    1  A    between atoms: C_1  and  N_2
REMARK    2  A    between atoms: N_2  and  C_3
REMARK    3  A    between atoms: N_2  and  C_4
REMARK    4  A    between atoms: C_4  and  C_5
REMARK    5  A    between atoms: C_5  and  C_6
REMARK    6  A    between atoms: C_6  and  N_7
REMARK    7  A    between atoms: C_9  and  C_10
REMARK    8  A    between atoms: C_23  and  C_24
REMARK                            x       y       z     vdW  Elec       q    Type
REMARK                         _______ _______ _______ _____ _____    ______ ____
ROOT
ATOM      1  C   UNL     1       9.259  10.512  18.885  0.00  0.00    +0.000 A 
ATOM      2  C   UNL     1       9.879  10.522  20.166  0.00  0.00    +0.000 A 
ATOM      3  C   UNL     1      10.004  11.717  20.880  0.00  0.00    +0.000 A 
ATOM      4  C   UNL     1       9.683  12.864  20.198  0.00  0.00    +0.000 A 
ATOM      5  C   UNL     1       9.680  12.859  18.792  0.00  0.00    +0.000 A 
ATOM      6  C   UNL     1       9.251  11.710  18.151  0.00  0.00    +0.000 A 
ATOM      7  C   UNL     1       9.456  14.254  18.342  0.00  0.00    +0.000 C 
ATOM      8  O   UNL     1       9.845  14.799  17.332  0.00  0.00    +0.000 OA
ATOM      9  C   UNL     1       8.687  14.808  19.433  0.00  0.00    +0.000 A 
ATOM     10  C   UNL     1       8.880  14.045  20.580  0.00  0.00    +0.000 A 
ATOM     11  N   UNL     1       7.676  14.102  21.269  0.00  0.00    +0.000 N 
ATOM     12  C   UNL     1       6.811  14.997  20.614  0.00  0.00    +0.000 A 
ATOM     13  C   UNL     1       5.454  15.279  20.844  0.00  0.00    +0.000 A 
ATOM     14  C   UNL     1       4.642  15.460  19.715  0.00  0.00    +0.000 A 
ATOM     15  C   UNL     1       5.213  15.815  18.494  0.00  0.00    +0.000 A 
ATOM     16  C   UNL     1       6.604  15.885  18.366  0.00  0.00    +0.000 A 
ATOM     17  C   UNL     1       7.398  15.364  19.406  0.00  0.00    +0.000 A 
ATOM     18  H   UNL     1       7.328  13.371  21.878  0.00  0.00    +0.000 HD
ENDROOT
BRANCH   1  21
ATOM     19  N   UNL     1       7.877   7.239  18.216  0.00  0.00    +0.000 N 
ATOM     20  C   UNL     1       8.668   8.070  18.966  0.00  0.00    +0.000 A 
ATOM     21  C   UNL     1       8.495   9.343  18.490  0.00  0.00    +0.000 A 
ATOM     22  C   UNL     1       7.629   9.153  17.388  0.00  0.00    +0.000 A 
ATOM     23  N   UNL     1       7.226   7.892  17.221  0.00  0.00    +0.000 NA
BRANCH  19  24
ATOM     24  C   UNL     1       7.700   5.799  18.323  0.00  0.00    +0.000 C 
BRANCH  24  25
ATOM     25  C   UNL     1       6.683   5.208  17.353  0.00  0.00    +0.000 C 
BRANCH  25  26
ATOM     26  C   UNL     1       7.280   4.705  16.036  0.00  0.00    +0.000 C 
BRANCH  26  28
ATOM     27  C   UNL     1       6.207   4.048  13.948  0.00  0.00    +0.000 C 
ATOM     28  N   UNL     1       6.556   5.159  14.835  0.00  0.00    +0.000 NA
ATOM     29  C   UNL     1       5.329   5.856  15.244  0.00  0.00    +0.000 C 
ENDBRANCH  26  28
ENDBRANCH  25  26
ENDBRANCH  24  25
ENDBRANCH  19  24
ENDBRANCH   1  21
BRANCH  14  30
ATOM     30  C   UNL     1       3.257  15.065  19.781  0.00  0.00    +0.000 C 
ATOM     31  N   UNL     1       2.140  14.803  19.926  0.00  0.00    +0.000 NA
ENDBRANCH  14  30
TORSDOF 6
ENDMDL
MODEL 6
REMARK VINA RESULT:      -6.7      3.728      6.660
REMARK  Name = 
REMARK  8 active torsions:
REMARK  status: ('A' for Active; 'I' for Inactive)
REMARK    1  A    between atoms: C_1  and  N_2
REMARK    2  A    between atoms: N_2  and  C_3
REMARK    3  A    between atoms: N_2  and  C_4
REMARK    4  A    between atoms: C_4  and  C_5
REMARK    5  A    between atoms: C_5  and  C_6
REMARK    6  A    between atoms: C_6  and  N_7
REMARK    7  A    between atoms: C_9  and  C_10
REMARK    8  A    between atoms: C_23  and  C_24
REMARK                            x       y       z     vdW  Elec       q    Type
REMARK                         _______ _______ _______ _____ _____    ______ ____
ROOT
ATOM      1  C   UNL     1       9.216  10.625  18.762  0.00  0.00    +0.000 A 
ATOM      2  C   UNL     1      10.111  10.556  19.867  0.00  0.00    +0.000 A 
ATOM      3  C   UNL     1      10.318  11.674  20.679  0.00  0.00    +0.000 A 
ATOM      4  C   UNL     1       9.773  12.853  20.233  0.00  0.00    +0.000 A 
ATOM      5  C   UNL     1       9.448  12.997  18.873  0.00  0.00    +0.000 A 
ATOM      6  C   UNL     1       8.961  11.889  18.204  0.00  0.00    +0.000 A 
ATOM      7  C   UNL     1       9.035  14.406  18.661  0.00  0.00    +0.000 C 
ATOM      8  O   UNL     1       9.146  15.089  17.666  0.00  0.00    +0.000 OA
ATOM      9  C   UNL     1       8.502  14.767  19.955  0.00  0.00    +0.000 A 
ATOM     10  C   UNL     1       9.003  13.907  20.927  0.00  0.00    +0.000 A 
ATOM     11  N   UNL     1       7.988  13.778  21.866  0.00  0.00    +0.000 N 
ATOM     12  C   UNL     1       6.939  14.654  21.534  0.00  0.00    +0.000 A 
ATOM     13  C   UNL     1       5.655  14.783  22.091  0.00  0.00    +0.000 A 
ATOM     14  C   UNL     1       4.595  15.007  21.199  0.00  0.00    +0.000 A 
ATOM     15  C   UNL     1       4.846  15.542  19.938  0.00  0.00    +0.000 A 
ATOM     16  C   UNL     1       6.163  15.754  19.516  0.00  0.00    +0.000 A 
ATOM     17  C   UNL     1       7.207  15.200  20.282  0.00  0.00    +0.000 A 
ATOM     18  H   UNL     1       7.838  12.958  22.440  0.00  0.00    +0.000 HD
ENDROOT
BRANCH   1  21
ATOM     19  N   UNL     1       7.871   7.322  18.169  0.00  0.00    +0.000 N 
ATOM     20  C   UNL     1       8.669   8.175  18.887  0.00  0.00    +0.000 A 
ATOM     21  C   UNL     1       8.461   9.439  18.402  0.00  0.00    +0.000 A 
ATOM     22  C   UNL     1       7.565   9.223  17.329  0.00  0.00    +0.000 A 
ATOM     23  N   UNL     1       7.179   7.953  17.187  0.00  0.00    +0.000 NA
BRANCH  19  24
ATOM     24  C   UNL     1       7.721   5.881  18.296  0.00  0.00    +0.000 C 
BRANCH  24  25
ATOM     25  C   UNL     1       6.808   5.433  19.432  0.00  0.00    +0.000 C 
BRANCH  25  26
ATOM     26  C   UNL     1       5.471   4.843  18.976  0.00  0.00    +0.000 C 
BRANCH  26  28
ATOM     27  C   UNL     1       4.701   3.999  16.823  0.00  0.00    +0.000 C 
ATOM     28  N   UNL     1       5.107   5.179  17.588  0.00  0.00    +0.000 NA
ATOM     29  C   UNL     1       4.008   6.153  17.597  0.00  0.00    +0.000 C 
ENDBRANCH  26  28
ENDBRANCH  25  26
ENDBRANCH  24  25
ENDBRANCH  19  24
ENDBRANCH   1  21
BRANCH  14  30
ATOM     30  C   UNL     1       3.292  14.482  21.519  0.00  0.00    +0.000 C 
ATOM     31  N   UNL     1       2.226  14.152  21.826  0.00  0.00    +0.000 NA
ENDBRANCH  14  30
TORSDOF 6
ENDMDL
MODEL 7
REMARK VINA RESULT:      -6.7      1.748      2.630
REMARK  Name = 
REMARK  8 active torsions:
REMARK  status: ('A' for Active; 'I' for Inactive)
REMARK    1  A    between atoms: C_1  and  N_2
REMARK    2  A    between atoms: N_2  and  C_3
REMARK    3  A    between atoms: N_2  and  C_4
REMARK    4  A    between atoms: C_4  and  C_5
REMARK    5  A    between atoms: C_5  and  C_6
REMARK    6  A    between atoms: C_6  and  N_7
REMARK    7  A    between atoms: C_9  and  C_10
REMARK    8  A    between atoms: C_23  and  C_24
REMARK                            x       y       z     vdW  Elec       q    Type
REMARK                         _______ _______ _______ _____ _____    ______ ____
ROOT
ATOM      1  C   UNL     1       1.183   8.705  18.848  0.00  0.00    +0.000 A 
ATOM      2  C   UNL     1       0.148   8.948  17.900  0.00  0.00    +0.000 A 
ATOM      3  C   UNL     1      -0.440  10.212  17.806  0.00  0.00    +0.000 A 
ATOM      4  C   UNL     1      -0.103  11.109  18.789  0.00  0.00    +0.000 A 
ATOM      5  C   UNL     1       0.412  10.642  20.010  0.00  0.00    +0.000 A 
ATOM      6  C   UNL     1       1.243   9.535  19.980  0.00  0.00    +0.000 A 
ATOM      7  C   UNL     1       0.531  11.808  20.920  0.00  0.00    +0.000 C 
ATOM      8  O   UNL     1       0.445  11.841  22.128  0.00  0.00    +0.000 OA
ATOM      9  C   UNL     1       0.738  12.898  19.994  0.00  0.00    +0.000 A 
ATOM     10  C   UNL     1       0.280  12.536  18.730  0.00  0.00    +0.000 A 
ATOM     11  N   UNL     1       1.120  13.183  17.834  0.00  0.00    +0.000 N 
ATOM     12  C   UNL     1       1.989  14.030  18.545  0.00  0.00    +0.000 A 
ATOM     13  C   UNL     1       3.096  14.774  18.100  0.00  0.00    +0.000 A 
ATOM     14  C   UNL     1       4.217  14.811  18.943  0.00  0.00    +0.000 A 
ATOM     15  C   UNL     1       4.075  14.550  20.304  0.00  0.00    +0.000 A 
ATOM     16  C   UNL     1       2.837  14.145  20.814  0.00  0.00    +0.000 A 
ATOM     17  C   UNL     1       1.827  13.779  19.904  0.00  0.00    +0.000 A 
ATOM     18  H   UNL     1       1.348  12.838  16.909  0.00  0.00    +0.000 HD
ENDROOT
BRANCH   1  21
ATOM     19  N   UNL     1       3.718   6.134  18.660  0.00  0.00    +0.000 N 
ATOM     20  C   UNL     1       2.570   6.641  19.213  0.00  0.00    +0.000 A 
ATOM     21  C   UNL     1       2.234   7.765  18.506  0.00  0.00    +0.000 A 
ATOM     22  C   UNL     1       3.302   7.891  17.586  0.00  0.00    +0.000 A 
ATOM     23  N   UNL     1       4.196   6.902  17.648  0.00  0.00    +0.000 NA
BRANCH  19  24
ATOM     24  C   UNL     1       4.475   4.953  19.043  0.00  0.00    +0.000 C 
BRANCH  24  25
ATOM     25  C   UNL     1       3.815   3.627  18.679  0.00  0.00    +0.000 C 
BRANCH  25  26
ATOM     26  C   UNL     1       3.400   2.774  19.882  0.00  0.00    +0.000 C 
BRANCH  26  28
ATOM     27  C   UNL     1       1.263   3.367  20.893  0.00  0.00    +0.000 C 
ATOM     28  N   UNL     1       1.955   2.491  19.946  0.00  0.00    +0.000 NA
ATOM     29  C   UNL     1       1.367   2.660  18.611  0.00  0.00    +0.000 C 
ENDBRANCH  26  28
ENDBRANCH  25  26
ENDBRANCH  24  25
ENDBRANCH  19  24
ENDBRANCH   1  21
BRANCH  14  30
ATOM     30  C   UNL     1       5.529  14.905  18.354  0.00  0.00    +0.000 C 
ATOM     31  N   UNL     1       6.544  14.923  17.799  0.00  0.00    +0.000 NA
ENDBRANCH  14  30
TORSDOF 6
ENDMDL
MODEL 8
REMARK VINA RESULT:      -6.7      5.282      7.596
REMARK  Name = 
REMARK  8 active torsions:
REMARK  status: ('A' for Active; 'I' for Inactive)
REMARK    1  A    between atoms: C_1  and  N_2
REMARK    2  A    between atoms: N_2  and  C_3
REMARK    3  A    between atoms: N_2  and  C_4
REMARK    4  A    between atoms: C_4  and  C_5
REMARK    5  A    between atoms: C_5  and  C_6
REMARK    6  A    between atoms: C_6  and  N_7
REMARK    7  A    between atoms: C_9  and  C_10
REMARK    8  A    between atoms: C_23  and  C_24
REMARK                            x       y       z     vdW  Elec       q    Type
REMARK                         _______ _______ _______ _____ _____    ______ ____
ROOT
ATOM      1  C   UNL     1      -2.887  10.366  17.716  0.00  0.00    +0.000 A 
ATOM      2  C   UNL     1      -3.143  11.053  16.495  0.00  0.00    +0.000 A 
ATOM      3  C   UNL     1      -4.370  11.689  16.289  0.00  0.00    +0.000 A 
ATOM      4  C   UNL     1      -5.344  11.443  17.225  0.00  0.00    +0.000 A 
ATOM      5  C   UNL     1      -5.250  10.303  18.041  0.00  0.00    +0.000 A 
ATOM      6  C   UNL     1      -3.990   9.904  18.452  0.00  0.00    +0.000 A 
ATOM      7  C   UNL     1      -6.502  10.215  18.832  0.00  0.00    +0.000 C 
ATOM      8  O   UNL     1      -7.068   9.230  19.254  0.00  0.00    +0.000 OA
ATOM      9  C   UNL     1      -6.896  11.602  18.934  0.00  0.00    +0.000 A 
ATOM     10  C   UNL     1      -6.287  12.341  17.925  0.00  0.00    +0.000 A 
ATOM     11  N   UNL     1      -6.060  13.597  18.472  0.00  0.00    +0.000 N 
ATOM     12  C   UNL     1      -6.646  13.657  19.749  0.00  0.00    +0.000 A 
ATOM     13  C   UNL     1      -6.567  14.653  20.738  0.00  0.00    +0.000 A 
ATOM     14  C   UNL     1      -6.451  14.220  22.067  0.00  0.00    +0.000 A 
ATOM     15  C   UNL     1      -6.869  12.940  22.424  0.00  0.00    +0.000 A 
ATOM     16  C   UNL     1      -7.304  12.046  21.439  0.00  0.00    +0.000 A 
ATOM     17  C   UNL     1      -7.081  12.379  20.089  0.00  0.00    +0.000 A 
ATOM     18  H   UNL     1      -5.302  14.213  18.202  0.00  0.00    +0.000 HD
ENDROOT
BRANCH   1  21
ATOM     19  N   UNL     1       0.615   9.900  18.483  0.00  0.00    +0.000 N 
ATOM     20  C   UNL     1      -0.421   9.895  17.585  0.00  0.00    +0.000 A 
ATOM     21  C   UNL     1      -1.533  10.357  18.239  0.00  0.00    +0.000 A 
ATOM     22  C   UNL     1      -1.069  10.540  19.562  0.00  0.00    +0.000 A 
ATOM     23  N   UNL     1       0.233  10.292  19.724  0.00  0.00    +0.000 NA
BRANCH  19  24
ATOM     24  C   UNL     1       2.002   9.506  18.284  0.00  0.00    +0.000 C 
BRANCH  24  25
ATOM     25  C   UNL     1       2.192   8.094  17.743  0.00  0.00    +0.000 C 
BRANCH  25  26
ATOM     26  C   UNL     1       2.461   7.034  18.815  0.00  0.00    +0.000 C 
BRANCH  26  28
ATOM     27  C   UNL     1       4.218   5.400  19.244  0.00  0.00    +0.000 C 
ATOM     28  N   UNL     1       3.174   5.844  18.318  0.00  0.00    +0.000 NA
ATOM     29  C   UNL     1       2.213   4.753  18.112  0.00  0.00    +0.000 C 
ENDBRANCH  26  28
ENDBRANCH  25  26
ENDBRANCH  24  25
ENDBRANCH  19  24
ENDBRANCH   1  21
BRANCH  14  30
ATOM     30  C   UNL     1      -5.703  15.025  23.000  0.00  0.00    +0.000 C 
ATOM     31  N   UNL     1      -5.197  15.710  23.784  0.00  0.00    +0.000 NA
ENDBRANCH  14  30
TORSDOF 6
ENDMDL
MODEL 9
REMARK VINA RESULT:      -6.7      3.714      6.574
REMARK  Name = 
REMARK  8 active torsions:
REMARK  status: ('A' for Active; 'I' for Inactive)
REMARK    1  A    between atoms: C_1  and  N_2
REMARK    2  A    between atoms: N_2  and  C_3
REMARK    3  A    between atoms: N_2  and  C_4
REMARK    4  A    between atoms: C_4  and  C_5
REMARK    5  A    between atoms: C_5  and  C_6
REMARK    6  A    between atoms: C_6  and  N_7
REMARK    7  A    between atoms: C_9  and  C_10
REMARK    8  A    between atoms: C_23  and  C_24
REMARK                            x       y       z     vdW  Elec       q    Type
REMARK                         _______ _______ _______ _____ _____    ______ ____
ROOT
ATOM      1  C   UNL     1       9.188  10.380  18.912  0.00  0.00    +0.000 A 
ATOM      2  C   UNL     1       9.761  10.390  20.215  0.00  0.00    +0.000 A 
ATOM      3  C   UNL     1       9.861  11.585  20.932  0.00  0.00    +0.000 A 
ATOM      4  C   UNL     1       9.567  12.732  20.238  0.00  0.00    +0.000 A 
ATOM      5  C   UNL     1       9.615  12.726  18.833  0.00  0.00    +0.000 A 
ATOM      6  C   UNL     1       9.208  11.577  18.177  0.00  0.00    +0.000 A 
ATOM      7  C   UNL     1       9.409  14.122  18.373  0.00  0.00    +0.000 C 
ATOM      8  O   UNL     1       9.836  14.665  17.378  0.00  0.00    +0.000 OA
ATOM      9  C   UNL     1       8.602  14.677  19.436  0.00  0.00    +0.000 A 
ATOM     10  C   UNL     1       8.752  13.915  20.590  0.00  0.00    +0.000 A 
ATOM     11  N   UNL     1       7.524  13.974  21.234  0.00  0.00    +0.000 N 
ATOM     12  C   UNL     1       6.684  14.869  20.548  0.00  0.00    +0.000 A 
ATOM     13  C   UNL     1       5.320  15.154  20.728  0.00  0.00    +0.000 A 
ATOM     14  C   UNL     1       4.550  15.335  19.570  0.00  0.00    +0.000 A 
ATOM     15  C   UNL     1       5.165  15.688  18.371  0.00  0.00    +0.000 A 
ATOM     16  C   UNL     1       6.560  15.756  18.294  0.00  0.00    +0.000 A 
ATOM     17  C   UNL     1       7.315  15.234  19.361  0.00  0.00    +0.000 A 
ATOM     18  H   UNL     1       7.153  13.244  21.831  0.00  0.00    +0.000 HD
ENDROOT
BRANCH   1  21
ATOM     19  N   UNL     1       7.833   7.108  18.185  0.00  0.00    +0.000 N 
ATOM     20  C   UNL     1       8.603   7.935  18.960  0.00  0.00    +0.000 A 
ATOM     21  C   UNL     1       8.437   9.212  18.490  0.00  0.00    +0.000 A 
ATOM     22  C   UNL     1       7.596   9.028  17.367  0.00  0.00    +0.000 A 
ATOM     23  N   UNL     1       7.201   7.767  17.181  0.00  0.00    +0.000 NA
BRANCH  19  24
ATOM     24  C   UNL     1       7.658   5.666  18.277  0.00  0.00    +0.000 C 
BRANCH  24  25
ATOM     25  C   UNL     1       6.269   5.167  17.895  0.00  0.00    +0.000 C 
BRANCH  25  26
ATOM     26  C   UNL     1       5.308   4.998  19.075  0.00  0.00    +0.000 C 
BRANCH  26  28
ATOM     27  C   UNL     1       3.996   3.631  17.543  0.00  0.00    +0.000 C 
ATOM     28  N   UNL     1       3.962   4.536  18.693  0.00  0.00    +0.000 NA
ATOM     29  C   UNL     1       3.344   3.847  19.834  0.00  0.00    +0.000 C 
ENDBRANCH  26  28
ENDBRANCH  25  26
ENDBRANCH  24  25
ENDBRANCH  19  24
ENDBRANCH   1  21
BRANCH  14  30
ATOM     30  C   UNL     1       3.163  14.942  19.586  0.00  0.00    +0.000 C 
ATOM     31  N   UNL     1       2.048  14.646  19.494  0.00  0.00    +0.000 NA
ENDBRANCH  14  30
TORSDOF 6
ENDMDL
