MODEL 1
REMARK VINA RESULT:      -7.8      0.000      0.000
REMARK  Name = 
REMARK  11 active torsions:
REMARK  status: ('A' for Active; 'I' for Inactive)
REMARK    1  A    between atoms: C_1  and  O_2
REMARK    2  A    between atoms: O_2  and  C_3
REMARK    3  A    between atoms: C_6  and  C_7
REMARK    4  A    between atoms: C_7  and  N_8
REMARK    5  A    between atoms: C_10  and  C_11
REMARK    6  A    between atoms: C_13  and  N_14
REMARK    7  A    between atoms: N_17  and  C_18
REMARK    8  A    between atoms: C_18  and  C_19
REMARK    9  A    between atoms: N_23  and  C_24
REMARK   10  A    between atoms: C_26  and  O_27
REMARK   11  A    between atoms: O_27  and  C_28
REMARK                            x       y       z     vdW  Elec       q    Type
REMARK                         _______ _______ _______ _____ _____    ______ ____
ROOT
ATOM      1  N   UNL     1       2.966   3.665  18.676  0.00  0.00    +0.000 N 
ATOM      2  N   UNL     1       2.895   2.764  19.685  0.00  0.00    +0.000 NA
ATOM      3  C   UNL     1       2.051   3.312  20.560  0.00  0.00    +0.000 A 
ATOM      4  C   UNL     1       1.654   2.614  21.806  0.00  0.00    +0.000 C 
ATOM      5  C   UNL     1       1.605   4.572  20.121  0.00  0.00    +0.000 A 
ATOM      6  C   UNL     1       2.218   4.806  18.905  0.00  0.00    +0.000 A 
ENDROOT
BRANCH   6   7
ATOM      7  N   UNL     1       2.079   5.934  18.090  0.00  0.00    +0.000 N 
ATOM      8  C   UNL     1       2.194   7.258  18.605  0.00  0.00    +0.000 C 
ATOM      9  O   UNL     1       2.425   7.492  19.781  0.00  0.00    +0.000 OA
ATOM     10  N   UNL     1       2.018   8.212  17.662  0.00  0.00    +0.000 N 
ATOM     11  H   UNL     1       1.948   5.812  17.097  0.00  0.00    +0.000 HD
ATOM     12  H   UNL     1       1.734   8.055  16.706  0.00  0.00    +0.000 HD
BRANCH  10  13
ATOM     13  C   UNL     1       2.132   9.588  18.099  0.00  0.00    +0.000 C 
BRANCH  13  14
ATOM     14  C   UNL     1       0.787  10.198  18.274  0.00  0.00    +0.000 A 
ATOM     15  N   UNL     1      -0.361   9.691  17.849  0.00  0.00    +0.000 NA
ATOM     16  C   UNL     1      -1.328  10.576  18.284  0.00  0.00    +0.000 A 
ATOM     17  C   UNL     1      -0.761  11.617  18.980  0.00  0.00    +0.000 A 
ATOM     18  N   UNL     1       0.583  11.382  18.953  0.00  0.00    +0.000 N 
ATOM     19  C   UNL     1       1.595  12.219  19.544  0.00  0.00    +0.000 C 
ENDBRANCH  13  14
ENDBRANCH  10  13
ENDBRANCH   6   7
BRANCH   1  20
ATOM     20  C   UNL     1       3.638   3.264  17.450  0.00  0.00    +0.000 C 
BRANCH  20  24
ATOM     21  C   UNL     1       6.877   6.028  16.687  0.00  0.00    +0.000 A 
ATOM     22  C   UNL     1       5.797   5.927  15.793  0.00  0.00    +0.000 A 
ATOM     23  C   UNL     1       4.758   5.024  16.014  0.00  0.00    +0.000 A 
ATOM     24  C   UNL     1       4.810   4.141  17.093  0.00  0.00    +0.000 A 
ATOM     25  C   UNL     1       5.943   4.169  17.916  0.00  0.00    +0.000 A 
ATOM     26  C   UNL     1       6.985   5.093  17.725  0.00  0.00    +0.000 A 
BRANCH  21  28
ATOM     27  C   UNL     1       7.664   8.095  17.513  0.00  0.00    +0.000 C 
ATOM     28  O   UNL     1       7.797   7.037  16.554  0.00  0.00    +0.000 OA
ENDBRANCH  21  28
BRANCH  26  29
ATOM     29  O   UNL     1       7.959   4.930  18.671  0.00  0.00    +0.000 OA
ATOM     30  C   UNL     1       7.786   5.466  19.970  0.00  0.00    +0.000 C 
ENDBRANCH  26  29
ENDBRANCH  20  24
ENDBRANCH   1  20
TORSDOF 7
ENDMDL
MODEL 2
REMARK VINA RESULT:      -7.8      1.326      1.955
REMARK  Name = 
REMARK  11 active torsions:
REMARK  status: ('A' for Active; 'I' for Inactive)
REMARK    1  A    between atoms: C_1  and  O_2
REMARK    2  A    between atoms: O_2  and  C_3
REMARK    3  A    between atoms: C_6  and  C_7
REMARK    4  A    between atoms: C_7  and  N_8
REMARK    5  A    between atoms: C_10  and  C_11
REMARK    6  A    between atoms: C_13  and  N_14
REMARK    7  A    between atoms: N_17  and  C_18
REMARK    8  A    between atoms: C_18  and  C_19
REMARK    9  A    between atoms: N_23  and  C_24
REMARK   10  A    between atoms: C_26  and  O_27
REMARK   11  A    between atoms: O_27  and  C_28
REMARK                            x       y       z     vdW  Elec       q    Type
REMARK                         _______ _______ _______ _____ _____    ______ ____
ROOT
ATOM      1  N   UNL     1       3.349   4.720  19.176  0.00  0.00    +0.000 N 
ATOM      2  N   UNL     1       3.046   3.467  19.591  0.00  0.00    +0.000 NA
ATOM      3  C   UNL     1       1.860   3.212  19.039  0.00  0.00    +0.000 A 
ATOM      4  C   UNL     1       1.184   1.902  19.207  0.00  0.00    +0.000 C 
ATOM      5  C   UNL     1       1.395   4.310  18.292  0.00  0.00    +0.000 A 
ATOM      6  C   UNL     1       2.357   5.296  18.401  0.00  0.00    +0.000 A 
ENDROOT
BRANCH   6   7
ATOM      7  N   UNL     1       2.331   6.570  17.826  0.00  0.00    +0.000 N 
ATOM      8  C   UNL     1       2.082   7.743  18.598  0.00  0.00    +0.000 C 
ATOM      9  O   UNL     1       1.881   7.711  19.802  0.00  0.00    +0.000 OA
ATOM     10  N   UNL     1       2.088   8.876  17.860  0.00  0.00    +0.000 N 
ATOM     11  H   UNL     1       2.550   6.675  16.847  0.00  0.00    +0.000 HD
ATOM     12  H   UNL     1       2.157   8.928  16.853  0.00  0.00    +0.000 HD
BRANCH  10  13
ATOM     13  C   UNL     1       1.856  10.117  18.569  0.00  0.00    +0.000 C 
BRANCH  13  14
ATOM     14  C   UNL     1       0.466  10.598  18.348  0.00  0.00    +0.000 A 
ATOM     15  N   UNL     1      -0.532   9.891  17.835  0.00  0.00    +0.000 NA
ATOM     16  C   UNL     1      -1.625  10.734  17.873  0.00  0.00    +0.000 A 
ATOM     17  C   UNL     1      -1.288  11.950  18.417  0.00  0.00    +0.000 A 
ATOM     18  N   UNL     1       0.045  11.865  18.698  0.00  0.00    +0.000 N 
ATOM     19  C   UNL     1       0.853  12.910  19.271  0.00  0.00    +0.000 C 
ENDBRANCH  13  14
ENDBRANCH  10  13
ENDBRANCH   6   7
BRANCH   1  20
ATOM     20  C   UNL     1       4.693   5.215  19.425  0.00  0.00    +0.000 C 
BRANCH  20  24
ATOM     21  C   UNL     1       7.028   5.233  15.783  0.00  0.00    +0.000 A 
ATOM     22  C   UNL     1       6.254   4.112  16.131  0.00  0.00    +0.000 A 
ATOM     23  C   UNL     1       5.515   4.084  17.314  0.00  0.00    +0.000 A 
ATOM     24  C   UNL     1       5.593   5.143  18.218  0.00  0.00    +0.000 A 
ATOM     25  C   UNL     1       6.453   6.206  17.919  0.00  0.00    +0.000 A 
ATOM     26  C   UNL     1       7.182   6.265  16.718  0.00  0.00    +0.000 A 
BRANCH  21  28
ATOM     27  C   UNL     1       6.941   4.563  13.521  0.00  0.00    +0.000 C 
ATOM     28  O   UNL     1       7.605   5.320  14.542  0.00  0.00    +0.000 OA
ENDBRANCH  21  28
BRANCH  26  29
ATOM     29  O   UNL     1       7.926   7.411  16.656  0.00  0.00    +0.000 OA
ATOM     30  C   UNL     1       7.940   8.309  17.751  0.00  0.00    +0.000 C 
ENDBRANCH  26  29
ENDBRANCH  20  24
ENDBRANCH   1  20
TORSDOF 7
ENDMDL
MODEL 3
REMARK VINA RESULT:      -7.5      1.751      2.206
REMARK  Name = 
REMARK  11 active torsions:
REMARK  status: ('A' for Active; 'I' for Inactive)
REMARK    1  A    between atoms: C_1  and  O_2
REMARK    2  A    between atoms: O_2  and  C_3
REMARK    3  A    between atoms: C_6  and  C_7
REMARK    4  A    between atoms: C_7  and  N_8
REMARK    5  A    between atoms: C_10  and  C_11
REMARK    6  A    between atoms: C_13  and  N_14
REMARK    7  A    between atoms: N_17  and  C_18
REMARK    8  A    between atoms: C_18  and  C_19
REMARK    9  A    between atoms: N_23  and  C_24
REMARK   10  A    between atoms: C_26  and  O_27
REMARK   11  A    between atoms: O_27  and  C_28
REMARK                            x       y       z     vdW  Elec       q    Type
REMARK                         _______ _______ _______ _____ _____    ______ ____
ROOT
ATOM      1  N   UNL     1       2.428   4.925  19.176  0.00  0.00    +0.000 N 
ATOM      2  N   UNL     1       2.332   3.640  19.592  0.00  0.00    +0.000 NA
ATOM      3  C   UNL     1       2.039   3.734  20.890  0.00  0.00    +0.000 A 
ATOM      4  C   UNL     1       1.797   2.532  21.725  0.00  0.00    +0.000 C 
ATOM      5  C   UNL     1       1.973   5.076  21.306  0.00  0.00    +0.000 A 
ATOM      6  C   UNL     1       2.247   5.847  20.192  0.00  0.00    +0.000 A 
ENDROOT
BRANCH   6   7
ATOM      7  N   UNL     1       2.296   7.242  20.120  0.00  0.00    +0.000 N 
ATOM      8  C   UNL     1       1.265   8.065  20.661  0.00  0.00    +0.000 C 
ATOM      9  O   UNL     1       0.282   7.608  21.224  0.00  0.00    +0.000 OA
ATOM     10  N   UNL     1       1.490   9.386  20.482  0.00  0.00    +0.000 N 
ATOM     11  H   UNL     1       3.109   7.688  19.722  0.00  0.00    +0.000 HD
ATOM     12  H   UNL     1       2.240   9.792  19.942  0.00  0.00    +0.000 HD
BRANCH  10  13
ATOM     13  C   UNL     1       0.495  10.294  21.015  0.00  0.00    +0.000 C 
BRANCH  13  14
ATOM     14  C   UNL     1      -0.125  11.094  19.925  0.00  0.00    +0.000 A 
ATOM     15  N   UNL     1      -1.225  10.779  19.255  0.00  0.00    +0.000 NA
ATOM     16  C   UNL     1      -1.433  11.835  18.390  0.00  0.00    +0.000 A 
ATOM     17  C   UNL     1      -0.461  12.794  18.544  0.00  0.00    +0.000 A 
ATOM     18  N   UNL     1       0.378  12.308  19.505  0.00  0.00    +0.000 N 
ATOM     19  C   UNL     1       1.563  12.963  19.996  0.00  0.00    +0.000 C 
ENDBRANCH  13  14
ENDBRANCH  10  13
ENDBRANCH   6   7
BRANCH   1  20
ATOM     20  C   UNL     1       2.520   5.173  17.745  0.00  0.00    +0.000 C 
BRANCH  20  24
ATOM     21  C   UNL     1       6.436   5.158  15.906  0.00  0.00    +0.000 A 
ATOM     22  C   UNL     1       5.667   3.983  15.961  0.00  0.00    +0.000 A 
ATOM     23  C   UNL     1       4.413   3.967  16.572  0.00  0.00    +0.000 A 
ATOM     24  C   UNL     1       3.929   5.107  17.214  0.00  0.00    +0.000 A 
ATOM     25  C   UNL     1       4.748   6.243  17.253  0.00  0.00    +0.000 A 
ATOM     26  C   UNL     1       6.001   6.285  16.617  0.00  0.00    +0.000 A 
BRANCH  21  28
ATOM     27  C   UNL     1       7.388   4.939  13.756  0.00  0.00    +0.000 C 
ATOM     28  O   UNL     1       7.581   5.204  15.153  0.00  0.00    +0.000 OA
ENDBRANCH  21  28
BRANCH  26  29
ATOM     29  O   UNL     1       6.590   7.507  16.783  0.00  0.00    +0.000 OA
ATOM     30  C   UNL     1       7.676   7.658  17.679  0.00  0.00    +0.000 C 
ENDBRANCH  26  29
ENDBRANCH  20  24
ENDBRANCH   1  20
TORSDOF 7
ENDMDL
MODEL 4
REMARK VINA RESULT:      -7.4      3.317      8.887
REMARK  Name = 
REMARK  11 active torsions:
REMARK  status: ('A' for Active; 'I' for Inactive)
REMARK    1  A    between atoms: C_1  and  O_2
REMARK    2  A    between atoms: O_2  and  C_3
REMARK    3  A    between atoms: C_6  and  C_7
REMARK    4  A    between atoms: C_7  and  N_8
REMARK    5  A    between atoms: C_10  and  C_11
REMARK    6  A    between atoms: C_13  and  N_14
REMARK    7  A    between atoms: N_17  and  C_18
REMARK    8  A    between atoms: C_18  and  C_19
REMARK    9  A    between atoms: N_23  and  C_24
REMARK   10  A    between atoms: C_26  and  O_27
REMARK   11  A    between atoms: O_27  and  C_28
REMARK                            x       y       z     vdW  Elec       q    Type
REMARK                         _______ _______ _______ _____ _____    ______ ____
ROOT
ATOM      1  N   UNL     1       0.422   9.650  19.825  0.00  0.00    +0.000 N 
ATOM      2  N   UNL     1      -0.225  10.016  20.958  0.00  0.00    +0.000 NA
ATOM      3  C   UNL     1       0.331   9.269  21.913  0.00  0.00    +0.000 A 
ATOM      4  C   UNL     1      -0.064   9.399  23.337  0.00  0.00    +0.000 C 
ATOM      5  C   UNL     1       1.312   8.410  21.387  0.00  0.00    +0.000 A 
ATOM      6  C   UNL     1       1.354   8.646  20.026  0.00  0.00    +0.000 A 
ENDROOT
BRANCH   6   7
ATOM      7  N   UNL     1       2.179   8.024  19.083  0.00  0.00    +0.000 N 
ATOM      8  C   UNL     1       2.487   6.634  19.148  0.00  0.00    +0.000 C 
ATOM      9  O   UNL     1       2.051   5.900  20.021  0.00  0.00    +0.000 OA
ATOM     10  N   UNL     1       3.307   6.225  18.154  0.00  0.00    +0.000 N 
ATOM     11  H   UNL     1       2.524   8.559  18.300  0.00  0.00    +0.000 HD
ATOM     12  H   UNL     1       3.760   6.820  17.475  0.00  0.00    +0.000 HD
BRANCH  10  13
ATOM     13  C   UNL     1       3.661   4.821  18.137  0.00  0.00    +0.000 C 
BRANCH  13  14
ATOM     14  C   UNL     1       4.939   4.608  17.408  0.00  0.00    +0.000 A 
ATOM     15  N   UNL     1       5.064   4.170  16.163  0.00  0.00    +0.000 NA
ATOM     16  C   UNL     1       6.422   4.184  15.911  0.00  0.00    +0.000 A 
ATOM     17  C   UNL     1       7.118   4.639  17.005  0.00  0.00    +0.000 A 
ATOM     18  N   UNL     1       6.174   4.887  17.959  0.00  0.00    +0.000 N 
ATOM     19  C   UNL     1       6.431   5.369  19.291  0.00  0.00    +0.000 C 
ENDBRANCH  13  14
ENDBRANCH  10  13
ENDBRANCH   6   7
BRANCH   1  20
ATOM     20  C   UNL     1       0.203  10.445  18.628  0.00  0.00    +0.000 C 
BRANCH  20  24
ATOM     21  C   UNL     1      -3.867  11.278  17.421  0.00  0.00    +0.000 A 
ATOM     22  C   UNL     1      -3.345  11.827  18.605  0.00  0.00    +0.000 A 
ATOM     23  C   UNL     1      -2.043  11.548  19.018  0.00  0.00    +0.000 A 
ATOM     24  C   UNL     1      -1.254  10.649  18.301  0.00  0.00    +0.000 A 
ATOM     25  C   UNL     1      -1.818  10.019  17.184  0.00  0.00    +0.000 A 
ATOM     26  C   UNL     1      -3.118  10.311  16.737  0.00  0.00    +0.000 A 
BRANCH  21  28
ATOM     27  C   UNL     1      -6.193  11.429  17.799  0.00  0.00    +0.000 C 
ATOM     28  O   UNL     1      -5.079  11.698  16.936  0.00  0.00    +0.000 OA
ENDBRANCH  21  28
BRANCH  26  29
ATOM     29  O   UNL     1      -3.423   9.583  15.621  0.00  0.00    +0.000 OA
ATOM     30  C   UNL     1      -3.101  10.083  14.335  0.00  0.00    +0.000 C 
ENDBRANCH  26  29
ENDBRANCH  20  24
ENDBRANCH   1  20
TORSDOF 7
ENDMDL
MODEL 5
REMARK VINA RESULT:      -7.4      0.679      1.167
REMARK  Name = 
REMARK  11 active torsions:
REMARK  status: ('A' for Active; 'I' for Inactive)
REMARK    1  A    between atoms: C_1  and  O_2
REMARK    2  A    between atoms: O_2  and  C_3
REMARK    3  A    between atoms: C_6  and  C_7
REMARK    4  A    between atoms: C_7  and  N_8
REMARK    5  A    between atoms: C_10  and  C_11
REMARK    6  A    between atoms: C_13  and  N_14
REMARK    7  A    between atoms: N_17  and  C_18
REMARK    8  A    between atoms: C_18  and  C_19
REMARK    9  A    between atoms: N_23  and  C_24
REMARK   10  A    between atoms: C_26  and  O_27
REMARK   11  A    between atoms: O_27  and  C_28
REMARK                            x       y       z     vdW  Elec       q    Type
REMARK                         _______ _______ _______ _____ _____    ______ ____
ROOT
ATOM      1  N   UNL     1       2.923   3.766  18.639  0.00  0.00    +0.000 N 
ATOM      2  N   UNL     1       2.976   2.844  19.629  0.00  0.00    +0.000 NA
ATOM      3  C   UNL     1       2.143   3.309  20.561  0.00  0.00    +0.000 A 
ATOM      4  C   UNL     1       1.871   2.558  21.811  0.00  0.00    +0.000 C 
ATOM      5  C   UNL     1       1.578   4.538  20.177  0.00  0.00    +0.000 A 
ATOM      6  C   UNL     1       2.103   4.842  18.935  0.00  0.00    +0.000 A 
ENDROOT
BRANCH   6   7
ATOM      7  N   UNL     1       1.834   5.971  18.155  0.00  0.00    +0.000 N 
ATOM      8  C   UNL     1       2.070   7.293  18.631  0.00  0.00    +0.000 C 
ATOM      9  O   UNL     1       2.524   7.525  19.741  0.00  0.00    +0.000 OA
ATOM     10  N   UNL     1       1.736   8.249  17.734  0.00  0.00    +0.000 N 
ATOM     11  H   UNL     1       1.514   5.850  17.205  0.00  0.00    +0.000 HD
ATOM     12  H   UNL     1       1.273   8.096  16.850  0.00  0.00    +0.000 HD
BRANCH  10  13
ATOM     13  C   UNL     1       1.957   9.623  18.133  0.00  0.00    +0.000 C 
BRANCH  13  14
ATOM     14  C   UNL     1       0.897  10.075  19.073  0.00  0.00    +0.000 A 
ATOM     15  N   UNL     1       1.073  10.415  20.342  0.00  0.00    +0.000 NA
ATOM     16  C   UNL     1      -0.175  10.807  20.785  0.00  0.00    +0.000 A 
ATOM     17  C   UNL     1      -1.105  10.711  19.778  0.00  0.00    +0.000 A 
ATOM     18  N   UNL     1      -0.423  10.226  18.700  0.00  0.00    +0.000 N 
ATOM     19  C   UNL     1      -0.987   9.943  17.406  0.00  0.00    +0.000 C 
ENDBRANCH  13  14
ENDBRANCH  10  13
ENDBRANCH   6   7
BRANCH   1  20
ATOM     20  C   UNL     1       3.553   3.442  17.369  0.00  0.00    +0.000 C 
BRANCH  20  24
ATOM     21  C   UNL     1       6.916   6.100  16.781  0.00  0.00    +0.000 A 
ATOM     22  C   UNL     1       5.825   6.118  15.894  0.00  0.00    +0.000 A 
ATOM     23  C   UNL     1       4.746   5.250  16.058  0.00  0.00    +0.000 A 
ATOM     24  C   UNL     1       4.763   4.287  17.067  0.00  0.00    +0.000 A 
ATOM     25  C   UNL     1       5.902   4.199  17.878  0.00  0.00    +0.000 A 
ATOM     26  C   UNL     1       6.986   5.085  17.746  0.00  0.00    +0.000 A 
BRANCH  21  28
ATOM     27  C   UNL     1       7.634   8.216  17.542  0.00  0.00    +0.000 C 
ATOM     28  O   UNL     1       7.882   7.071  16.715  0.00  0.00    +0.000 OA
ENDBRANCH  21  28
BRANCH  26  29
ATOM     29  O   UNL     1       7.957   4.805  18.665  0.00  0.00    +0.000 OA
ATOM     30  C   UNL     1       8.017   5.531  19.880  0.00  0.00    +0.000 C 
ENDBRANCH  26  29
ENDBRANCH  20  24
ENDBRANCH   1  20
TORSDOF 7
ENDMDL
MODEL 6
REMARK VINA RESULT:      -7.3      2.690      7.125
REMARK  Name = 
REMARK  11 active torsions:
REMARK  status: ('A' for Active; 'I' for Inactive)
REMARK    1  A    between atoms: C_1  and  O_2
REMARK    2  A    between atoms: O_2  and  C_3
REMARK    3  A    between atoms: C_6  and  C_7
REMARK    4  A    between atoms: C_7  and  N_8
REMARK    5  A    between atoms: C_10  and  C_11
REMARK    6  A    between atoms: C_13  and  N_14
REMARK    7  A    between atoms: N_17  and  C_18
REMARK    8  A    between atoms: C_18  and  C_19
REMARK    9  A    between atoms: N_23  and  C_24
REMARK   10  A    between atoms: C_26  and  O_27
REMARK   11  A    between atoms: O_27  and  C_28
REMARK                            x       y       z     vdW  Elec       q    Type
REMARK                         _______ _______ _______ _____ _____    ______ ____
ROOT
ATOM      1  N   UNL     1       5.232   6.965  17.298  0.00  0.00    +0.000 N 
ATOM      2  N   UNL     1       5.972   8.077  17.518  0.00  0.00    +0.000 NA
ATOM      3  C   UNL     1       7.211   7.619  17.704  0.00  0.00    +0.000 A 
ATOM      4  C   UNL     1       8.357   8.533  17.930  0.00  0.00    +0.000 C 
ATOM      5  C   UNL     1       7.256   6.215  17.626  0.00  0.00    +0.000 A 
ATOM      6  C   UNL     1       5.963   5.793  17.382  0.00  0.00    +0.000 A 
ENDROOT
BRANCH   6   7
ATOM      7  N   UNL     1       5.517   4.476  17.228  0.00  0.00    +0.000 N 
ATOM      8  C   UNL     1       4.855   3.774  18.277  0.00  0.00    +0.000 C 
ATOM      9  O   UNL     1       4.632   4.274  19.368  0.00  0.00    +0.000 OA
ATOM     10  N   UNL     1       4.512   2.511  17.937  0.00  0.00    +0.000 N 
ATOM     11  H   UNL     1       5.615   4.023  16.331  0.00  0.00    +0.000 HD
ATOM     12  H   UNL     1       4.764   2.038  17.081  0.00  0.00    +0.000 HD
BRANCH  10  13
ATOM     13  C   UNL     1       3.822   1.730  18.943  0.00  0.00    +0.000 C 
BRANCH  13  14
ATOM     14  C   UNL     1       2.427   2.214  19.120  0.00  0.00    +0.000 A 
ATOM     15  N   UNL     1       1.512   2.325  18.167  0.00  0.00    +0.000 NA
ATOM     16  C   UNL     1       0.372   2.763  18.812  0.00  0.00    +0.000 A 
ATOM     17  C   UNL     1       0.598   2.909  20.160  0.00  0.00    +0.000 A 
ATOM     18  N   UNL     1       1.909   2.579  20.346  0.00  0.00    +0.000 N 
ATOM     19  C   UNL     1       2.609   2.596  21.604  0.00  0.00    +0.000 C 
ENDBRANCH  13  14
ENDBRANCH  10  13
ENDBRANCH   6   7
BRANCH   1  20
ATOM     20  C   UNL     1       3.863   7.138  16.836  0.00  0.00    +0.000 C 
BRANCH  20  24
ATOM     21  C   UNL     1       1.409   8.662  20.057  0.00  0.00    +0.000 A 
ATOM     22  C   UNL     1       2.060   7.422  20.178  0.00  0.00    +0.000 A 
ATOM     23  C   UNL     1       2.835   6.907  19.139  0.00  0.00    +0.000 A 
ATOM     24  C   UNL     1       2.916   7.582  17.921  0.00  0.00    +0.000 A 
ATOM     25  C   UNL     1       2.174   8.760  17.766  0.00  0.00    +0.000 A 
ATOM     26  C   UNL     1       1.412   9.308  18.813  0.00  0.00    +0.000 A 
BRANCH  21  28
ATOM     27  C   UNL     1      -0.306   8.490  21.670  0.00  0.00    +0.000 C 
ATOM     28  O   UNL     1       0.800   9.236  21.143  0.00  0.00    +0.000 OA
ENDBRANCH  21  28
BRANCH  26  29
ATOM     29  O   UNL     1       0.805  10.467  18.417  0.00  0.00    +0.000 OA
ATOM     30  C   UNL     1      -0.595  10.501  18.207  0.00  0.00    +0.000 C 
ENDBRANCH  26  29
ENDBRANCH  20  24
ENDBRANCH   1  20
TORSDOF 7
ENDMDL
MODEL 7
REMARK VINA RESULT:      -7.3      4.371      6.803
REMARK  Name = 
REMARK  11 active torsions:
REMARK  status: ('A' for Active; 'I' for Inactive)
REMARK    1  A    between atoms: C_1  and  O_2
REMARK    2  A    between atoms: O_2  and  C_3
REMARK    3  A    between atoms: C_6  and  C_7
REMARK    4  A    between atoms: C_7  and  N_8
REMARK    5  A    between atoms: C_10  and  C_11
REMARK    6  A    between atoms: C_13  and  N_14
REMARK    7  A    between atoms: N_17  and  C_18
REMARK    8  A    between atoms: C_18  and  C_19
REMARK    9  A    between atoms: N_23  and  C_24
REMARK   10  A    between atoms: C_26  and  O_27
REMARK   11  A    between atoms: O_27  and  C_28
REMARK                            x       y       z     vdW  Elec       q    Type
REMARK                         _______ _______ _______ _____ _____    ______ ____
ROOT
ATOM      1  N   UNL     1       5.898   5.955  16.847  0.00  0.00    +0.000 N 
ATOM      2  N   UNL     1       6.352   7.209  16.614  0.00  0.00    +0.000 NA
ATOM      3  C   UNL     1       7.352   7.366  17.482  0.00  0.00    +0.000 A 
ATOM      4  C   UNL     1       8.165   8.606  17.523  0.00  0.00    +0.000 C 
ATOM      5  C   UNL     1       7.520   6.223  18.284  0.00  0.00    +0.000 A 
ATOM      6  C   UNL     1       6.559   5.315  17.882  0.00  0.00    +0.000 A 
ENDROOT
BRANCH   6   7
ATOM      7  N   UNL     1       6.337   4.033  18.395  0.00  0.00    +0.000 N 
ATOM      8  C   UNL     1       5.229   3.739  19.242  0.00  0.00    +0.000 C 
ATOM      9  O   UNL     1       4.405   4.578  19.568  0.00  0.00    +0.000 OA
ATOM     10  N   UNL     1       5.195   2.447  19.642  0.00  0.00    +0.000 N 
ATOM     11  H   UNL     1       6.945   3.278  18.116  0.00  0.00    +0.000 HD
ATOM     12  H   UNL     1       5.908   1.753  19.469  0.00  0.00    +0.000 HD
BRANCH  10  13
ATOM     13  C   UNL     1       4.091   2.059  20.496  0.00  0.00    +0.000 C 
BRANCH  13  14
ATOM     14  C   UNL     1       2.791   2.265  19.804  0.00  0.00    +0.000 A 
ATOM     15  N   UNL     1       2.508   1.918  18.557  0.00  0.00    +0.000 NA
ATOM     16  C   UNL     1       1.181   2.261  18.381  0.00  0.00    +0.000 A 
ATOM     17  C   UNL     1       0.661   2.810  19.529  0.00  0.00    +0.000 A 
ATOM     18  N   UNL     1       1.693   2.828  20.422  0.00  0.00    +0.000 N 
ATOM     19  C   UNL     1       1.630   3.333  21.769  0.00  0.00    +0.000 C 
ENDBRANCH  13  14
ENDBRANCH  10  13
ENDBRANCH   6   7
BRANCH   1  20
ATOM     20  C   UNL     1       4.944   5.389  15.906  0.00  0.00    +0.000 C 
BRANCH  20  24
ATOM     21  C   UNL     1       6.777   3.713  12.363  0.00  0.00    +0.000 A 
ATOM     22  C   UNL     1       7.524   4.512  13.246  0.00  0.00    +0.000 A 
ATOM     23  C   UNL     1       6.940   5.078  14.379  0.00  0.00    +0.000 A 
ATOM     24  C   UNL     1       5.574   4.926  14.618  0.00  0.00    +0.000 A 
ATOM     25  C   UNL     1       4.812   4.224  13.676  0.00  0.00    +0.000 A 
ATOM     26  C   UNL     1       5.390   3.621  12.544  0.00  0.00    +0.000 A 
BRANCH  21  28
ATOM     27  C   UNL     1       7.114   1.616  11.333  0.00  0.00    +0.000 C 
ATOM     28  O   UNL     1       7.398   3.022  11.356  0.00  0.00    +0.000 OA
ENDBRANCH  21  28
BRANCH  26  29
ATOM     29  O   UNL     1       4.441   2.980  11.797  0.00  0.00    +0.000 OA
ATOM     30  C   UNL     1       3.818   3.647  10.714  0.00  0.00    +0.000 C 
ENDBRANCH  26  29
ENDBRANCH  20  24
ENDBRANCH   1  20
TORSDOF 7
ENDMDL
MODEL 8
REMARK VINA RESULT:      -7.3      2.288      2.862
REMARK  Name = 
REMARK  11 active torsions:
REMARK  status: ('A' for Active; 'I' for Inactive)
REMARK    1  A    between atoms: C_1  and  O_2
REMARK    2  A    between atoms: O_2  and  C_3
REMARK    3  A    between atoms: C_6  and  C_7
REMARK    4  A    between atoms: C_7  and  N_8
REMARK    5  A    between atoms: C_10  and  C_11
REMARK    6  A    between atoms: C_13  and  N_14
REMARK    7  A    between atoms: N_17  and  C_18
REMARK    8  A    between atoms: C_18  and  C_19
REMARK    9  A    between atoms: N_23  and  C_24
REMARK   10  A    between atoms: C_26  and  O_27
REMARK   11  A    between atoms: O_27  and  C_28
REMARK                            x       y       z     vdW  Elec       q    Type
REMARK                         _______ _______ _______ _____ _____    ______ ____
ROOT
ATOM      1  N   UNL     1       3.284   4.512  19.796  0.00  0.00    +0.000 N 
ATOM      2  N   UNL     1       3.163   3.358  19.098  0.00  0.00    +0.000 NA
ATOM      3  C   UNL     1       1.867   3.053  19.184  0.00  0.00    +0.000 A 
ATOM      4  C   UNL     1       1.296   1.867  18.503  0.00  0.00    +0.000 C 
ATOM      5  C   UNL     1       1.168   3.999  19.957  0.00  0.00    +0.000 A 
ATOM      6  C   UNL     1       2.097   4.935  20.369  0.00  0.00    +0.000 A 
ENDROOT
BRANCH   6   7
ATOM      7  N   UNL     1       1.868   6.064  21.161  0.00  0.00    +0.000 N 
ATOM      8  C   UNL     1       1.743   7.368  20.601  0.00  0.00    +0.000 C 
ATOM      9  O   UNL     1       1.824   7.583  19.402  0.00  0.00    +0.000 OA
ATOM     10  N   UNL     1       1.534   8.328  21.531  0.00  0.00    +0.000 N 
ATOM     11  H   UNL     1       1.730   5.950  22.155  0.00  0.00    +0.000 HD
ATOM     12  H   UNL     1       1.557   8.199  22.532  0.00  0.00    +0.000 HD
BRANCH  10  13
ATOM     13  C   UNL     1       1.384   9.684  21.045  0.00  0.00    +0.000 C 
BRANCH  13  14
ATOM     14  C   UNL     1       0.305  10.392  21.784  0.00  0.00    +0.000 A 
ATOM     15  N   UNL     1      -0.444   9.880  22.751  0.00  0.00    +0.000 NA
ATOM     16  C   UNL     1      -1.261  10.917  23.159  0.00  0.00    +0.000 A 
ATOM     17  C   UNL     1      -0.999  12.059  22.441  0.00  0.00    +0.000 A 
ATOM     18  N   UNL     1      -0.018  11.714  21.556  0.00  0.00    +0.000 N 
ATOM     19  C   UNL     1       0.575  12.588  20.577  0.00  0.00    +0.000 C 
ENDBRANCH  13  14
ENDBRANCH  10  13
ENDBRANCH   6   7
BRANCH   1  20
ATOM     20  C   UNL     1       4.544   5.233  19.707  0.00  0.00    +0.000 C 
BRANCH  20  24
ATOM     21  C   UNL     1       6.250   5.151  15.732  0.00  0.00    +0.000 A 
ATOM     22  C   UNL     1       5.326   4.171  16.135  0.00  0.00    +0.000 A 
ATOM     23  C   UNL     1       4.786   4.171  17.421  0.00  0.00    +0.000 A 
ATOM     24  C   UNL     1       5.216   5.105  18.364  0.00  0.00    +0.000 A 
ATOM     25  C   UNL     1       6.219   6.009  17.991  0.00  0.00    +0.000 A 
ATOM     26  C   UNL     1       6.752   6.041  16.691  0.00  0.00    +0.000 A 
BRANCH  21  28
ATOM     27  C   UNL     1       6.402   4.062  13.643  0.00  0.00    +0.000 C 
ATOM     28  O   UNL     1       6.636   5.244  14.419  0.00  0.00    +0.000 OA
ENDBRANCH  21  28
BRANCH  26  29
ATOM     29  O   UNL     1       7.696   7.024  16.577  0.00  0.00    +0.000 OA
ATOM     30  C   UNL     1       7.814   8.016  17.581  0.00  0.00    +0.000 C 
ENDBRANCH  26  29
ENDBRANCH  20  24
ENDBRANCH   1  20
TORSDOF 7
ENDMDL
MODEL 9
REMARK VINA RESULT:      -7.3      0.984      1.633
REMARK  Name = 
REMARK  11 active torsions:
REMARK  status: ('A' for Active; 'I' for Inactive)
REMARK    1  A    between atoms: C_1  and  O_2
REMARK    2  A    between atoms: O_2  and  C_3
REMARK    3  A    between atoms: C_6  and  C_7
REMARK    4  A    between atoms: C_7  and  N_8
REMARK    5  A    between atoms: C_10  and  C_11
REMARK    6  A    between atoms: C_13  and  N_14
REMARK    7  A    between atoms: N_17  and  C_18
REMARK    8  A    between atoms: C_18  and  C_19
REMARK    9  A    between atoms: N_23  and  C_24
REMARK   10  A    between atoms: C_26  and  O_27
REMARK   11  A    between atoms: O_27  and  C_28
REMARK                            x       y       z     vdW  Elec       q    Type
REMARK                         _______ _______ _______ _____ _____    ______ ____
ROOT
ATOM      1  N   UNL     1       3.076   3.769  18.827  0.00  0.00    +0.000 N 
ATOM      2  N   UNL     1       3.039   2.849  19.820  0.00  0.00    +0.000 NA
ATOM      3  C   UNL     1       2.030   3.242  20.599  0.00  0.00    +0.000 A 
ATOM      4  C   UNL     1       1.615   2.466  21.793  0.00  0.00    +0.000 C 
ATOM      5  C   UNL     1       1.441   4.425  20.117  0.00  0.00    +0.000 A 
ATOM      6  C   UNL     1       2.137   4.776  18.976  0.00  0.00    +0.000 A 
ENDROOT
BRANCH   6   7
ATOM      7  N   UNL     1       1.912   5.883  18.153  0.00  0.00    +0.000 N 
ATOM      8  C   UNL     1       2.023   7.220  18.637  0.00  0.00    +0.000 C 
ATOM      9  O   UNL     1       2.324   7.482  19.791  0.00  0.00    +0.000 OA
ATOM     10  N   UNL     1       1.757   8.150  17.692  0.00  0.00    +0.000 N 
ATOM     11  H   UNL     1       1.719   5.740  17.173  0.00  0.00    +0.000 HD
ATOM     12  H   UNL     1       1.414   7.968  16.760  0.00  0.00    +0.000 HD
BRANCH  10  13
ATOM     13  C   UNL     1       1.860   9.537  18.097  0.00  0.00    +0.000 C 
BRANCH  13  14
ATOM     14  C   UNL     1       0.511  10.118  18.333  0.00  0.00    +0.000 A 
ATOM     15  N   UNL     1      -0.607   9.773  17.712  0.00  0.00    +0.000 NA
ATOM     16  C   UNL     1      -1.595  10.541  18.297  0.00  0.00    +0.000 A 
ATOM     17  C   UNL     1      -1.072  11.347  19.279  0.00  0.00    +0.000 A 
ATOM     18  N   UNL     1       0.269  11.089  19.284  0.00  0.00    +0.000 N 
ATOM     19  C   UNL     1       1.242  11.713  20.142  0.00  0.00    +0.000 C 
ENDBRANCH  13  14
ENDBRANCH  10  13
ENDBRANCH   6   7
BRANCH   1  20
ATOM     20  C   UNL     1       3.930   3.502  17.681  0.00  0.00    +0.000 C 
BRANCH  20  24
ATOM     21  C   UNL     1       6.983   6.485  16.975  0.00  0.00    +0.000 A 
ATOM     22  C   UNL     1       6.058   6.642  18.021  0.00  0.00    +0.000 A 
ATOM     23  C   UNL     1       5.054   5.700  18.246  0.00  0.00    +0.000 A 
ATOM     24  C   UNL     1       4.899   4.616  17.381  0.00  0.00    +0.000 A 
ATOM     25  C   UNL     1       5.752   4.526  16.274  0.00  0.00    +0.000 A 
ATOM     26  C   UNL     1       6.788   5.450  16.050  0.00  0.00    +0.000 A 
BRANCH  21  28
ATOM     27  C   UNL     1       8.026   8.457  17.746  0.00  0.00    +0.000 C 
ATOM     28  O   UNL     1       8.066   7.320  16.873  0.00  0.00    +0.000 OA
ENDBRANCH  21  28
BRANCH  26  29
ATOM     29  O   UNL     1       7.489   5.130  14.921  0.00  0.00    +0.000 OA
ATOM     30  C   UNL     1       6.807   4.681  13.763  0.00  0.00    +0.000 C 
ENDBRANCH  26  29
ENDBRANCH  20  24
ENDBRANCH   1  20
TORSDOF 7
ENDMDL
