MODEL 1
REMARK VINA RESULT:      -8.2      0.000      0.000
REMARK  Name = 
REMARK  10 active torsions:
REMARK  status: ('A' for Active; 'I' for Inactive)
REMARK    1  A    between atoms: S_2  and  C_4
REMARK    2  A    between atoms: S_2  and  N_19
REMARK    3  A    between atoms: C_4  and  C_5
REMARK    4  A    between atoms: C_5  and  C_6
REMARK    5  A    between atoms: C_6  and  N_7
REMARK    6  A    between atoms: C_10  and  C_11
REMARK    7  A    between atoms: N_19  and  C_20
REMARK    8  A    between atoms: C_20  and  C_21
REMARK    9  A    between atoms: C_21  and  N_22
REMARK   10  A    between atoms: N_22  and  C_23
REMARK                            x       y       z     vdW  Elec       q    Type
REMARK                         _______ _______ _______ _____ _____    ______ ____
ROOT
ATOM      1  O   UNL     1       8.717   5.199  19.842  0.00  0.00    +0.000 OA
ATOM      2  S   UNL     1       7.500   5.437  19.103  0.00  0.00    +0.000 S 
ATOM      3  O   UNL     1       6.205   5.473  19.756  0.00  0.00    +0.000 OA
ENDROOT
BRANCH   2   4
ATOM      4  N   UNL     1       7.453   4.249  17.897  0.00  0.00    +0.000 NA
ATOM      5  H   UNL     1       6.768   3.528  18.136  0.00  0.00    +0.000 HD
BRANCH   4   6
ATOM      6  C   UNL     1       7.182   4.764  16.516  0.00  0.00    +0.000 C 
BRANCH   6   7
ATOM      7  C   UNL     1       5.769   4.430  16.023  0.00  0.00    +0.000 C 
BRANCH   7   8
ATOM      8  N   UNL     1       4.956   3.791  17.078  0.00  0.00    +0.000 N 
ATOM      9  H   UNL     1       5.576   3.427  17.798  0.00  0.00    +0.000 HD
BRANCH   8  10
ATOM     10  C   UNL     1       4.058   4.723  17.694  0.00  0.00    +0.000 A 
ATOM     11  C   UNL     1       3.992   6.047  17.220  0.00  0.00    +0.000 A 
ATOM     12  C   UNL     1       3.209   7.004  17.851  0.00  0.00    +0.000 A 
ATOM     13  C   UNL     1       2.469   6.656  18.974  0.00  0.00    +0.000 A 
ATOM     14  C   UNL     1       2.462   5.336  19.445  0.00  0.00    +0.000 A 
ATOM     15  C   UNL     1       1.734   5.020  20.603  0.00  0.00    +0.000 A 
ATOM     16  C   UNL     1       1.675   3.713  21.080  0.00  0.00    +0.000 A 
ATOM     17  C   UNL     1       2.303   2.696  20.375  0.00  0.00    +0.000 A 
ATOM     18  C   UNL     1       3.051   2.999  19.233  0.00  0.00    +0.000 A 
ATOM     19  C   UNL     1       3.199   4.330  18.767  0.00  0.00    +0.000 A 
ENDBRANCH   8  10
ENDBRANCH   7   8
ENDBRANCH   6   7
ENDBRANCH   4   6
ENDBRANCH   2   4
BRANCH   2  20
ATOM     20  C   UNL     1       7.679   6.927  18.147  0.00  0.00    +0.000 C 
BRANCH  20  21
ATOM     21  C   UNL     1       8.589   7.896  18.889  0.00  0.00    +0.000 C 
BRANCH  21  22
ATOM     22  C   UNL     1       8.494   9.314  18.334  0.00  0.00    +0.000 C 
BRANCH  22  23
ATOM     23  N   UNL     1       9.590  10.200  18.764  0.00  0.00    +0.000 NA
ATOM     24  C   UNL     1       9.822  11.279  17.785  0.00  0.00    +0.000 C 
ATOM     25  C   UNL     1      10.842  12.313  18.268  0.00  0.00    +0.000 C 
ATOM     26  C   UNL     1      10.431  12.935  19.617  0.00  0.00    +0.000 C 
ATOM     27  C   UNL     1      10.303  11.748  20.592  0.00  0.00    +0.000 C 
ATOM     28  C   UNL     1       9.271  10.731  20.102  0.00  0.00    +0.000 C 
BRANCH  26  29
ATOM     29  C   UNL     1       9.215  13.869  19.560  0.00  0.00    +0.000 A 
ATOM     30  C   UNL     1       8.377  14.054  20.675  0.00  0.00    +0.000 A 
ATOM     31  C   UNL     1       7.271  14.910  20.626  0.00  0.00    +0.000 A 
ATOM     32  C   UNL     1       6.991  15.623  19.468  0.00  0.00    +0.000 A 
ATOM     33  C   UNL     1       7.824  15.491  18.364  0.00  0.00    +0.000 A 
ATOM     34  C   UNL     1       8.929  14.633  18.414  0.00  0.00    +0.000 A 
ENDBRANCH  26  29
ENDBRANCH  22  23
ENDBRANCH  21  22
ENDBRANCH  20  21
ENDBRANCH   2  20
TORSDOF 10
ENDMDL
MODEL 2
REMARK VINA RESULT:      -8.1      1.040      2.300
REMARK  Name = 
REMARK  10 active torsions:
REMARK  status: ('A' for Active; 'I' for Inactive)
REMARK    1  A    between atoms: S_2  and  C_4
REMARK    2  A    between atoms: S_2  and  N_19
REMARK    3  A    between atoms: C_4  and  C_5
REMARK    4  A    between atoms: C_5  and  C_6
REMARK    5  A    between atoms: C_6  and  N_7
REMARK    6  A    between atoms: C_10  and  C_11
REMARK    7  A    between atoms: N_19  and  C_20
REMARK    8  A    between atoms: C_20  and  C_21
REMARK    9  A    between atoms: C_21  and  N_22
REMARK   10  A    between atoms: N_22  and  C_23
REMARK                            x       y       z     vdW  Elec       q    Type
REMARK                         _______ _______ _______ _____ _____    ______ ____
ROOT
ATOM      1  O   UNL     1       8.402   5.207  19.498  0.00  0.00    +0.000 OA
ATOM      2  S   UNL     1       7.134   5.486  18.865  0.00  0.00    +0.000 S 
ATOM      3  O   UNL     1       5.924   5.687  19.638  0.00  0.00    +0.000 OA
ENDROOT
BRANCH   2   4
ATOM      4  N   UNL     1       6.868   4.210  17.784  0.00  0.00    +0.000 NA
ATOM      5  H   UNL     1       6.805   3.324  18.291  0.00  0.00    +0.000 HD
BRANCH   4   6
ATOM      6  C   UNL     1       5.668   4.372  16.902  0.00  0.00    +0.000 C 
BRANCH   6   7
ATOM      7  C   UNL     1       4.605   3.291  17.137  0.00  0.00    +0.000 C 
BRANCH   7   8
ATOM      8  N   UNL     1       3.241   3.857  17.153  0.00  0.00    +0.000 N 
ATOM      9  H   UNL     1       2.586   3.147  16.835  0.00  0.00    +0.000 HD
BRANCH   8  10
ATOM     10  C   UNL     1       2.850   4.265  18.470  0.00  0.00    +0.000 A 
ATOM     11  C   UNL     1       2.700   3.299  19.485  0.00  0.00    +0.000 A 
ATOM     12  C   UNL     1       2.229   3.640  20.745  0.00  0.00    +0.000 A 
ATOM     13  C   UNL     1       1.898   4.960  21.021  0.00  0.00    +0.000 A 
ATOM     14  C   UNL     1       2.084   5.962  20.058  0.00  0.00    +0.000 A 
ATOM     15  C   UNL     1       1.708   7.281  20.353  0.00  0.00    +0.000 A 
ATOM     16  C   UNL     1       1.911   8.308  19.434  0.00  0.00    +0.000 A 
ATOM     17  C   UNL     1       2.541   8.035  18.228  0.00  0.00    +0.000 A 
ATOM     18  C   UNL     1       2.901   6.722  17.912  0.00  0.00    +0.000 A 
ATOM     19  C   UNL     1       2.634   5.641  18.790  0.00  0.00    +0.000 A 
ENDBRANCH   8  10
ENDBRANCH   7   8
ENDBRANCH   6   7
ENDBRANCH   4   6
ENDBRANCH   2   4
BRANCH   2  20
ATOM     20  C   UNL     1       7.324   6.870  17.763  0.00  0.00    +0.000 C 
BRANCH  20  21
ATOM     21  C   UNL     1       8.299   7.869  18.371  0.00  0.00    +0.000 C 
BRANCH  21  22
ATOM     22  C   UNL     1       7.957   9.307  17.996  0.00  0.00    +0.000 C 
BRANCH  22  23
ATOM     23  N   UNL     1       9.066  10.258  18.194  0.00  0.00    +0.000 NA
ATOM     24  C   UNL     1       8.705  11.607  17.720  0.00  0.00    +0.000 C 
ATOM     25  C   UNL     1       9.767  12.659  18.052  0.00  0.00    +0.000 C 
ATOM     26  C   UNL     1      10.063  12.717  19.563  0.00  0.00    +0.000 C 
ATOM     27  C   UNL     1      10.517  11.293  19.945  0.00  0.00    +0.000 C 
ATOM     28  C   UNL     1       9.440  10.257  19.619  0.00  0.00    +0.000 C 
BRANCH  26  29
ATOM     29  C   UNL     1       8.934  13.296  20.427  0.00  0.00    +0.000 A 
ATOM     30  C   UNL     1       8.773  12.925  21.773  0.00  0.00    +0.000 A 
ATOM     31  C   UNL     1       7.748  13.457  22.563  0.00  0.00    +0.000 A 
ATOM     32  C   UNL     1       6.874  14.396  22.032  0.00  0.00    +0.000 A 
ATOM     33  C   UNL     1       7.033  14.812  20.716  0.00  0.00    +0.000 A 
ATOM     34  C   UNL     1       8.058  14.277  19.927  0.00  0.00    +0.000 A 
ENDBRANCH  26  29
ENDBRANCH  22  23
ENDBRANCH  21  22
ENDBRANCH  20  21
ENDBRANCH   2  20
TORSDOF 10
ENDMDL
MODEL 3
REMARK VINA RESULT:      -8.1      4.958      7.535
REMARK  Name = 
REMARK  10 active torsions:
REMARK  status: ('A' for Active; 'I' for Inactive)
REMARK    1  A    between atoms: S_2  and  C_4
REMARK    2  A    between atoms: S_2  and  N_19
REMARK    3  A    between atoms: C_4  and  C_5
REMARK    4  A    between atoms: C_5  and  C_6
REMARK    5  A    between atoms: C_6  and  N_7
REMARK    6  A    between atoms: C_10  and  C_11
REMARK    7  A    between atoms: N_19  and  C_20
REMARK    8  A    between atoms: C_20  and  C_21
REMARK    9  A    between atoms: C_21  and  N_22
REMARK   10  A    between atoms: N_22  and  C_23
REMARK                            x       y       z     vdW  Elec       q    Type
REMARK                         _______ _______ _______ _____ _____    ______ ____
ROOT
ATOM      1  O   UNL     1       3.551   2.649  20.484  0.00  0.00    +0.000 OA
ATOM      2  S   UNL     1       2.274   3.192  20.883  0.00  0.00    +0.000 S 
ATOM      3  O   UNL     1       1.453   2.548  21.890  0.00  0.00    +0.000 OA
ENDROOT
BRANCH   2   4
ATOM      4  N   UNL     1       1.364   3.323  19.461  0.00  0.00    +0.000 NA
ATOM      5  H   UNL     1       1.364   4.290  19.128  0.00  0.00    +0.000 HD
BRANCH   4   6
ATOM      6  C   UNL     1       1.791   2.408  18.353  0.00  0.00    +0.000 C 
BRANCH   6   7
ATOM      7  C   UNL     1       2.655   3.112  17.300  0.00  0.00    +0.000 C 
BRANCH   7   8
ATOM      8  N   UNL     1       4.094   2.849  17.505  0.00  0.00    +0.000 N 
ATOM      9  H   UNL     1       4.313   1.921  17.153  0.00  0.00    +0.000 HD
BRANCH   8  10
ATOM     10  C   UNL     1       4.911   3.796  16.805  0.00  0.00    +0.000 A 
ATOM     11  C   UNL     1       4.837   3.880  15.401  0.00  0.00    +0.000 A 
ATOM     12  C   UNL     1       5.682   4.712  14.679  0.00  0.00    +0.000 A 
ATOM     13  C   UNL     1       6.622   5.485  15.349  0.00  0.00    +0.000 A 
ATOM     14  C   UNL     1       6.692   5.474  16.748  0.00  0.00    +0.000 A 
ATOM     15  C   UNL     1       7.676   6.237  17.396  0.00  0.00    +0.000 A 
ATOM     16  C   UNL     1       7.753   6.278  18.787  0.00  0.00    +0.000 A 
ATOM     17  C   UNL     1       6.814   5.595  19.546  0.00  0.00    +0.000 A 
ATOM     18  C   UNL     1       5.842   4.813  18.915  0.00  0.00    +0.000 A 
ATOM     19  C   UNL     1       5.787   4.684  17.504  0.00  0.00    +0.000 A 
ENDBRANCH   8  10
ENDBRANCH   7   8
ENDBRANCH   6   7
ENDBRANCH   4   6
ENDBRANCH   2   4
BRANCH   2  20
ATOM     20  C   UNL     1       2.484   4.896  21.347  0.00  0.00    +0.000 C 
BRANCH  20  21
ATOM     21  C   UNL     1       1.948   5.791  20.238  0.00  0.00    +0.000 C 
BRANCH  21  22
ATOM     22  C   UNL     1       1.189   6.995  20.787  0.00  0.00    +0.000 C 
BRANCH  22  23
ATOM     23  N   UNL     1       1.624   8.285  20.222  0.00  0.00    +0.000 NA
ATOM     24  C   UNL     1       1.461   8.310  18.756  0.00  0.00    +0.000 C 
ATOM     25  C   UNL     1       1.750   9.685  18.148  0.00  0.00    +0.000 C 
ATOM     26  C   UNL     1       0.869  10.784  18.773  0.00  0.00    +0.000 C 
ATOM     27  C   UNL     1       1.175  10.742  20.284  0.00  0.00    +0.000 C 
ATOM     28  C   UNL     1       0.869   9.367  20.878  0.00  0.00    +0.000 C 
BRANCH  26  29
ATOM     29  C   UNL     1      -0.619  10.715  18.405  0.00  0.00    +0.000 A 
ATOM     30  C   UNL     1      -1.556  11.605  18.959  0.00  0.00    +0.000 A 
ATOM     31  C   UNL     1      -2.912  11.546  18.620  0.00  0.00    +0.000 A 
ATOM     32  C   UNL     1      -3.361  10.611  17.697  0.00  0.00    +0.000 A 
ATOM     33  C   UNL     1      -2.452   9.744  17.104  0.00  0.00    +0.000 A 
ATOM     34  C   UNL     1      -1.096   9.803  17.446  0.00  0.00    +0.000 A 
ENDBRANCH  26  29
ENDBRANCH  22  23
ENDBRANCH  21  22
ENDBRANCH  20  21
ENDBRANCH   2  20
TORSDOF 10
ENDMDL
MODEL 4
REMARK VINA RESULT:      -7.9      4.905      7.528
REMARK  Name = 
REMARK  10 active torsions:
REMARK  status: ('A' for Active; 'I' for Inactive)
REMARK    1  A    between atoms: S_2  and  C_4
REMARK    2  A    between atoms: S_2  and  N_19
REMARK    3  A    between atoms: C_4  and  C_5
REMARK    4  A    between atoms: C_5  and  C_6
REMARK    5  A    between atoms: C_6  and  N_7
REMARK    6  A    between atoms: C_10  and  C_11
REMARK    7  A    between atoms: N_19  and  C_20
REMARK    8  A    between atoms: C_20  and  C_21
REMARK    9  A    between atoms: C_21  and  N_22
REMARK   10  A    between atoms: N_22  and  C_23
REMARK                            x       y       z     vdW  Elec       q    Type
REMARK                         _______ _______ _______ _____ _____    ______ ____
ROOT
ATOM      1  O   UNL     1       2.387   2.715  22.205  0.00  0.00    +0.000 OA
ATOM      2  S   UNL     1       2.133   3.240  20.884  0.00  0.00    +0.000 S 
ATOM      3  O   UNL     1       0.797   3.280  20.323  0.00  0.00    +0.000 OA
ENDROOT
BRANCH   2   4
ATOM      4  N   UNL     1       3.122   2.349  19.837  0.00  0.00    +0.000 NA
ATOM      5  H   UNL     1       3.419   1.479  20.284  0.00  0.00    +0.000 HD
BRANCH   4   6
ATOM      6  C   UNL     1       2.512   2.046  18.501  0.00  0.00    +0.000 C 
BRANCH   6   7
ATOM      7  C   UNL     1       3.193   2.800  17.352  0.00  0.00    +0.000 C 
BRANCH   7   8
ATOM      8  N   UNL     1       4.663   2.819  17.502  0.00  0.00    +0.000 N 
ATOM      9  H   UNL     1       5.046   1.964  17.106  0.00  0.00    +0.000 HD
BRANCH   8  10
ATOM     10  C   UNL     1       5.252   3.931  16.815  0.00  0.00    +0.000 A 
ATOM     11  C   UNL     1       4.999   4.117  15.442  0.00  0.00    +0.000 A 
ATOM     12  C   UNL     1       5.629   5.122  14.720  0.00  0.00    +0.000 A 
ATOM     13  C   UNL     1       6.527   5.968  15.358  0.00  0.00    +0.000 A 
ATOM     14  C   UNL     1       6.765   5.853  16.734  0.00  0.00    +0.000 A 
ATOM     15  C   UNL     1       7.704   6.698  17.346  0.00  0.00    +0.000 A 
ATOM     16  C   UNL     1       7.940   6.636  18.717  0.00  0.00    +0.000 A 
ATOM     17  C   UNL     1       7.202   5.762  19.502  0.00  0.00    +0.000 A 
ATOM     18  C   UNL     1       6.279   4.898  18.904  0.00  0.00    +0.000 A 
ATOM     19  C   UNL     1       6.074   4.878  17.501  0.00  0.00    +0.000 A 
ENDBRANCH   8  10
ENDBRANCH   7   8
ENDBRANCH   6   7
ENDBRANCH   4   6
ENDBRANCH   2   4
BRANCH   2  20
ATOM     20  C   UNL     1       2.836   4.870  20.759  0.00  0.00    +0.000 C 
BRANCH  20  21
ATOM     21  C   UNL     1       1.975   5.720  19.834  0.00  0.00    +0.000 C 
BRANCH  21  22
ATOM     22  C   UNL     1       1.277   6.853  20.580  0.00  0.00    +0.000 C 
BRANCH  22  23
ATOM     23  N   UNL     1       1.694   8.200  20.150  0.00  0.00    +0.000 NA
ATOM     24  C   UNL     1       1.574   8.356  18.688  0.00  0.00    +0.000 C 
ATOM     25  C   UNL     1       1.844   9.788  18.219  0.00  0.00    +0.000 C 
ATOM     26  C   UNL     1       0.917  10.804  18.914  0.00  0.00    +0.000 C 
ATOM     27  C   UNL     1       1.180  10.629  20.424  0.00  0.00    +0.000 C 
ATOM     28  C   UNL     1       0.892   9.198  20.879  0.00  0.00    +0.000 C 
BRANCH  26  29
ATOM     29  C   UNL     1      -0.557  10.734  18.495  0.00  0.00    +0.000 A 
ATOM     30  C   UNL     1      -0.991   9.877  17.468  0.00  0.00    +0.000 A 
ATOM     31  C   UNL     1      -2.336   9.808  17.089  0.00  0.00    +0.000 A 
ATOM     32  C   UNL     1      -3.286  10.578  17.747  0.00  0.00    +0.000 A 
ATOM     33  C   UNL     1      -2.893  11.404  18.792  0.00  0.00    +0.000 A 
ATOM     34  C   UNL     1      -1.547  11.473  19.169  0.00  0.00    +0.000 A 
ENDBRANCH  26  29
ENDBRANCH  22  23
ENDBRANCH  21  22
ENDBRANCH  20  21
ENDBRANCH   2  20
TORSDOF 10
ENDMDL
MODEL 5
REMARK VINA RESULT:      -7.9      1.792      9.565
REMARK  Name = 
REMARK  10 active torsions:
REMARK  status: ('A' for Active; 'I' for Inactive)
REMARK    1  A    between atoms: S_2  and  C_4
REMARK    2  A    between atoms: S_2  and  N_19
REMARK    3  A    between atoms: C_4  and  C_5
REMARK    4  A    between atoms: C_5  and  C_6
REMARK    5  A    between atoms: C_6  and  N_7
REMARK    6  A    between atoms: C_10  and  C_11
REMARK    7  A    between atoms: N_19  and  C_20
REMARK    8  A    between atoms: C_20  and  C_21
REMARK    9  A    between atoms: C_21  and  N_22
REMARK   10  A    between atoms: N_22  and  C_23
REMARK                            x       y       z     vdW  Elec       q    Type
REMARK                         _______ _______ _______ _____ _____    ______ ____
ROOT
ATOM      1  O   UNL     1       6.129   6.341  18.421  0.00  0.00    +0.000 OA
ATOM      2  S   UNL     1       7.138   5.794  17.545  0.00  0.00    +0.000 S 
ATOM      3  O   UNL     1       7.943   4.651  17.929  0.00  0.00    +0.000 OA
ENDROOT
BRANCH   2   4
ATOM      4  N   UNL     1       8.180   7.080  17.183  0.00  0.00    +0.000 NA
ATOM      5  H   UNL     1       8.436   7.061  16.194  0.00  0.00    +0.000 HD
BRANCH   4   6
ATOM      6  C   UNL     1       7.654   8.437  17.543  0.00  0.00    +0.000 C 
BRANCH   6   7
ATOM      7  C   UNL     1       8.548   9.175  18.546  0.00  0.00    +0.000 C 
BRANCH   7   8
ATOM      8  N   UNL     1       9.207  10.347  17.936  0.00  0.00    +0.000 N 
ATOM      9  H   UNL     1       8.544  10.818  17.326  0.00  0.00    +0.000 HD
BRANCH   8  10
ATOM     10  C   UNL     1       9.645  11.286  18.927  0.00  0.00    +0.000 A 
ATOM     11  C   UNL     1       9.411  11.023  20.290  0.00  0.00    +0.000 A 
ATOM     12  C   UNL     1       9.730  11.951  21.272  0.00  0.00    +0.000 A 
ATOM     13  C   UNL     1      10.295  13.167  20.911  0.00  0.00    +0.000 A 
ATOM     14  C   UNL     1      10.597  13.447  19.571  0.00  0.00    +0.000 A 
ATOM     15  C   UNL     1      11.135  14.698  19.231  0.00  0.00    +0.000 A 
ATOM     16  C   UNL     1      11.480  14.997  17.916  0.00  0.00    +0.000 A 
ATOM     17  C   UNL     1      11.337  14.030  16.931  0.00  0.00    +0.000 A 
ATOM     18  C   UNL     1      10.781  12.787  17.251  0.00  0.00    +0.000 A 
ATOM     19  C   UNL     1      10.344  12.479  18.564  0.00  0.00    +0.000 A 
ENDBRANCH   8  10
ENDBRANCH   7   8
ENDBRANCH   6   7
ENDBRANCH   4   6
ENDBRANCH   2   4
BRANCH   2  20
ATOM     20  C   UNL     1       6.409   5.451  15.958  0.00  0.00    +0.000 C 
BRANCH  20  21
ATOM     21  C   UNL     1       5.008   4.890  16.157  0.00  0.00    +0.000 C 
BRANCH  21  22
ATOM     22  C   UNL     1       5.028   3.411  16.529  0.00  0.00    +0.000 C 
BRANCH  22  23
ATOM     23  N   UNL     1       4.038   3.037  17.554  0.00  0.00    +0.000 NA
ATOM     24  C   UNL     1       4.422   3.554  18.882  0.00  0.00    +0.000 C 
ATOM     25  C   UNL     1       3.343   3.326  19.944  0.00  0.00    +0.000 C 
ATOM     26  C   UNL     1       1.994   3.945  19.532  0.00  0.00    +0.000 C 
ATOM     27  C   UNL     1       1.634   3.281  18.187  0.00  0.00    +0.000 C 
ATOM     28  C   UNL     1       2.714   3.529  17.134  0.00  0.00    +0.000 C 
BRANCH  26  29
ATOM     29  C   UNL     1       1.952   5.479  19.534  0.00  0.00    +0.000 A 
ATOM     30  C   UNL     1       1.643   6.205  20.698  0.00  0.00    +0.000 A 
ATOM     31  C   UNL     1       1.610   7.604  20.703  0.00  0.00    +0.000 A 
ATOM     32  C   UNL     1       1.914   8.313  19.548  0.00  0.00    +0.000 A 
ATOM     33  C   UNL     1       2.262   7.624  18.394  0.00  0.00    +0.000 A 
ATOM     34  C   UNL     1       2.292   6.224  18.390  0.00  0.00    +0.000 A 
ENDBRANCH  26  29
ENDBRANCH  22  23
ENDBRANCH  21  22
ENDBRANCH  20  21
ENDBRANCH   2  20
TORSDOF 10
ENDMDL
MODEL 6
REMARK VINA RESULT:      -7.7      5.877      9.554
REMARK  Name = 
REMARK  10 active torsions:
REMARK  status: ('A' for Active; 'I' for Inactive)
REMARK    1  A    between atoms: S_2  and  C_4
REMARK    2  A    between atoms: S_2  and  N_19
REMARK    3  A    between atoms: C_4  and  C_5
REMARK    4  A    between atoms: C_5  and  C_6
REMARK    5  A    between atoms: C_6  and  N_7
REMARK    6  A    between atoms: C_10  and  C_11
REMARK    7  A    between atoms: N_19  and  C_20
REMARK    8  A    between atoms: C_20  and  C_21
REMARK    9  A    between atoms: C_21  and  N_22
REMARK   10  A    between atoms: N_22  and  C_23
REMARK                            x       y       z     vdW  Elec       q    Type
REMARK                         _______ _______ _______ _____ _____    ______ ____
ROOT
ATOM      1  O   UNL     1      -0.462   8.343  21.280  0.00  0.00    +0.000 OA
ATOM      2  S   UNL     1       0.911   8.785  21.207  0.00  0.00    +0.000 S 
ATOM      3  O   UNL     1       1.703   9.013  22.400  0.00  0.00    +0.000 OA
ENDROOT
BRANCH   2   4
ATOM      4  N   UNL     1       0.887  10.219  20.305  0.00  0.00    +0.000 NA
ATOM      5  H   UNL     1       1.568  10.884  20.677  0.00  0.00    +0.000 HD
BRANCH   4   6
ATOM      6  C   UNL     1       1.108  10.040  18.833  0.00  0.00    +0.000 C 
BRANCH   6   7
ATOM      7  C   UNL     1      -0.199  10.034  18.031  0.00  0.00    +0.000 C 
BRANCH   7   8
ATOM      8  N   UNL     1      -0.768  11.390  17.896  0.00  0.00    +0.000 N 
ATOM      9  H   UNL     1      -0.305  11.867  17.126  0.00  0.00    +0.000 HD
BRANCH   8  10
ATOM     10  C   UNL     1      -2.173  11.352  17.615  0.00  0.00    +0.000 A 
ATOM     11  C   UNL     1      -2.626  10.824  16.391  0.00  0.00    +0.000 A 
ATOM     12  C   UNL     1      -3.969  10.860  16.040  0.00  0.00    +0.000 A 
ATOM     13  C   UNL     1      -4.893  11.422  16.911  0.00  0.00    +0.000 A 
ATOM     14  C   UNL     1      -4.493  11.907  18.164  0.00  0.00    +0.000 A 
ATOM     15  C   UNL     1      -5.442  12.503  19.009  0.00  0.00    +0.000 A 
ATOM     16  C   UNL     1      -5.087  12.963  20.275  0.00  0.00    +0.000 A 
ATOM     17  C   UNL     1      -3.788  12.787  20.730  0.00  0.00    +0.000 A 
ATOM     18  C   UNL     1      -2.827  12.216  19.891  0.00  0.00    +0.000 A 
ATOM     19  C   UNL     1      -3.135  11.812  18.567  0.00  0.00    +0.000 A 
ENDBRANCH   8  10
ENDBRANCH   7   8
ENDBRANCH   6   7
ENDBRANCH   4   6
ENDBRANCH   2   4
BRANCH   2  20
ATOM     20  C   UNL     1       1.821   7.691  20.138  0.00  0.00    +0.000 C 
BRANCH  20  21
ATOM     21  C   UNL     1       2.031   6.358  20.842  0.00  0.00    +0.000 C 
BRANCH  21  22
ATOM     22  C   UNL     1       1.091   5.277  20.318  0.00  0.00    +0.000 C 
BRANCH  22  23
ATOM     23  N   UNL     1       1.767   4.215  19.552  0.00  0.00    +0.000 NA
ATOM     24  C   UNL     1       1.872   4.570  18.124  0.00  0.00    +0.000 C 
ATOM     25  C   UNL     1       2.708   3.569  17.322  0.00  0.00    +0.000 C 
ATOM     26  C   UNL     1       4.124   3.405  17.907  0.00  0.00    +0.000 C 
ATOM     27  C   UNL     1       3.912   2.948  19.365  0.00  0.00    +0.000 C 
ATOM     28  C   UNL     1       3.088   3.964  20.156  0.00  0.00    +0.000 C 
BRANCH  26  29
ATOM     29  C   UNL     1       5.046   4.618  17.731  0.00  0.00    +0.000 A 
ATOM     30  C   UNL     1       4.764   5.628  16.793  0.00  0.00    +0.000 A 
ATOM     31  C   UNL     1       5.602   6.737  16.635  0.00  0.00    +0.000 A 
ATOM     32  C   UNL     1       6.730   6.879  17.432  0.00  0.00    +0.000 A 
ATOM     33  C   UNL     1       7.013   5.918  18.395  0.00  0.00    +0.000 A 
ATOM     34  C   UNL     1       6.175   4.807  18.550  0.00  0.00    +0.000 A 
ENDBRANCH  26  29
ENDBRANCH  22  23
ENDBRANCH  21  22
ENDBRANCH  20  21
ENDBRANCH   2  20
TORSDOF 10
ENDMDL
MODEL 7
REMARK VINA RESULT:      -7.7      5.195      7.652
REMARK  Name = 
REMARK  10 active torsions:
REMARK  status: ('A' for Active; 'I' for Inactive)
REMARK    1  A    between atoms: S_2  and  C_4
REMARK    2  A    between atoms: S_2  and  N_19
REMARK    3  A    between atoms: C_4  and  C_5
REMARK    4  A    between atoms: C_5  and  C_6
REMARK    5  A    between atoms: C_6  and  N_7
REMARK    6  A    between atoms: C_10  and  C_11
REMARK    7  A    between atoms: N_19  and  C_20
REMARK    8  A    between atoms: C_20  and  C_21
REMARK    9  A    between atoms: C_21  and  N_22
REMARK   10  A    between atoms: N_22  and  C_23
REMARK                            x       y       z     vdW  Elec       q    Type
REMARK                         _______ _______ _______ _____ _____    ______ ____
ROOT
ATOM      1  O   UNL     1       2.239   2.959  22.381  0.00  0.00    +0.000 OA
ATOM      2  S   UNL     1       2.028   3.499  21.059  0.00  0.00    +0.000 S 
ATOM      3  O   UNL     1       0.732   3.441  20.410  0.00  0.00    +0.000 OA
ENDROOT
BRANCH   2   4
ATOM      4  N   UNL     1       3.157   2.728  20.060  0.00  0.00    +0.000 NA
ATOM      5  H   UNL     1       3.651   2.000  20.580  0.00  0.00    +0.000 HD
BRANCH   4   6
ATOM      6  C   UNL     1       2.590   2.151  18.798  0.00  0.00    +0.000 C 
BRANCH   6   7
ATOM      7  C   UNL     1       3.275   2.691  17.537  0.00  0.00    +0.000 C 
BRANCH   7   8
ATOM      8  N   UNL     1       3.386   4.164  17.560  0.00  0.00    +0.000 N 
ATOM      9  H   UNL     1       2.957   4.513  18.414  0.00  0.00    +0.000 HD
BRANCH   8  10
ATOM     10  C   UNL     1       4.753   4.594  17.539  0.00  0.00    +0.000 A 
ATOM     11  C   UNL     1       5.357   5.056  18.724  0.00  0.00    +0.000 A 
ATOM     12  C   UNL     1       6.646   5.573  18.726  0.00  0.00    +0.000 A 
ATOM     13  C   UNL     1       7.362   5.637  17.538  0.00  0.00    +0.000 A 
ATOM     14  C   UNL     1       6.820   5.136  16.346  0.00  0.00    +0.000 A 
ATOM     15  C   UNL     1       7.552   5.246  15.154  0.00  0.00    +0.000 A 
ATOM     16  C   UNL     1       7.060   4.728  13.959  0.00  0.00    +0.000 A 
ATOM     17  C   UNL     1       5.850   4.048  13.952  0.00  0.00    +0.000 A 
ATOM     18  C   UNL     1       5.099   3.951  15.127  0.00  0.00    +0.000 A 
ATOM     19  C   UNL     1       5.533   4.538  16.343  0.00  0.00    +0.000 A 
ENDBRANCH   8  10
ENDBRANCH   7   8
ENDBRANCH   6   7
ENDBRANCH   4   6
ENDBRANCH   2   4
BRANCH   2  20
ATOM     20  C   UNL     1       2.590   5.186  21.021  0.00  0.00    +0.000 C 
BRANCH  20  21
ATOM     21  C   UNL     1       1.471   6.080  20.504  0.00  0.00    +0.000 C 
BRANCH  21  22
ATOM     22  C   UNL     1       1.870   6.823  19.232  0.00  0.00    +0.000 C 
BRANCH  22  23
ATOM     23  N   UNL     1       2.003   8.280  19.407  0.00  0.00    +0.000 NA
ATOM     24  C   UNL     1       1.913   8.984  18.114  0.00  0.00    +0.000 C 
ATOM     25  C   UNL     1       1.885  10.508  18.266  0.00  0.00    +0.000 C 
ATOM     26  C   UNL     1       0.732  10.972  19.175  0.00  0.00    +0.000 C 
ATOM     27  C   UNL     1       0.962  10.258  20.523  0.00  0.00    +0.000 C 
ATOM     28  C   UNL     1       0.973   8.738  20.356  0.00  0.00    +0.000 C 
BRANCH  26  29
ATOM     29  C   UNL     1      -0.673  10.808  18.581  0.00  0.00    +0.000 A 
ATOM     30  C   UNL     1      -0.923   9.926  17.514  0.00  0.00    +0.000 A 
ATOM     31  C   UNL     1      -2.205   9.771  16.975  0.00  0.00    +0.000 A 
ATOM     32  C   UNL     1      -3.276  10.477  17.508  0.00  0.00    +0.000 A 
ATOM     33  C   UNL     1      -3.067  11.325  18.588  0.00  0.00    +0.000 A 
ATOM     34  C   UNL     1      -1.783  11.480  19.124  0.00  0.00    +0.000 A 
ENDBRANCH  26  29
ENDBRANCH  22  23
ENDBRANCH  21  22
ENDBRANCH  20  21
ENDBRANCH   2  20
TORSDOF 10
ENDMDL
MODEL 8
REMARK VINA RESULT:      -7.7      1.818      9.446
REMARK  Name = 
REMARK  10 active torsions:
REMARK  status: ('A' for Active; 'I' for Inactive)
REMARK    1  A    between atoms: S_2  and  C_4
REMARK    2  A    between atoms: S_2  and  N_19
REMARK    3  A    between atoms: C_4  and  C_5
REMARK    4  A    between atoms: C_5  and  C_6
REMARK    5  A    between atoms: C_6  and  N_7
REMARK    6  A    between atoms: C_10  and  C_11
REMARK    7  A    between atoms: N_19  and  C_20
REMARK    8  A    between atoms: C_20  and  C_21
REMARK    9  A    between atoms: C_21  and  N_22
REMARK   10  A    between atoms: N_22  and  C_23
REMARK                            x       y       z     vdW  Elec       q    Type
REMARK                         _______ _______ _______ _____ _____    ______ ____
ROOT
ATOM      1  O   UNL     1       5.188   6.916  17.946  0.00  0.00    +0.000 OA
ATOM      2  S   UNL     1       6.475   6.411  17.532  0.00  0.00    +0.000 S 
ATOM      3  O   UNL     1       7.284   5.579  18.402  0.00  0.00    +0.000 OA
ENDROOT
BRANCH   2   4
ATOM      4  N   UNL     1       7.388   7.771  17.101  0.00  0.00    +0.000 NA
ATOM      5  H   UNL     1       6.772   8.564  16.905  0.00  0.00    +0.000 HD
BRANCH   4   6
ATOM      6  C   UNL     1       8.427   8.175  18.103  0.00  0.00    +0.000 C 
BRANCH   6   7
ATOM      7  C   UNL     1       8.488   9.693  18.318  0.00  0.00    +0.000 C 
BRANCH   7   8
ATOM      8  N   UNL     1       9.334  10.050  19.475  0.00  0.00    +0.000 N 
ATOM      9  H   UNL     1      10.021   9.314  19.620  0.00  0.00    +0.000 HD
BRANCH   8  10
ATOM     10  C   UNL     1      10.038  11.280  19.258  0.00  0.00    +0.000 A 
ATOM     11  C   UNL     1      10.879  11.414  18.136  0.00  0.00    +0.000 A 
ATOM     12  C   UNL     1      11.653  12.551  17.944  0.00  0.00    +0.000 A 
ATOM     13  C   UNL     1      11.601  13.583  18.872  0.00  0.00    +0.000 A 
ATOM     14  C   UNL     1      10.735  13.514  19.972  0.00  0.00    +0.000 A 
ATOM     15  C   UNL     1      10.729  14.556  20.912  0.00  0.00    +0.000 A 
ATOM     16  C   UNL     1       9.857  14.538  21.999  0.00  0.00    +0.000 A 
ATOM     17  C   UNL     1       8.945  13.501  22.129  0.00  0.00    +0.000 A 
ATOM     18  C   UNL     1       8.955  12.445  21.213  0.00  0.00    +0.000 A 
ATOM     19  C   UNL     1       9.884  12.391  20.143  0.00  0.00    +0.000 A 
ENDBRANCH   8  10
ENDBRANCH   7   8
ENDBRANCH   6   7
ENDBRANCH   4   6
ENDBRANCH   2   4
BRANCH   2  20
ATOM     20  C   UNL     1       6.299   5.574  15.972  0.00  0.00    +0.000 C 
BRANCH  20  21
ATOM     21  C   UNL     1       5.001   4.780  15.969  0.00  0.00    +0.000 C 
BRANCH  21  22
ATOM     22  C   UNL     1       5.174   3.392  16.578  0.00  0.00    +0.000 C 
BRANCH  22  23
ATOM     23  N   UNL     1       4.137   3.036  17.563  0.00  0.00    +0.000 NA
ATOM     24  C   UNL     1       4.451   3.591  18.894  0.00  0.00    +0.000 C 
ATOM     25  C   UNL     1       3.323   3.381  19.907  0.00  0.00    +0.000 C 
ATOM     26  C   UNL     1       1.991   3.976  19.413  0.00  0.00    +0.000 C 
ATOM     27  C   UNL     1       1.703   3.274  18.071  0.00  0.00    +0.000 C 
ATOM     28  C   UNL     1       2.832   3.504  17.065  0.00  0.00    +0.000 C 
BRANCH  26  29
ATOM     29  C   UNL     1       1.937   5.509  19.373  0.00  0.00    +0.000 A 
ATOM     30  C   UNL     1       1.845   6.274  20.550  0.00  0.00    +0.000 A 
ATOM     31  C   UNL     1       1.802   7.672  20.514  0.00  0.00    +0.000 A 
ATOM     32  C   UNL     1       1.876   8.342  19.300  0.00  0.00    +0.000 A 
ATOM     33  C   UNL     1       2.008   7.615  18.124  0.00  0.00    +0.000 A 
ATOM     34  C   UNL     1       2.049   6.216  18.162  0.00  0.00    +0.000 A 
ENDBRANCH  26  29
ENDBRANCH  22  23
ENDBRANCH  21  22
ENDBRANCH  20  21
ENDBRANCH   2  20
TORSDOF 10
ENDMDL
MODEL 9
REMARK VINA RESULT:      -7.6      7.566     10.586
REMARK  Name = 
REMARK  10 active torsions:
REMARK  status: ('A' for Active; 'I' for Inactive)
REMARK    1  A    between atoms: S_2  and  C_4
REMARK    2  A    between atoms: S_2  and  N_19
REMARK    3  A    between atoms: C_4  and  C_5
REMARK    4  A    between atoms: C_5  and  C_6
REMARK    5  A    between atoms: C_6  and  N_7
REMARK    6  A    between atoms: C_10  and  C_11
REMARK    7  A    between atoms: N_19  and  C_20
REMARK    8  A    between atoms: C_20  and  C_21
REMARK    9  A    between atoms: C_21  and  N_22
REMARK   10  A    between atoms: N_22  and  C_23
REMARK                            x       y       z     vdW  Elec       q    Type
REMARK                         _______ _______ _______ _____ _____    ______ ____
ROOT
ATOM      1  O   UNL     1       1.253  11.353  21.404  0.00  0.00    +0.000 OA
ATOM      2  S   UNL     1       0.724  10.132  21.964  0.00  0.00    +0.000 S 
ATOM      3  O   UNL     1       1.398   9.431  23.040  0.00  0.00    +0.000 OA
ENDROOT
BRANCH   2   4
ATOM      4  N   UNL     1       0.552   9.063  20.661  0.00  0.00    +0.000 NA
ATOM      5  H   UNL     1      -0.436   8.867  20.491  0.00  0.00    +0.000 HD
BRANCH   4   6
ATOM      6  C   UNL     1       1.204   9.513  19.389  0.00  0.00    +0.000 C 
BRANCH   6   7
ATOM      7  C   UNL     1       1.803   8.353  18.584  0.00  0.00    +0.000 C 
BRANCH   7   8
ATOM      8  N   UNL     1       2.411   7.333  19.462  0.00  0.00    +0.000 N 
ATOM      9  H   UNL     1       1.701   6.981  20.101  0.00  0.00    +0.000 HD
BRANCH   8  10
ATOM     10  C   UNL     1       2.922   6.223  18.712  0.00  0.00    +0.000 A 
ATOM     11  C   UNL     1       3.976   6.424  17.799  0.00  0.00    +0.000 A 
ATOM     12  C   UNL     1       4.432   5.397  16.983  0.00  0.00    +0.000 A 
ATOM     13  C   UNL     1       3.844   4.142  17.064  0.00  0.00    +0.000 A 
ATOM     14  C   UNL     1       2.831   3.884  17.998  0.00  0.00    +0.000 A 
ATOM     15  C   UNL     1       2.231   2.616  18.034  0.00  0.00    +0.000 A 
ATOM     16  C   UNL     1       1.247   2.314  18.971  0.00  0.00    +0.000 A 
ATOM     17  C   UNL     1       0.887   3.261  19.919  0.00  0.00    +0.000 A 
ATOM     18  C   UNL     1       1.460   4.536  19.882  0.00  0.00    +0.000 A 
ATOM     19  C   UNL     1       2.405   4.903  18.889  0.00  0.00    +0.000 A 
ENDBRANCH   8  10
ENDBRANCH   7   8
ENDBRANCH   6   7
ENDBRANCH   4   6
ENDBRANCH   2   4
BRANCH   2  20
ATOM     20  C   UNL     1      -0.967  10.397  22.450  0.00  0.00    +0.000 C 
BRANCH  20  21
ATOM     21  C   UNL     1      -1.251  11.892  22.493  0.00  0.00    +0.000 C 
BRANCH  21  22
ATOM     22  C   UNL     1      -2.387  12.234  23.452  0.00  0.00    +0.000 C 
BRANCH  22  23
ATOM     23  N   UNL     1      -3.337  13.229  22.923  0.00  0.00    +0.000 NA
ATOM     24  C   UNL     1      -3.181  13.397  21.466  0.00  0.00    +0.000 C 
ATOM     25  C   UNL     1      -4.253  14.301  20.852  0.00  0.00    +0.000 C 
ATOM     26  C   UNL     1      -5.675  13.789  21.153  0.00  0.00    +0.000 C 
ATOM     27  C   UNL     1      -5.773  13.734  22.691  0.00  0.00    +0.000 C 
ATOM     28  C   UNL     1      -4.704  12.817  23.287  0.00  0.00    +0.000 C 
BRANCH  26  29
ATOM     29  C   UNL     1      -6.069  12.496  20.427  0.00  0.00    +0.000 A 
ATOM     30  C   UNL     1      -7.121  11.685  20.887  0.00  0.00    +0.000 A 
ATOM     31  C   UNL     1      -7.485  10.508  20.223  0.00  0.00    +0.000 A 
ATOM     32  C   UNL     1      -6.821  10.127  19.064  0.00  0.00    +0.000 A 
ATOM     33  C   UNL     1      -5.803  10.930  18.564  0.00  0.00    +0.000 A 
ATOM     34  C   UNL     1      -5.440  12.105  19.231  0.00  0.00    +0.000 A 
ENDBRANCH  26  29
ENDBRANCH  22  23
ENDBRANCH  21  22
ENDBRANCH  20  21
ENDBRANCH   2  20
TORSDOF 10
ENDMDL
