MODEL 1
REMARK VINA RESULT:      -6.9      0.000      0.000
REMARK  Name = 
REMARK  3 active torsions:
REMARK  status: ('A' for Active; 'I' for Inactive)
REMARK    1  A    between atoms: C_2  and  C_5
REMARK    2  A    between atoms: N_3  and  O_4
REMARK    3  A    between atoms: C_8  and  C_9
REMARK                            x       y       z     vdW  Elec       q    Type
REMARK                         _______ _______ _______ _____ _____    ______ ____
ROOT
ATOM      1  C   UNL     1       5.914   4.519  16.690  0.00  0.00    +0.000 A 
ATOM      2  C   UNL     1       6.504   4.869  17.889  0.00  0.00    +0.000 A 
ATOM      3  C   UNL     1       5.641   4.662  19.003  0.00  0.00    +0.000 A 
ATOM      4  C   UNL     1       4.414   4.135  18.641  0.00  0.00    +0.000 A 
ATOM      5  S   UNL     1       4.302   3.997  16.933  0.00  0.00    +0.000 S 
ENDROOT
BRANCH   4   6
ATOM      6  C   UNL     1       3.299   3.726  19.511  0.00  0.00    +0.000 A 
ATOM      7  C   UNL     1       2.012   4.245  19.325  0.00  0.00    +0.000 A 
ATOM      8  C   UNL     1       0.979   3.890  20.193  0.00  0.00    +0.000 A 
ATOM      9  C   UNL     1       1.259   3.017  21.228  0.00  0.00    +0.000 A 
ATOM     10  N   UNL     1       2.480   2.485  21.445  0.00  0.00    +0.000 NA
ATOM     11  C   UNL     1       3.464   2.853  20.587  0.00  0.00    +0.000 A 
ENDBRANCH   4   6
BRANCH   1  13
ATOM     12  O   UNL     1       6.320   3.704  14.502  0.00  0.00    +0.000 OA
ATOM     13  C   UNL     1       6.539   4.544  15.379  0.00  0.00    +0.000 C 
ATOM     14  N   UNL     1       7.424   5.570  15.136  0.00  0.00    +0.000 N 
ATOM     15  H   UNL     1       7.752   6.214  15.848  0.00  0.00    +0.000 HD
BRANCH  14  16
ATOM     16  O   UNL     1       8.078   5.583  13.884  0.00  0.00    +0.000 OA
ATOM     17  H   UNL     1       8.553   4.723  13.887  0.00  0.00    +0.000 HD
ENDBRANCH  14  16
ENDBRANCH   1  13
TORSDOF 3
ENDMDL
MODEL 2
REMARK VINA RESULT:      -6.9      1.205      1.569
REMARK  Name = 
REMARK  3 active torsions:
REMARK  status: ('A' for Active; 'I' for Inactive)
REMARK    1  A    between atoms: C_2  and  C_5
REMARK    2  A    between atoms: N_3  and  O_4
REMARK    3  A    between atoms: C_8  and  C_9
REMARK                            x       y       z     vdW  Elec       q    Type
REMARK                         _______ _______ _______ _____ _____    ______ ____
ROOT
ATOM      1  C   UNL     1       5.759   4.692  16.611  0.00  0.00    +0.000 A 
ATOM      2  C   UNL     1       4.712   4.075  15.955  0.00  0.00    +0.000 A 
ATOM      3  C   UNL     1       3.732   3.560  16.852  0.00  0.00    +0.000 A 
ATOM      4  C   UNL     1       4.035   3.813  18.179  0.00  0.00    +0.000 A 
ATOM      5  S   UNL     1       5.562   4.587  18.307  0.00  0.00    +0.000 S 
ENDROOT
BRANCH   4   6
ATOM      6  C   UNL     1       3.238   3.500  19.376  0.00  0.00    +0.000 A 
ATOM      7  C   UNL     1       1.949   4.022  19.541  0.00  0.00    +0.000 A 
ATOM      8  C   UNL     1       1.230   3.762  20.708  0.00  0.00    +0.000 A 
ATOM      9  C   UNL     1       1.819   2.979  21.684  0.00  0.00    +0.000 A 
ATOM     10  N   UNL     1       3.053   2.447  21.570  0.00  0.00    +0.000 NA
ATOM     11  C   UNL     1       3.729   2.722  20.426  0.00  0.00    +0.000 A 
ENDBRANCH   4   6
BRANCH   1  13
ATOM     12  O   UNL     1       7.544   6.249  16.561  0.00  0.00    +0.000 OA
ATOM     13  C   UNL     1       6.883   5.376  15.994  0.00  0.00    +0.000 C 
ATOM     14  N   UNL     1       7.194   5.013  14.703  0.00  0.00    +0.000 N 
ATOM     15  H   UNL     1       6.617   4.405  14.133  0.00  0.00    +0.000 HD
BRANCH  14  16
ATOM     16  O   UNL     1       8.254   5.701  14.071  0.00  0.00    +0.000 OA
ATOM     17  H   UNL     1       7.788   6.453  13.644  0.00  0.00    +0.000 HD
ENDBRANCH  14  16
ENDBRANCH   1  13
TORSDOF 3
ENDMDL
MODEL 3
REMARK VINA RESULT:      -6.8      1.711      1.956
REMARK  Name = 
REMARK  3 active torsions:
REMARK  status: ('A' for Active; 'I' for Inactive)
REMARK    1  A    between atoms: C_2  and  C_5
REMARK    2  A    between atoms: N_3  and  O_4
REMARK    3  A    between atoms: C_8  and  C_9
REMARK                            x       y       z     vdW  Elec       q    Type
REMARK                         _______ _______ _______ _____ _____    ______ ____
ROOT
ATOM      1  C   UNL     1       5.683   5.157  17.203  0.00  0.00    +0.000 A 
ATOM      2  C   UNL     1       4.876   4.371  16.405  0.00  0.00    +0.000 A 
ATOM      3  C   UNL     1       3.889   3.666  17.153  0.00  0.00    +0.000 A 
ATOM      4  C   UNL     1       3.944   3.942  18.508  0.00  0.00    +0.000 A 
ATOM      5  S   UNL     1       5.265   4.983  18.853  0.00  0.00    +0.000 S 
ENDROOT
BRANCH   4   6
ATOM      6  C   UNL     1       3.054   3.464  19.578  0.00  0.00    +0.000 A 
ATOM      7  C   UNL     1       1.665   3.620  19.486  0.00  0.00    +0.000 A 
ATOM      8  C   UNL     1       0.841   3.212  20.534  0.00  0.00    +0.000 A 
ATOM      9  C   UNL     1       1.428   2.650  21.653  0.00  0.00    +0.000 A 
ATOM     10  N   UNL     1       2.758   2.471  21.787  0.00  0.00    +0.000 NA
ATOM     11  C   UNL     1       3.533   2.882  20.753  0.00  0.00    +0.000 A 
ENDBRANCH   4   6
BRANCH   1  13
ATOM     12  O   UNL     1       7.461   5.816  15.781  0.00  0.00    +0.000 OA
ATOM     13  C   UNL     1       6.738   6.050  16.753  0.00  0.00    +0.000 C 
ATOM     14  N   UNL     1       6.918   7.207  17.476  0.00  0.00    +0.000 N 
ATOM     15  H   UNL     1       6.455   7.400  18.358  0.00  0.00    +0.000 HD
BRANCH  14  16
ATOM     16  O   UNL     1       7.969   8.064  17.082  0.00  0.00    +0.000 OA
ATOM     17  H   UNL     1       8.701   7.782  17.673  0.00  0.00    +0.000 HD
ENDBRANCH  14  16
ENDBRANCH   1  13
TORSDOF 3
ENDMDL
MODEL 4
REMARK VINA RESULT:      -6.7      0.969      1.038
REMARK  Name = 
REMARK  3 active torsions:
REMARK  status: ('A' for Active; 'I' for Inactive)
REMARK    1  A    between atoms: C_2  and  C_5
REMARK    2  A    between atoms: N_3  and  O_4
REMARK    3  A    between atoms: C_8  and  C_9
REMARK                            x       y       z     vdW  Elec       q    Type
REMARK                         _______ _______ _______ _____ _____    ______ ____
ROOT
ATOM      1  C   UNL     1       5.124   5.041  16.203  0.00  0.00    +0.000 A 
ATOM      2  C   UNL     1       4.783   6.204  16.865  0.00  0.00    +0.000 A 
ATOM      3  C   UNL     1       3.941   5.966  17.990  0.00  0.00    +0.000 A 
ATOM      4  C   UNL     1       3.672   4.623  18.183  0.00  0.00    +0.000 A 
ATOM      5  S   UNL     1       4.372   3.685  16.926  0.00  0.00    +0.000 S 
ENDROOT
BRANCH   4   6
ATOM      6  C   UNL     1       2.905   3.988  19.268  0.00  0.00    +0.000 A 
ATOM      7  C   UNL     1       1.535   4.234  19.422  0.00  0.00    +0.000 A 
ATOM      8  C   UNL     1       0.836   3.669  20.489  0.00  0.00    +0.000 A 
ATOM      9  C   UNL     1       1.527   2.865  21.378  0.00  0.00    +0.000 A 
ATOM     10  N   UNL     1       2.843   2.593  21.269  0.00  0.00    +0.000 NA
ATOM     11  C   UNL     1       3.496   3.160  20.223  0.00  0.00    +0.000 A 
ENDBRANCH   4   6
BRANCH   1  13
ATOM     12  O   UNL     1       5.786   4.211  14.085  0.00  0.00    +0.000 OA
ATOM     13  C   UNL     1       6.018   4.925  15.064  0.00  0.00    +0.000 C 
ATOM     14  N   UNL     1       7.182   5.658  15.115  0.00  0.00    +0.000 N 
ATOM     15  H   UNL     1       7.500   6.157  15.939  0.00  0.00    +0.000 HD
BRANCH  14  16
ATOM     16  O   UNL     1       8.085   5.521  14.037  0.00  0.00    +0.000 OA
ATOM     17  H   UNL     1       8.881   5.149  14.478  0.00  0.00    +0.000 HD
ENDBRANCH  14  16
ENDBRANCH   1  13
TORSDOF 3
ENDMDL
MODEL 5
REMARK VINA RESULT:      -6.7      0.858      1.098
REMARK  Name = 
REMARK  3 active torsions:
REMARK  status: ('A' for Active; 'I' for Inactive)
REMARK    1  A    between atoms: C_2  and  C_5
REMARK    2  A    between atoms: N_3  and  O_4
REMARK    3  A    between atoms: C_8  and  C_9
REMARK                            x       y       z     vdW  Elec       q    Type
REMARK                         _______ _______ _______ _____ _____    ______ ____
ROOT
ATOM      1  C   UNL     1       5.899   4.549  16.854  0.00  0.00    +0.000 A 
ATOM      2  C   UNL     1       6.379   5.176  17.988  0.00  0.00    +0.000 A 
ATOM      3  C   UNL     1       5.537   4.977  19.120  0.00  0.00    +0.000 A 
ATOM      4  C   UNL     1       4.440   4.182  18.840  0.00  0.00    +0.000 A 
ATOM      5  S   UNL     1       4.406   3.776  17.171  0.00  0.00    +0.000 S 
ENDROOT
BRANCH   4   6
ATOM      6  C   UNL     1       3.396   3.704  19.760  0.00  0.00    +0.000 A 
ATOM      7  C   UNL     1       2.077   4.164  19.655  0.00  0.00    +0.000 A 
ATOM      8  C   UNL     1       1.111   3.744  20.570  0.00  0.00    +0.000 A 
ATOM      9  C   UNL     1       1.490   2.866  21.570  0.00  0.00    +0.000 A 
ATOM     10  N   UNL     1       2.743   2.390  21.709  0.00  0.00    +0.000 NA
ATOM     11  C   UNL     1       3.660   2.820  20.807  0.00  0.00    +0.000 A 
ENDBRANCH   4   6
BRANCH   1  13
ATOM     12  O   UNL     1       7.465   5.250  15.220  0.00  0.00    +0.000 OA
ATOM     13  C   UNL     1       6.547   4.498  15.555  0.00  0.00    +0.000 C 
ATOM     14  N   UNL     1       6.081   3.552  14.670  0.00  0.00    +0.000 N 
ATOM     15  H   UNL     1       5.248   2.994  14.825  0.00  0.00    +0.000 HD
BRANCH  14  16
ATOM     16  O   UNL     1       6.667   3.518  13.385  0.00  0.00    +0.000 OA
ATOM     17  H   UNL     1       7.389   4.180  13.468  0.00  0.00    +0.000 HD
ENDBRANCH  14  16
ENDBRANCH   1  13
TORSDOF 3
ENDMDL
MODEL 6
REMARK VINA RESULT:      -6.6      1.302      1.436
REMARK  Name = 
REMARK  3 active torsions:
REMARK  status: ('A' for Active; 'I' for Inactive)
REMARK    1  A    between atoms: C_2  and  C_5
REMARK    2  A    between atoms: N_3  and  O_4
REMARK    3  A    between atoms: C_8  and  C_9
REMARK                            x       y       z     vdW  Elec       q    Type
REMARK                         _______ _______ _______ _____ _____    ______ ____
ROOT
ATOM      1  C   UNL     1       5.617   5.111  16.557  0.00  0.00    +0.000 A 
ATOM      2  C   UNL     1       4.792   6.211  16.687  0.00  0.00    +0.000 A 
ATOM      3  C   UNL     1       3.685   5.965  17.550  0.00  0.00    +0.000 A 
ATOM      4  C   UNL     1       3.695   4.689  18.084  0.00  0.00    +0.000 A 
ATOM      5  S   UNL     1       5.004   3.781  17.442  0.00  0.00    +0.000 S 
ENDROOT
BRANCH   4   6
ATOM      6  C   UNL     1       2.766   4.096  19.059  0.00  0.00    +0.000 A 
ATOM      7  C   UNL     1       1.605   3.435  18.640  0.00  0.00    +0.000 A 
ATOM      8  C   UNL     1       0.706   2.928  19.579  0.00  0.00    +0.000 A 
ATOM      9  C   UNL     1       0.994   3.092  20.922  0.00  0.00    +0.000 A 
ATOM     10  N   UNL     1       2.101   3.715  21.376  0.00  0.00    +0.000 NA
ATOM     11  C   UNL     1       2.953   4.200  20.439  0.00  0.00    +0.000 A 
ENDBRANCH   4   6
BRANCH   1  13
ATOM     12  O   UNL     1       7.900   4.553  16.254  0.00  0.00    +0.000 OA
ATOM     13  C   UNL     1       6.861   5.047  15.809  0.00  0.00    +0.000 C 
ATOM     14  N   UNL     1       6.848   5.582  14.541  0.00  0.00    +0.000 N 
ATOM     15  H   UNL     1       6.075   6.119  14.162  0.00  0.00    +0.000 HD
BRANCH  14  16
ATOM     16  O   UNL     1       8.060   5.571  13.817  0.00  0.00    +0.000 OA
ATOM     17  H   UNL     1       7.763   5.314  12.916  0.00  0.00    +0.000 HD
ENDBRANCH  14  16
ENDBRANCH   1  13
TORSDOF 3
ENDMDL
MODEL 7
REMARK VINA RESULT:      -6.6      1.245      1.493
REMARK  Name = 
REMARK  3 active torsions:
REMARK  status: ('A' for Active; 'I' for Inactive)
REMARK    1  A    between atoms: C_2  and  C_5
REMARK    2  A    between atoms: N_3  and  O_4
REMARK    3  A    between atoms: C_8  and  C_9
REMARK                            x       y       z     vdW  Elec       q    Type
REMARK                         _______ _______ _______ _____ _____    ______ ____
ROOT
ATOM      1  C   UNL     1       6.443   4.611  16.099  0.00  0.00    +0.000 A 
ATOM      2  C   UNL     1       7.252   4.736  17.211  0.00  0.00    +0.000 A 
ATOM      3  C   UNL     1       6.525   4.629  18.431  0.00  0.00    +0.000 A 
ATOM      4  C   UNL     1       5.175   4.401  18.233  0.00  0.00    +0.000 A 
ATOM      5  S   UNL     1       4.805   4.421  16.556  0.00  0.00    +0.000 S 
ENDROOT
BRANCH   4   6
ATOM      6  C   UNL     1       4.126   4.169  19.239  0.00  0.00    +0.000 A 
ATOM      7  C   UNL     1       3.302   5.213  19.676  0.00  0.00    +0.000 A 
ATOM      8  C   UNL     1       2.351   4.989  20.671  0.00  0.00    +0.000 A 
ATOM      9  C   UNL     1       2.245   3.717  21.206  0.00  0.00    +0.000 A 
ATOM     10  N   UNL     1       3.010   2.678  20.815  0.00  0.00    +0.000 NA
ATOM     11  C   UNL     1       3.928   2.929  19.848  0.00  0.00    +0.000 A 
ENDBRANCH   4   6
BRANCH   1  13
ATOM     12  O   UNL     1       7.722   5.377  14.257  0.00  0.00    +0.000 OA
ATOM     13  C   UNL     1       6.874   4.605  14.711  0.00  0.00    +0.000 C 
ATOM     14  N   UNL     1       6.278   3.681  13.883  0.00  0.00    +0.000 N 
ATOM     15  H   UNL     1       5.484   3.109  14.153  0.00  0.00    +0.000 HD
BRANCH  14  16
ATOM     16  O   UNL     1       6.650   3.692  12.521  0.00  0.00    +0.000 OA
ATOM     17  H   UNL     1       6.394   2.790  12.227  0.00  0.00    +0.000 HD
ENDBRANCH  14  16
ENDBRANCH   1  13
TORSDOF 3
ENDMDL
MODEL 8
REMARK VINA RESULT:      -6.6      1.556      1.870
REMARK  Name = 
REMARK  3 active torsions:
REMARK  status: ('A' for Active; 'I' for Inactive)
REMARK    1  A    between atoms: C_2  and  C_5
REMARK    2  A    between atoms: N_3  and  O_4
REMARK    3  A    between atoms: C_8  and  C_9
REMARK                            x       y       z     vdW  Elec       q    Type
REMARK                         _______ _______ _______ _____ _____    ______ ____
ROOT
ATOM      1  C   UNL     1       6.116   5.592  17.413  0.00  0.00    +0.000 A 
ATOM      2  C   UNL     1       6.303   5.566  18.782  0.00  0.00    +0.000 A 
ATOM      3  C   UNL     1       5.180   5.031  19.476  0.00  0.00    +0.000 A 
ATOM      4  C   UNL     1       4.162   4.635  18.627  0.00  0.00    +0.000 A 
ATOM      5  S   UNL     1       4.558   5.017  17.000  0.00  0.00    +0.000 S 
ENDROOT
BRANCH   4   6
ATOM      6  C   UNL     1       2.888   3.981  18.965  0.00  0.00    +0.000 A 
ATOM      7  C   UNL     1       2.402   3.983  20.279  0.00  0.00    +0.000 A 
ATOM      8  C   UNL     1       1.222   3.311  20.593  0.00  0.00    +0.000 A 
ATOM      9  C   UNL     1       0.550   2.651  19.579  0.00  0.00    +0.000 A 
ATOM     10  N   UNL     1       0.972   2.624  18.299  0.00  0.00    +0.000 NA
ATOM     11  C   UNL     1       2.126   3.284  18.026  0.00  0.00    +0.000 A 
ENDBRANCH   4   6
BRANCH   1  13
ATOM     12  O   UNL     1       7.798   7.011  16.535  0.00  0.00    +0.000 OA
ATOM     13  C   UNL     1       7.085   6.012  16.416  0.00  0.00    +0.000 C 
ATOM     14  N   UNL     1       7.184   5.234  15.284  0.00  0.00    +0.000 N 
ATOM     15  H   UNL     1       6.542   4.481  15.059  0.00  0.00    +0.000 HD
BRANCH  14  16
ATOM     16  O   UNL     1       8.087   5.653  14.283  0.00  0.00    +0.000 OA
ATOM     17  H   UNL     1       8.138   4.861  13.703  0.00  0.00    +0.000 HD
ENDBRANCH  14  16
ENDBRANCH   1  13
TORSDOF 3
ENDMDL
MODEL 9
REMARK VINA RESULT:      -6.6      1.336      1.760
REMARK  Name = 
REMARK  3 active torsions:
REMARK  status: ('A' for Active; 'I' for Inactive)
REMARK    1  A    between atoms: C_2  and  C_5
REMARK    2  A    between atoms: N_3  and  O_4
REMARK    3  A    between atoms: C_8  and  C_9
REMARK                            x       y       z     vdW  Elec       q    Type
REMARK                         _______ _______ _______ _____ _____    ______ ____
ROOT
ATOM      1  C   UNL     1       6.313   4.616  16.320  0.00  0.00    +0.000 A 
ATOM      2  C   UNL     1       7.070   4.973  17.419  0.00  0.00    +0.000 A 
ATOM      3  C   UNL     1       6.332   4.908  18.636  0.00  0.00    +0.000 A 
ATOM      4  C   UNL     1       5.030   4.479  18.451  0.00  0.00    +0.000 A 
ATOM      5  S   UNL     1       4.703   4.261  16.779  0.00  0.00    +0.000 S 
ENDROOT
BRANCH   4   6
ATOM      6  C   UNL     1       3.996   4.224  19.466  0.00  0.00    +0.000 A 
ATOM      7  C   UNL     1       3.793   2.937  19.981  0.00  0.00    +0.000 A 
ATOM      8  C   UNL     1       2.772   2.701  20.902  0.00  0.00    +0.000 A 
ATOM      9  C   UNL     1       1.976   3.764  21.289  0.00  0.00    +0.000 A 
ATOM     10  N   UNL     1       2.134   5.021  20.828  0.00  0.00    +0.000 NA
ATOM     11  C   UNL     1       3.133   5.218  19.931  0.00  0.00    +0.000 A 
ENDBRANCH   4   6
BRANCH   1  13
ATOM     12  O   UNL     1       7.613   5.270  14.450  0.00  0.00    +0.000 OA
ATOM     13  C   UNL     1       6.777   4.512  14.947  0.00  0.00    +0.000 C 
ATOM     14  N   UNL     1       6.228   3.506  14.184  0.00  0.00    +0.000 N 
ATOM     15  H   UNL     1       5.444   2.935  14.482  0.00  0.00    +0.000 HD
BRANCH  14  16
ATOM     16  O   UNL     1       6.632   3.419  12.834  0.00  0.00    +0.000 OA
ATOM     17  H   UNL     1       5.887   3.857  12.365  0.00  0.00    +0.000 HD
ENDBRANCH  14  16
ENDBRANCH   1  13
TORSDOF 3
ENDMDL
