MODEL 1
REMARK VINA RESULT:      -8.2      0.000      0.000
REMARK  Name = 
REMARK  7 active torsions:
REMARK  status: ('A' for Active; 'I' for Inactive)
REMARK    1  A    between atoms: C_1  and  O_2
REMARK    2  A    between atoms: O_2  and  C_3
REMARK    3  A    between atoms: C_8  and  N_9
REMARK    4  A    between atoms: C_10  and  S_11
REMARK    5  A    between atoms: S_11  and  C_12
REMARK    6  A    between atoms: C_12  and  C_13
REMARK    7  A    between atoms: N_15  and  C_16
REMARK                            x       y       z     vdW  Elec       q    Type
REMARK                         _______ _______ _______ _____ _____    ______ ____
ROOT
ATOM      1  N   UNL     1       4.344   4.531  17.875  0.00  0.00    +0.000 N 
ATOM      2  C   UNL     1       3.942   5.682  18.559  0.00  0.00    +0.000 A 
ATOM      3  N   UNL     1       3.163   5.672  19.599  0.00  0.00    +0.000 NA
ATOM      4  C   UNL     1       2.700   4.459  20.014  0.00  0.00    +0.000 A 
ATOM      5  C   UNL     1       2.942   3.300  19.404  0.00  0.00    +0.000 A 
ATOM      6  C   UNL     1       3.831   3.274  18.232  0.00  0.00    +0.000 A 
ATOM      7  O   UNL     1       4.086   2.211  17.668  0.00  0.00    +0.000 OA
ATOM      8  S   UNL     1       2.174   1.927  20.085  0.00  0.00    +0.000 S 
ATOM      9  C   UNL     1       1.109   2.982  21.131  0.00  0.00    +0.000 C 
ATOM     10  C   UNL     1       1.808   4.344  21.213  0.00  0.00    +0.000 C 
ENDROOT
BRANCH   1  16
ATOM     11  C   UNL     1       6.682   4.517  16.992  0.00  0.00    +0.000 A 
ATOM     12  C   UNL     1       7.520   4.562  15.866  0.00  0.00    +0.000 A 
ATOM     13  C   UNL     1       6.995   4.615  14.572  0.00  0.00    +0.000 A 
ATOM     14  C   UNL     1       5.621   4.633  14.383  0.00  0.00    +0.000 A 
ATOM     15  C   UNL     1       4.776   4.594  15.489  0.00  0.00    +0.000 A 
ATOM     16  C   UNL     1       5.288   4.547  16.805  0.00  0.00    +0.000 A 
BRANCH  11  18
ATOM     17  C   UNL     1       7.718   5.810  18.716  0.00  0.00    +0.000 C 
ATOM     18  O   UNL     1       7.353   4.542  18.185  0.00  0.00    +0.000 OA
ENDBRANCH  11  18
ENDBRANCH   1  16
BRANCH   2  19
ATOM     19  S   UNL     1       4.355   7.267  17.905  0.00  0.00    +0.000 S 
BRANCH  19  20
ATOM     20  C   UNL     1       2.749   7.894  17.323  0.00  0.00    +0.000 C 
BRANCH  20  21
ATOM     21  C   UNL     1       2.083   8.939  18.222  0.00  0.00    +0.000 C 
ATOM     22  O   UNL     1       2.128  10.127  17.899  0.00  0.00    +0.000 OA
ATOM     23  N   UNL     1       1.503   8.455  19.372  0.00  0.00    +0.000 N 
ATOM     24  H   UNL     1       1.699   7.481  19.568  0.00  0.00    +0.000 HD
BRANCH  23  25
ATOM     25  C   UNL     1       0.839   9.156  20.385  0.00  0.00    +0.000 A 
ATOM     26  C   UNL     1      -0.060  10.194  20.140  0.00  0.00    +0.000 A 
ATOM     27  C   UNL     1      -0.697  10.832  21.204  0.00  0.00    +0.000 A 
ATOM     28  C   UNL     1      -0.420  10.435  22.507  0.00  0.00    +0.000 A 
ATOM     29  F   UNL     1      -1.029  11.054  23.528  0.00  0.00    +0.000 F 
ATOM     30  C   UNL     1       0.473   9.408  22.769  0.00  0.00    +0.000 A 
ATOM     31  C   UNL     1       1.099   8.760  21.705  0.00  0.00    +0.000 A 
ENDBRANCH  23  25
ENDBRANCH  20  21
ENDBRANCH  19  20
ENDBRANCH   2  19
TORSDOF 6
ENDMDL
MODEL 2
REMARK VINA RESULT:      -7.6      2.216      4.363
REMARK  Name = 
REMARK  7 active torsions:
REMARK  status: ('A' for Active; 'I' for Inactive)
REMARK    1  A    between atoms: C_1  and  O_2
REMARK    2  A    between atoms: O_2  and  C_3
REMARK    3  A    between atoms: C_8  and  N_9
REMARK    4  A    between atoms: C_10  and  S_11
REMARK    5  A    between atoms: S_11  and  C_12
REMARK    6  A    between atoms: C_12  and  C_13
REMARK    7  A    between atoms: N_15  and  C_16
REMARK                            x       y       z     vdW  Elec       q    Type
REMARK                         _______ _______ _______ _____ _____    ______ ____
ROOT
ATOM      1  N   UNL     1       3.818   5.237  18.524  0.00  0.00    +0.000 N 
ATOM      2  C   UNL     1       3.636   6.448  17.850  0.00  0.00    +0.000 A 
ATOM      3  N   UNL     1       4.610   7.226  17.482  0.00  0.00    +0.000 NA
ATOM      4  C   UNL     1       5.874   6.831  17.806  0.00  0.00    +0.000 A 
ATOM      5  C   UNL     1       6.176   5.744  18.512  0.00  0.00    +0.000 A 
ATOM      6  C   UNL     1       5.099   4.835  18.934  0.00  0.00    +0.000 A 
ATOM      7  O   UNL     1       5.358   3.813  19.567  0.00  0.00    +0.000 OA
ATOM      8  S   UNL     1       7.842   5.516  18.851  0.00  0.00    +0.000 S 
ATOM      9  C   UNL     1       8.235   7.212  18.295  0.00  0.00    +0.000 C 
ATOM     10  C   UNL     1       7.063   7.654  17.410  0.00  0.00    +0.000 C 
ENDROOT
BRANCH   1  16
ATOM     11  C   UNL     1       1.981   4.402  20.000  0.00  0.00    +0.000 A 
ATOM     12  C   UNL     1       0.967   3.453  20.201  0.00  0.00    +0.000 A 
ATOM     13  C   UNL     1       0.694   2.468  19.248  0.00  0.00    +0.000 A 
ATOM     14  C   UNL     1       1.440   2.411  18.079  0.00  0.00    +0.000 A 
ATOM     15  C   UNL     1       2.454   3.343  17.866  0.00  0.00    +0.000 A 
ATOM     16  C   UNL     1       2.748   4.341  18.822  0.00  0.00    +0.000 A 
BRANCH  11  18
ATOM     17  C   UNL     1       1.459   6.484  21.055  0.00  0.00    +0.000 C 
ATOM     18  O   UNL     1       2.166   5.250  21.059  0.00  0.00    +0.000 OA
ENDBRANCH  11  18
ENDBRANCH   1  16
BRANCH   2  19
ATOM     19  S   UNL     1       2.004   7.075  17.619  0.00  0.00    +0.000 S 
BRANCH  19  20
ATOM     20  C   UNL     1       2.206   8.855  17.941  0.00  0.00    +0.000 C 
BRANCH  20  21
ATOM     21  C   UNL     1       1.042   9.530  18.674  0.00  0.00    +0.000 C 
ATOM     22  O   UNL     1       0.005   9.777  18.057  0.00  0.00    +0.000 OA
ATOM     23  N   UNL     1       1.273   9.849  19.993  0.00  0.00    +0.000 N 
ATOM     24  H   UNL     1       2.231   9.730  20.297  0.00  0.00    +0.000 HD
BRANCH  23  25
ATOM     25  C   UNL     1       0.419  10.476  20.908  0.00  0.00    +0.000 A 
ATOM     26  C   UNL     1      -0.025  11.791  20.770  0.00  0.00    +0.000 A 
ATOM     27  C   UNL     1      -0.893  12.338  21.716  0.00  0.00    +0.000 A 
ATOM     28  C   UNL     1      -1.299  11.569  22.799  0.00  0.00    +0.000 A 
ATOM     29  F   UNL     1      -2.127  12.099  23.710  0.00  0.00    +0.000 F 
ATOM     30  C   UNL     1      -0.865  10.261  22.954  0.00  0.00    +0.000 A 
ATOM     31  C   UNL     1      -0.010   9.709  22.002  0.00  0.00    +0.000 A 
ENDBRANCH  23  25
ENDBRANCH  20  21
ENDBRANCH  19  20
ENDBRANCH   2  19
TORSDOF 6
ENDMDL
MODEL 3
REMARK VINA RESULT:      -7.5      2.738      4.857
REMARK  Name = 
REMARK  7 active torsions:
REMARK  status: ('A' for Active; 'I' for Inactive)
REMARK    1  A    between atoms: C_1  and  O_2
REMARK    2  A    between atoms: O_2  and  C_3
REMARK    3  A    between atoms: C_8  and  N_9
REMARK    4  A    between atoms: C_10  and  S_11
REMARK    5  A    between atoms: S_11  and  C_12
REMARK    6  A    between atoms: C_12  and  C_13
REMARK    7  A    between atoms: N_15  and  C_16
REMARK                            x       y       z     vdW  Elec       q    Type
REMARK                         _______ _______ _______ _____ _____    ______ ____
ROOT
ATOM      1  N   UNL     1       3.898   5.201  18.520  0.00  0.00    +0.000 N 
ATOM      2  C   UNL     1       3.711   6.400  17.827  0.00  0.00    +0.000 A 
ATOM      3  N   UNL     1       4.680   7.192  17.474  0.00  0.00    +0.000 NA
ATOM      4  C   UNL     1       5.941   6.825  17.837  0.00  0.00    +0.000 A 
ATOM      5  C   UNL     1       6.245   5.752  18.565  0.00  0.00    +0.000 A 
ATOM      6  C   UNL     1       5.174   4.828  18.969  0.00  0.00    +0.000 A 
ATOM      7  O   UNL     1       5.435   3.819  19.622  0.00  0.00    +0.000 OA
ATOM      8  S   UNL     1       7.905   5.560  18.951  0.00  0.00    +0.000 S 
ATOM      9  C   UNL     1       8.282   7.257  18.385  0.00  0.00    +0.000 C 
ATOM     10  C   UNL     1       7.126   7.665  17.464  0.00  0.00    +0.000 C 
ENDROOT
BRANCH   1  16
ATOM     11  C   UNL     1       2.038   4.348  19.958  0.00  0.00    +0.000 A 
ATOM     12  C   UNL     1       1.037   3.382  20.144  0.00  0.00    +0.000 A 
ATOM     13  C   UNL     1       0.808   2.382  19.195  0.00  0.00    +0.000 A 
ATOM     14  C   UNL     1       1.585   2.326  18.047  0.00  0.00    +0.000 A 
ATOM     15  C   UNL     1       2.587   3.274  17.850  0.00  0.00    +0.000 A 
ATOM     16  C   UNL     1       2.837   4.288  18.801  0.00  0.00    +0.000 A 
BRANCH  11  18
ATOM     17  C   UNL     1       1.505   6.462  20.941  0.00  0.00    +0.000 C 
ATOM     18  O   UNL     1       2.180   5.211  21.011  0.00  0.00    +0.000 OA
ENDBRANCH  11  18
ENDBRANCH   1  16
BRANCH   2  19
ATOM     19  S   UNL     1       2.074   6.992  17.544  0.00  0.00    +0.000 S 
BRANCH  19  20
ATOM     20  C   UNL     1       2.249   8.789  17.777  0.00  0.00    +0.000 C 
BRANCH  20  21
ATOM     21  C   UNL     1       1.067   9.485  18.457  0.00  0.00    +0.000 C 
ATOM     22  O   UNL     1       1.096   9.669  19.675  0.00  0.00    +0.000 OA
ATOM     23  N   UNL     1       0.019   9.824  17.631  0.00  0.00    +0.000 N 
ATOM     24  H   UNL     1       0.083   9.453  16.692  0.00  0.00    +0.000 HD
BRANCH  23  25
ATOM     25  C   UNL     1      -1.190  10.449  17.957  0.00  0.00    +0.000 A 
ATOM     26  C   UNL     1      -2.435   9.986  17.530  0.00  0.00    +0.000 A 
ATOM     27  C   UNL     1      -3.598  10.654  17.914  0.00  0.00    +0.000 A 
ATOM     28  C   UNL     1      -3.506  11.787  18.713  0.00  0.00    +0.000 A 
ATOM     29  F   UNL     1      -4.624  12.431  19.075  0.00  0.00    +0.000 F 
ATOM     30  C   UNL     1      -2.277  12.264  19.143  0.00  0.00    +0.000 A 
ATOM     31  C   UNL     1      -1.115  11.588  18.772  0.00  0.00    +0.000 A 
ENDBRANCH  23  25
ENDBRANCH  20  21
ENDBRANCH  19  20
ENDBRANCH   2  19
TORSDOF 6
ENDMDL
MODEL 4
REMARK VINA RESULT:      -7.4      1.721      1.855
REMARK  Name = 
REMARK  7 active torsions:
REMARK  status: ('A' for Active; 'I' for Inactive)
REMARK    1  A    between atoms: C_1  and  O_2
REMARK    2  A    between atoms: O_2  and  C_3
REMARK    3  A    between atoms: C_8  and  N_9
REMARK    4  A    between atoms: C_10  and  S_11
REMARK    5  A    between atoms: S_11  and  C_12
REMARK    6  A    between atoms: C_12  and  C_13
REMARK    7  A    between atoms: N_15  and  C_16
REMARK                            x       y       z     vdW  Elec       q    Type
REMARK                         _______ _______ _______ _____ _____    ______ ____
ROOT
ATOM      1  N   UNL     1       4.309   4.540  17.887  0.00  0.00    +0.000 N 
ATOM      2  C   UNL     1       3.860   5.673  18.571  0.00  0.00    +0.000 A 
ATOM      3  N   UNL     1       3.062   5.632  19.597  0.00  0.00    +0.000 NA
ATOM      4  C   UNL     1       2.628   4.403  19.994  0.00  0.00    +0.000 A 
ATOM      5  C   UNL     1       2.917   3.256  19.382  0.00  0.00    +0.000 A 
ATOM      6  C   UNL     1       3.828   3.265  18.226  0.00  0.00    +0.000 A 
ATOM      7  O   UNL     1       4.127   2.215  17.660  0.00  0.00    +0.000 OA
ATOM      8  S   UNL     1       2.179   1.855  20.039  0.00  0.00    +0.000 S 
ATOM      9  C   UNL     1       1.063   2.870  21.072  0.00  0.00    +0.000 C 
ATOM     10  C   UNL     1       1.718   4.252  21.176  0.00  0.00    +0.000 C 
ENDROOT
BRANCH   1  16
ATOM     11  C   UNL     1       6.663   4.581  17.047  0.00  0.00    +0.000 A 
ATOM     12  C   UNL     1       7.520   4.662  15.938  0.00  0.00    +0.000 A 
ATOM     13  C   UNL     1       7.018   4.732  14.636  0.00  0.00    +0.000 A 
ATOM     14  C   UNL     1       5.647   4.732  14.422  0.00  0.00    +0.000 A 
ATOM     15  C   UNL     1       4.783   4.657  15.512  0.00  0.00    +0.000 A 
ATOM     16  C   UNL     1       5.272   4.593  16.836  0.00  0.00    +0.000 A 
BRANCH  11  18
ATOM     17  C   UNL     1       7.678   5.855  18.797  0.00  0.00    +0.000 C 
ATOM     18  O   UNL     1       7.312   4.593  18.252  0.00  0.00    +0.000 OA
ENDBRANCH  11  18
ENDBRANCH   1  16
BRANCH   2  19
ATOM     19  S   UNL     1       4.236   7.275  17.936  0.00  0.00    +0.000 S 
BRANCH  19  20
ATOM     20  C   UNL     1       2.612   7.880  17.380  0.00  0.00    +0.000 C 
BRANCH  20  21
ATOM     21  C   UNL     1       1.870   8.783  18.370  0.00  0.00    +0.000 C 
ATOM     22  O   UNL     1       1.815   8.458  19.556  0.00  0.00    +0.000 OA
ATOM     23  N   UNL     1       1.274   9.900  17.828  0.00  0.00    +0.000 N 
ATOM     24  H   UNL     1       1.273   9.930  16.816  0.00  0.00    +0.000 HD
BRANCH  23  25
ATOM     25  C   UNL     1       0.524  10.894  18.467  0.00  0.00    +0.000 A 
ATOM     26  C   UNL     1       1.074  12.081  18.950  0.00  0.00    +0.000 A 
ATOM     27  C   UNL     1       0.255  13.033  19.558  0.00  0.00    +0.000 A 
ATOM     28  C   UNL     1      -1.106  12.783  19.691  0.00  0.00    +0.000 A 
ATOM     29  F   UNL     1      -1.889  13.696  20.282  0.00  0.00    +0.000 F 
ATOM     30  C   UNL     1      -1.668  11.606  19.221  0.00  0.00    +0.000 A 
ATOM     31  C   UNL     1      -0.853  10.661  18.599  0.00  0.00    +0.000 A 
ENDBRANCH  23  25
ENDBRANCH  20  21
ENDBRANCH  19  20
ENDBRANCH   2  19
TORSDOF 6
ENDMDL
MODEL 5
REMARK VINA RESULT:      -7.3      4.292      9.366
REMARK  Name = 
REMARK  7 active torsions:
REMARK  status: ('A' for Active; 'I' for Inactive)
REMARK    1  A    between atoms: C_1  and  O_2
REMARK    2  A    between atoms: O_2  and  C_3
REMARK    3  A    between atoms: C_8  and  N_9
REMARK    4  A    between atoms: C_10  and  S_11
REMARK    5  A    between atoms: S_11  and  C_12
REMARK    6  A    between atoms: C_12  and  C_13
REMARK    7  A    between atoms: N_15  and  C_16
REMARK                            x       y       z     vdW  Elec       q    Type
REMARK                         _______ _______ _______ _____ _____    ______ ____
ROOT
ATOM      1  N   UNL     1      -0.304  12.023  19.427  0.00  0.00    +0.000 N 
ATOM      2  C   UNL     1       0.321  11.458  20.543  0.00  0.00    +0.000 A 
ATOM      3  N   UNL     1       1.369  11.964  21.120  0.00  0.00    +0.000 NA
ATOM      4  C   UNL     1       1.890  13.098  20.572  0.00  0.00    +0.000 A 
ATOM      5  C   UNL     1       1.439  13.690  19.468  0.00  0.00    +0.000 A 
ATOM      6  C   UNL     1       0.246  13.150  18.797  0.00  0.00    +0.000 A 
ATOM      7  O   UNL     1      -0.202  13.694  17.789  0.00  0.00    +0.000 OA
ATOM      8  S   UNL     1       2.323  15.063  18.945  0.00  0.00    +0.000 S 
ATOM      9  C   UNL     1       3.684  14.688  20.105  0.00  0.00    +0.000 C 
ATOM     10  C   UNL     1       3.089  13.766  21.177  0.00  0.00    +0.000 C 
ENDROOT
BRANCH   1  16
ATOM     11  C   UNL     1      -2.793  12.020  19.194  0.00  0.00    +0.000 A 
ATOM     12  C   UNL     1      -3.924  11.431  18.608  0.00  0.00    +0.000 A 
ATOM     13  C   UNL     1      -3.804  10.375  17.700  0.00  0.00    +0.000 A 
ATOM     14  C   UNL     1      -2.548   9.884  17.371  0.00  0.00    +0.000 A 
ATOM     15  C   UNL     1      -1.416  10.455  17.948  0.00  0.00    +0.000 A 
ATOM     16  C   UNL     1      -1.518  11.518  18.873  0.00  0.00    +0.000 A 
BRANCH  11  18
ATOM     17  C   UNL     1      -3.215  12.599  21.476  0.00  0.00    +0.000 C 
ATOM     18  O   UNL     1      -3.087  12.991  20.114  0.00  0.00    +0.000 OA
ENDBRANCH  11  18
ENDBRANCH   1  16
BRANCH   2  19
ATOM     19  S   UNL     1      -0.208   9.879  21.126  0.00  0.00    +0.000 S 
BRANCH  19  20
ATOM     20  C   UNL     1       1.365   9.018  21.441  0.00  0.00    +0.000 C 
BRANCH  20  21
ATOM     21  C   UNL     1       1.682   7.856  20.494  0.00  0.00    +0.000 C 
ATOM     22  O   UNL     1       1.866   8.088  19.299  0.00  0.00    +0.000 OA
ATOM     23  N   UNL     1       1.698   6.605  21.069  0.00  0.00    +0.000 N 
ATOM     24  H   UNL     1       1.362   6.574  22.023  0.00  0.00    +0.000 HD
BRANCH  23  25
ATOM     25  C   UNL     1       1.939   5.365  20.468  0.00  0.00    +0.000 A 
ATOM     26  C   UNL     1       0.984   4.351  20.386  0.00  0.00    +0.000 A 
ATOM     27  C   UNL     1       1.296   3.148  19.752  0.00  0.00    +0.000 A 
ATOM     28  C   UNL     1       2.565   2.964  19.216  0.00  0.00    +0.000 A 
ATOM     29  F   UNL     1       2.865   1.804  18.614  0.00  0.00    +0.000 F 
ATOM     30  C   UNL     1       3.528   3.959  19.293  0.00  0.00    +0.000 A 
ATOM     31  C   UNL     1       3.212   5.167  19.913  0.00  0.00    +0.000 A 
ENDBRANCH  23  25
ENDBRANCH  20  21
ENDBRANCH  19  20
ENDBRANCH   2  19
TORSDOF 6
ENDMDL
MODEL 6
REMARK VINA RESULT:      -7.3      2.819      4.985
REMARK  Name = 
REMARK  7 active torsions:
REMARK  status: ('A' for Active; 'I' for Inactive)
REMARK    1  A    between atoms: C_1  and  O_2
REMARK    2  A    between atoms: O_2  and  C_3
REMARK    3  A    between atoms: C_8  and  N_9
REMARK    4  A    between atoms: C_10  and  S_11
REMARK    5  A    between atoms: S_11  and  C_12
REMARK    6  A    between atoms: C_12  and  C_13
REMARK    7  A    between atoms: N_15  and  C_16
REMARK                            x       y       z     vdW  Elec       q    Type
REMARK                         _______ _______ _______ _____ _____    ______ ____
ROOT
ATOM      1  N   UNL     1       3.824   5.365  18.691  0.00  0.00    +0.000 N 
ATOM      2  C   UNL     1       3.652   6.500  17.894  0.00  0.00    +0.000 A 
ATOM      3  N   UNL     1       4.632   7.227  17.448  0.00  0.00    +0.000 NA
ATOM      4  C   UNL     1       5.892   6.859  17.813  0.00  0.00    +0.000 A 
ATOM      5  C   UNL     1       6.186   5.848  18.629  0.00  0.00    +0.000 A 
ATOM      6  C   UNL     1       5.101   4.997  19.142  0.00  0.00    +0.000 A 
ATOM      7  O   UNL     1       5.352   4.044  19.878  0.00  0.00    +0.000 OA
ATOM      8  S   UNL     1       7.849   5.644  18.991  0.00  0.00    +0.000 S 
ATOM      9  C   UNL     1       8.257   7.269  18.262  0.00  0.00    +0.000 C 
ATOM     10  C   UNL     1       7.089   7.626  17.335  0.00  0.00    +0.000 C 
ENDROOT
BRANCH   1  16
ATOM     11  C   UNL     1       2.360   3.364  18.365  0.00  0.00    +0.000 A 
ATOM     12  C   UNL     1       1.268   2.612  18.826  0.00  0.00    +0.000 A 
ATOM     13  C   UNL     1       0.577   2.970  19.986  0.00  0.00    +0.000 A 
ATOM     14  C   UNL     1       0.963   4.096  20.701  0.00  0.00    +0.000 A 
ATOM     15  C   UNL     1       2.041   4.856  20.255  0.00  0.00    +0.000 A 
ATOM     16  C   UNL     1       2.747   4.513  19.080  0.00  0.00    +0.000 A 
BRANCH  11  18
ATOM     17  C   UNL     1       3.958   1.996  17.228  0.00  0.00    +0.000 C 
ATOM     18  O   UNL     1       2.878   2.921  17.178  0.00  0.00    +0.000 OA
ENDBRANCH  11  18
ENDBRANCH   1  16
BRANCH   2  19
ATOM     19  S   UNL     1       2.024   7.112  17.598  0.00  0.00    +0.000 S 
BRANCH  19  20
ATOM     20  C   UNL     1       2.186   8.887  17.972  0.00  0.00    +0.000 C 
BRANCH  20  21
ATOM     21  C   UNL     1       0.959   9.541  18.611  0.00  0.00    +0.000 C 
ATOM     22  O   UNL     1       0.919   9.681  19.834  0.00  0.00    +0.000 OA
ATOM     23  N   UNL     1      -0.049   9.897  17.742  0.00  0.00    +0.000 N 
ATOM     24  H   UNL     1       0.071   9.562  16.795  0.00  0.00    +0.000 HD
BRANCH  23  25
ATOM     25  C   UNL     1      -1.283  10.493  18.024  0.00  0.00    +0.000 A 
ATOM     26  C   UNL     1      -1.432  11.585  18.880  0.00  0.00    +0.000 A 
ATOM     27  C   UNL     1      -2.696  12.136  19.095  0.00  0.00    +0.000 A 
ATOM     28  C   UNL     1      -3.802  11.582  18.461  0.00  0.00    +0.000 A 
ATOM     29  F   UNL     1      -5.016  12.109  18.675  0.00  0.00    +0.000 F 
ATOM     30  C   UNL     1      -3.672  10.495  17.611  0.00  0.00    +0.000 A 
ATOM     31  C   UNL     1      -2.408   9.953  17.384  0.00  0.00    +0.000 A 
ENDBRANCH  23  25
ENDBRANCH  20  21
ENDBRANCH  19  20
ENDBRANCH   2  19
TORSDOF 6
ENDMDL
MODEL 7
REMARK VINA RESULT:      -7.3      4.940      7.551
REMARK  Name = 
REMARK  7 active torsions:
REMARK  status: ('A' for Active; 'I' for Inactive)
REMARK    1  A    between atoms: C_1  and  O_2
REMARK    2  A    between atoms: O_2  and  C_3
REMARK    3  A    between atoms: C_8  and  N_9
REMARK    4  A    between atoms: C_10  and  S_11
REMARK    5  A    between atoms: S_11  and  C_12
REMARK    6  A    between atoms: C_12  and  C_13
REMARK    7  A    between atoms: N_15  and  C_16
REMARK                            x       y       z     vdW  Elec       q    Type
REMARK                         _______ _______ _______ _____ _____    ______ ____
ROOT
ATOM      1  N   UNL     1       5.342   5.372  16.764  0.00  0.00    +0.000 N 
ATOM      2  C   UNL     1       6.593   5.986  16.662  0.00  0.00    +0.000 A 
ATOM      3  N   UNL     1       7.355   5.910  15.612  0.00  0.00    +0.000 NA
ATOM      4  C   UNL     1       6.898   5.159  14.570  0.00  0.00    +0.000 A 
ATOM      5  C   UNL     1       5.763   4.462  14.571  0.00  0.00    +0.000 A 
ATOM      6  C   UNL     1       4.872   4.536  15.739  0.00  0.00    +0.000 A 
ATOM      7  O   UNL     1       3.808   3.919  15.752  0.00  0.00    +0.000 OA
ATOM      8  S   UNL     1       5.458   3.536  13.161  0.00  0.00    +0.000 S 
ATOM      9  C   UNL     1       7.166   3.793  12.564  0.00  0.00    +0.000 C 
ATOM     10  C   UNL     1       7.697   5.023  13.309  0.00  0.00    +0.000 C 
ENDROOT
BRANCH   1  16
ATOM     11  C   UNL     1       4.431   4.699  18.993  0.00  0.00    +0.000 A 
ATOM     12  C   UNL     1       3.515   4.963  20.023  0.00  0.00    +0.000 A 
ATOM     13  C   UNL     1       2.661   6.069  19.970  0.00  0.00    +0.000 A 
ATOM     14  C   UNL     1       2.704   6.925  18.879  0.00  0.00    +0.000 A 
ATOM     15  C   UNL     1       3.604   6.674  17.846  0.00  0.00    +0.000 A 
ATOM     16  C   UNL     1       4.469   5.557  17.879  0.00  0.00    +0.000 A 
BRANCH  11  18
ATOM     17  C   UNL     1       4.490   2.454  19.813  0.00  0.00    +0.000 C 
ATOM     18  O   UNL     1       5.139   3.541  19.164  0.00  0.00    +0.000 OA
ENDBRANCH  11  18
ENDBRANCH   1  16
BRANCH   2  19
ATOM     19  S   UNL     1       7.290   6.775  18.078  0.00  0.00    +0.000 S 
BRANCH  19  20
ATOM     20  C   UNL     1       7.544   8.483  17.504  0.00  0.00    +0.000 C 
BRANCH  20  21
ATOM     21  C   UNL     1       8.557   9.305  18.306  0.00  0.00    +0.000 C 
ATOM     22  O   UNL     1       9.096   8.801  19.292  0.00  0.00    +0.000 OA
ATOM     23  N   UNL     1       8.760  10.595  17.868  0.00  0.00    +0.000 N 
ATOM     24  H   UNL     1       8.117  10.904  17.150  0.00  0.00    +0.000 HD
BRANCH  23  25
ATOM     25  C   UNL     1       9.601  11.580  18.396  0.00  0.00    +0.000 A 
ATOM     26  C   UNL     1       9.216  12.460  19.407  0.00  0.00    +0.000 A 
ATOM     27  C   UNL     1      10.121  13.403  19.895  0.00  0.00    +0.000 A 
ATOM     28  C   UNL     1      11.400  13.468  19.357  0.00  0.00    +0.000 A 
ATOM     29  F   UNL     1      12.266  14.380  19.822  0.00  0.00    +0.000 F 
ATOM     30  C   UNL     1      11.799  12.604  18.348  0.00  0.00    +0.000 A 
ATOM     31  C   UNL     1      10.900  11.651  17.871  0.00  0.00    +0.000 A 
ENDBRANCH  23  25
ENDBRANCH  20  21
ENDBRANCH  19  20
ENDBRANCH   2  19
TORSDOF 6
ENDMDL
MODEL 8
REMARK VINA RESULT:      -7.3      4.231      9.441
REMARK  Name = 
REMARK  7 active torsions:
REMARK  status: ('A' for Active; 'I' for Inactive)
REMARK    1  A    between atoms: C_1  and  O_2
REMARK    2  A    between atoms: O_2  and  C_3
REMARK    3  A    between atoms: C_8  and  N_9
REMARK    4  A    between atoms: C_10  and  S_11
REMARK    5  A    between atoms: S_11  and  C_12
REMARK    6  A    between atoms: C_12  and  C_13
REMARK    7  A    between atoms: N_15  and  C_16
REMARK                            x       y       z     vdW  Elec       q    Type
REMARK                         _______ _______ _______ _____ _____    ______ ____
ROOT
ATOM      1  N   UNL     1      -0.409  11.890  19.332  0.00  0.00    +0.000 N 
ATOM      2  C   UNL     1       0.214  11.277  20.423  0.00  0.00    +0.000 A 
ATOM      3  N   UNL     1       1.251  11.767  21.035  0.00  0.00    +0.000 NA
ATOM      4  C   UNL     1       1.761  12.933  20.550  0.00  0.00    +0.000 A 
ATOM      5  C   UNL     1       1.312  13.574  19.473  0.00  0.00    +0.000 A 
ATOM      6  C   UNL     1       0.131  13.055  18.765  0.00  0.00    +0.000 A 
ATOM      7  O   UNL     1      -0.315  13.643  17.781  0.00  0.00    +0.000 OA
ATOM      8  S   UNL     1       2.182  14.982  19.027  0.00  0.00    +0.000 S 
ATOM      9  C   UNL     1       3.539  14.566  20.180  0.00  0.00    +0.000 C 
ATOM     10  C   UNL     1       2.947  13.584  21.197  0.00  0.00    +0.000 C 
ENDROOT
BRANCH   1  16
ATOM     11  C   UNL     1      -2.896  11.867  19.079  0.00  0.00    +0.000 A 
ATOM     12  C   UNL     1      -4.015  11.295  18.454  0.00  0.00    +0.000 A 
ATOM     13  C   UNL     1      -3.874  10.290  17.493  0.00  0.00    +0.000 A 
ATOM     14  C   UNL     1      -2.609   9.833  17.149  0.00  0.00    +0.000 A 
ATOM     15  C   UNL     1      -1.489  10.387  17.765  0.00  0.00    +0.000 A 
ATOM     16  C   UNL     1      -1.613  11.399  18.743  0.00  0.00    +0.000 A 
BRANCH  11  18
ATOM     17  C   UNL     1      -4.586  12.997  20.339  0.00  0.00    +0.000 C 
ATOM     18  O   UNL     1      -3.210  12.785  20.046  0.00  0.00    +0.000 OA
ENDBRANCH  11  18
ENDBRANCH   1  16
BRANCH   2  19
ATOM     19  S   UNL     1      -0.300   9.665  20.922  0.00  0.00    +0.000 S 
BRANCH  19  20
ATOM     20  C   UNL     1       1.280   8.818  21.239  0.00  0.00    +0.000 C 
BRANCH  20  21
ATOM     21  C   UNL     1       1.852   8.024  20.062  0.00  0.00    +0.000 C 
ATOM     22  O   UNL     1       1.836   8.522  18.936  0.00  0.00    +0.000 OA
ATOM     23  N   UNL     1       2.316   6.763  20.362  0.00  0.00    +0.000 N 
ATOM     24  H   UNL     1       2.102   6.444  21.298  0.00  0.00    +0.000 HD
BRANCH  23  25
ATOM     25  C   UNL     1       2.874   5.806  19.507  0.00  0.00    +0.000 A 
ATOM     26  C   UNL     1       4.238   5.517  19.463  0.00  0.00    +0.000 A 
ATOM     27  C   UNL     1       4.716   4.533  18.596  0.00  0.00    +0.000 A 
ATOM     28  C   UNL     1       3.826   3.855  17.772  0.00  0.00    +0.000 A 
ATOM     29  F   UNL     1       4.289   2.915  16.935  0.00  0.00    +0.000 F 
ATOM     30  C   UNL     1       2.468   4.132  17.800  0.00  0.00    +0.000 A 
ATOM     31  C   UNL     1       1.988   5.104  18.676  0.00  0.00    +0.000 A 
ENDBRANCH  23  25
ENDBRANCH  20  21
ENDBRANCH  19  20
ENDBRANCH   2  19
TORSDOF 6
ENDMDL
MODEL 9
REMARK VINA RESULT:      -7.2      2.087      4.518
REMARK  Name = 
REMARK  7 active torsions:
REMARK  status: ('A' for Active; 'I' for Inactive)
REMARK    1  A    between atoms: C_1  and  O_2
REMARK    2  A    between atoms: O_2  and  C_3
REMARK    3  A    between atoms: C_8  and  N_9
REMARK    4  A    between atoms: C_10  and  S_11
REMARK    5  A    between atoms: S_11  and  C_12
REMARK    6  A    between atoms: C_12  and  C_13
REMARK    7  A    between atoms: N_15  and  C_16
REMARK                            x       y       z     vdW  Elec       q    Type
REMARK                         _______ _______ _______ _____ _____    ______ ____
ROOT
ATOM      1  N   UNL     1       3.728   5.281  18.828  0.00  0.00    +0.000 N 
ATOM      2  C   UNL     1       3.476   6.491  18.175  0.00  0.00    +0.000 A 
ATOM      3  N   UNL     1       4.404   7.252  17.677  0.00  0.00    +0.000 NA
ATOM      4  C   UNL     1       5.694   6.841  17.835  0.00  0.00    +0.000 A 
ATOM      5  C   UNL     1       6.071   5.752  18.503  0.00  0.00    +0.000 A 
ATOM      6  C   UNL     1       5.046   4.862  19.069  0.00  0.00    +0.000 A 
ATOM      7  O   UNL     1       5.372   3.839  19.670  0.00  0.00    +0.000 OA
ATOM      8  S   UNL     1       7.763   5.502  18.622  0.00  0.00    +0.000 S 
ATOM      9  C   UNL     1       8.104   7.189  18.007  0.00  0.00    +0.000 C 
ATOM     10  C   UNL     1       6.832   7.643  17.281  0.00  0.00    +0.000 C 
ENDROOT
BRANCH   1  16
ATOM     11  C   UNL     1       2.003   3.518  18.423  0.00  0.00    +0.000 A 
ATOM     12  C   UNL     1       0.985   2.715  18.961  0.00  0.00    +0.000 A 
ATOM     13  C   UNL     1       0.665   2.764  20.321  0.00  0.00    +0.000 A 
ATOM     14  C   UNL     1       1.352   3.626  21.163  0.00  0.00    +0.000 A 
ATOM     15  C   UNL     1       2.361   4.433  20.643  0.00  0.00    +0.000 A 
ATOM     16  C   UNL     1       2.694   4.402  19.271  0.00  0.00    +0.000 A 
BRANCH  11  18
ATOM     17  C   UNL     1       3.353   2.851  16.566  0.00  0.00    +0.000 C 
ATOM     18  O   UNL     1       2.141   3.402  17.066  0.00  0.00    +0.000 OA
ENDBRANCH  11  18
ENDBRANCH   1  16
BRANCH   2  19
ATOM     19  S   UNL     1       1.837   7.141  18.157  0.00  0.00    +0.000 S 
BRANCH  19  20
ATOM     20  C   UNL     1       2.102   8.895  17.750  0.00  0.00    +0.000 C 
BRANCH  20  21
ATOM     21  C   UNL     1       1.471   9.900  18.718  0.00  0.00    +0.000 C 
ATOM     22  O   UNL     1       1.715  11.100  18.583  0.00  0.00    +0.000 OA
ATOM     23  N   UNL     1       0.691   9.359  19.715  0.00  0.00    +0.000 N 
ATOM     24  H   UNL     1       0.730   8.350  19.783  0.00  0.00    +0.000 HD
BRANCH  23  25
ATOM     25  C   UNL     1       0.002  10.012  20.743  0.00  0.00    +0.000 A 
ATOM     26  C   UNL     1       0.067   9.621  22.081  0.00  0.00    +0.000 A 
ATOM     27  C   UNL     1      -0.634  10.337  23.052  0.00  0.00    +0.000 A 
ATOM     28  C   UNL     1      -1.405  11.430  22.675  0.00  0.00    +0.000 A 
ATOM     29  F   UNL     1      -2.083  12.111  23.610  0.00  0.00    +0.000 F 
ATOM     30  C   UNL     1      -1.484  11.829  21.350  0.00  0.00    +0.000 A 
ATOM     31  C   UNL     1      -0.772  11.124  20.381  0.00  0.00    +0.000 A 
ENDBRANCH  23  25
ENDBRANCH  20  21
ENDBRANCH  19  20
ENDBRANCH   2  19
TORSDOF 6
ENDMDL
