MODEL 1
REMARK VINA RESULT:      -8.5      0.000      0.000
REMARK  Name = 
REMARK  0 active torsions:
REMARK  status: ('A' for Active; 'I' for Inactive)
REMARK                            x       y       z     vdW  Elec       q    Type
REMARK                         _______ _______ _______ _____ _____    ______ ____
ROOT
ATOM      1  O   UNL     1       7.833   6.981  16.857  0.00  0.00    +0.000 OA
ATOM      2  C   UNL     1       6.845   6.275  16.759  0.00  0.00    +0.000 C 
ATOM      3  C   UNL     1       6.050   5.708  17.902  0.00  0.00    +0.000 C 
ATOM      4  C   UNL     1       4.823   5.065  17.228  0.00  0.00    +0.000 C 
ATOM      5  C   UNL     1       4.435   3.773  17.920  0.00  0.00    +0.000 C 
ATOM      6  C   UNL     1       3.526   3.788  18.907  0.00  0.00    +0.000 C 
ATOM      7  C   UNL     1       2.902   5.050  19.261  0.00  0.00    +0.000 A 
ATOM      8  C   UNL     1       2.980   6.065  18.386  0.00  0.00    +0.000 A 
ATOM      9  C   UNL     1       2.324   7.334  18.654  0.00  0.00    +0.000 A 
ATOM     10  C   UNL     1       2.236   8.360  17.707  0.00  0.00    +0.000 A 
ATOM     11  C   UNL     1       1.653   9.582  18.046  0.00  0.00    +0.000 A 
ATOM     12  C   UNL     1       1.169   9.791  19.338  0.00  0.00    +0.000 A 
ATOM     13  C   UNL     1       1.233   8.767  20.283  0.00  0.00    +0.000 A 
ATOM     14  C   UNL     1       1.789   7.543  19.921  0.00  0.00    +0.000 A 
ATOM     15  O   UNL     1       1.767   6.506  20.873  0.00  0.00    +0.000 OA
ATOM     16  C   UNL     1       2.188   5.217  20.553  0.00  0.00    +0.000 A 
ATOM     17  O   UNL     1       2.026   4.281  21.333  0.00  0.00    +0.000 OA
ATOM     18  O   UNL     1       3.729   6.016  17.224  0.00  0.00    +0.000 OA
ATOM     19  C   UNL     1       5.251   4.882  15.761  0.00  0.00    +0.000 C 
ATOM     20  N   UNL     1       6.322   5.821  15.574  0.00  0.00    +0.000 N 
ATOM     21  H   UNL     1       6.772   6.046  14.695  0.00  0.00    +0.000 HD
ENDROOT
TORSDOF 0
ENDMDL
MODEL 2
REMARK VINA RESULT:      -8.0      3.223      6.359
REMARK  Name = 
REMARK  0 active torsions:
REMARK  status: ('A' for Active; 'I' for Inactive)
REMARK                            x       y       z     vdW  Elec       q    Type
REMARK                         _______ _______ _______ _____ _____    ______ ____
ROOT
ATOM      1  O   UNL     1       3.696   0.780  18.556  0.00  0.00    +0.000 OA
ATOM      2  C   UNL     1       3.469   1.952  18.315  0.00  0.00    +0.000 C 
ATOM      3  C   UNL     1       4.474   3.070  18.352  0.00  0.00    +0.000 C 
ATOM      4  C   UNL     1       3.711   4.284  17.789  0.00  0.00    +0.000 C 
ATOM      5  C   UNL     1       4.092   5.556  18.522  0.00  0.00    +0.000 C 
ATOM      6  C   UNL     1       5.086   6.326  18.054  0.00  0.00    +0.000 C 
ATOM      7  C   UNL     1       5.750   5.938  16.822  0.00  0.00    +0.000 A 
ATOM      8  C   UNL     1       5.136   5.051  16.023  0.00  0.00    +0.000 A 
ATOM      9  C   UNL     1       5.719   4.667  14.748  0.00  0.00    +0.000 A 
ATOM     10  C   UNL     1       5.044   3.879  13.810  0.00  0.00    +0.000 A 
ATOM     11  C   UNL     1       5.681   3.488  12.631  0.00  0.00    +0.000 A 
ATOM     12  C   UNL     1       7.002   3.868  12.392  0.00  0.00    +0.000 A 
ATOM     13  C   UNL     1       7.677   4.671  13.312  0.00  0.00    +0.000 A 
ATOM     14  C   UNL     1       7.017   5.080  14.468  0.00  0.00    +0.000 A 
ATOM     15  O   UNL     1       7.698   5.954  15.337  0.00  0.00    +0.000 OA
ATOM     16  C   UNL     1       7.069   6.509  16.448  0.00  0.00    +0.000 A 
ATOM     17  O   UNL     1       7.611   7.386  17.116  0.00  0.00    +0.000 OA
ATOM     18  O   UNL     1       3.970   4.392  16.368  0.00  0.00    +0.000 OA
ATOM     19  C   UNL     1       2.228   3.900  17.938  0.00  0.00    +0.000 C 
ATOM     20  N   UNL     1       2.230   2.466  18.026  0.00  0.00    +0.000 N 
ATOM     21  H   UNL     1       1.414   1.867  18.026  0.00  0.00    +0.000 HD
ENDROOT
TORSDOF 0
ENDMDL
MODEL 3
REMARK VINA RESULT:      -8.0      2.290      4.427
REMARK  Name = 
REMARK  0 active torsions:
REMARK  status: ('A' for Active; 'I' for Inactive)
REMARK                            x       y       z     vdW  Elec       q    Type
REMARK                         _______ _______ _______ _____ _____    ______ ____
ROOT
ATOM      1  O   UNL     1       0.031   2.091  18.962  0.00  0.00    +0.000 OA
ATOM      2  C   UNL     1       1.158   2.491  19.198  0.00  0.00    +0.000 C 
ATOM      3  C   UNL     1       2.055   3.219  18.237  0.00  0.00    +0.000 C 
ATOM      4  C   UNL     1       3.260   3.650  19.094  0.00  0.00    +0.000 C 
ATOM      5  C   UNL     1       4.553   3.538  18.312  0.00  0.00    +0.000 C 
ATOM      6  C   UNL     1       5.022   4.599  17.636  0.00  0.00    +0.000 C 
ATOM      7  C   UNL     1       4.289   5.850  17.707  0.00  0.00    +0.000 A 
ATOM      8  C   UNL     1       3.396   6.008  18.696  0.00  0.00    +0.000 A 
ATOM      9  C   UNL     1       2.674   7.259  18.859  0.00  0.00    +0.000 A 
ATOM     10  C   UNL     1       1.862   7.531  19.965  0.00  0.00    +0.000 A 
ATOM     11  C   UNL     1       1.141   8.724  20.031  0.00  0.00    +0.000 A 
ATOM     12  C   UNL     1       1.216   9.645  18.986  0.00  0.00    +0.000 A 
ATOM     13  C   UNL     1       2.039   9.392  17.888  0.00  0.00    +0.000 A 
ATOM     14  C   UNL     1       2.776   8.212  17.851  0.00  0.00    +0.000 A 
ATOM     15  O   UNL     1       3.657   8.023  16.769  0.00  0.00    +0.000 OA
ATOM     16  C   UNL     1       4.522   6.933  16.717  0.00  0.00    +0.000 A 
ATOM     17  O   UNL     1       5.393   6.849  15.855  0.00  0.00    +0.000 OA
ATOM     18  O   UNL     1       3.044   4.999  19.576  0.00  0.00    +0.000 OA
ATOM     19  C   UNL     1       3.195   2.728  20.326  0.00  0.00    +0.000 C 
ATOM     20  N   UNL     1       1.829   2.285  20.378  0.00  0.00    +0.000 N 
ATOM     21  H   UNL     1       1.404   1.747  21.122  0.00  0.00    +0.000 HD
ENDROOT
TORSDOF 0
ENDMDL
MODEL 4
REMARK VINA RESULT:      -7.7      3.998      7.106
REMARK  Name = 
REMARK  0 active torsions:
REMARK  status: ('A' for Active; 'I' for Inactive)
REMARK                            x       y       z     vdW  Elec       q    Type
REMARK                         _______ _______ _______ _____ _____    ______ ____
ROOT
ATOM      1  O   UNL     1      -3.110  10.941  16.721  0.00  0.00    +0.000 OA
ATOM      2  C   UNL     1      -2.238  11.435  17.415  0.00  0.00    +0.000 C 
ATOM      3  C   UNL     1      -1.940  11.075  18.844  0.00  0.00    +0.000 C 
ATOM      4  C   UNL     1      -0.649  11.849  19.168  0.00  0.00    +0.000 C 
ATOM      5  C   UNL     1      -0.673  12.379  20.589  0.00  0.00    +0.000 C 
ATOM      6  C   UNL     1      -0.144  11.650  21.584  0.00  0.00    +0.000 C 
ATOM      7  C   UNL     1       0.479  10.379  21.264  0.00  0.00    +0.000 A 
ATOM      8  C   UNL     1       0.818  10.142  19.987  0.00  0.00    +0.000 A 
ATOM      9  C   UNL     1       1.500   8.915  19.611  0.00  0.00    +0.000 A 
ATOM     10  C   UNL     1       2.021   8.695  18.331  0.00  0.00    +0.000 A 
ATOM     11  C   UNL     1       2.606   7.469  18.011  0.00  0.00    +0.000 A 
ATOM     12  C   UNL     1       2.659   6.450  18.963  0.00  0.00    +0.000 A 
ATOM     13  C   UNL     1       2.162   6.667  20.248  0.00  0.00    +0.000 A 
ATOM     14  C   UNL     1       1.610   7.906  20.562  0.00  0.00    +0.000 A 
ATOM     15  O   UNL     1       1.190   8.119  21.889  0.00  0.00    +0.000 OA
ATOM     16  C   UNL     1       0.743   9.366  22.318  0.00  0.00    +0.000 A 
ATOM     17  O   UNL     1       0.523   9.592  23.506  0.00  0.00    +0.000 OA
ATOM     18  O   UNL     1       0.493  10.987  18.941  0.00  0.00    +0.000 OA
ATOM     19  C   UNL     1      -0.589  12.950  18.094  0.00  0.00    +0.000 C 
ATOM     20  N   UNL     1      -1.415  12.461  17.025  0.00  0.00    +0.000 N 
ATOM     21  H   UNL     1      -1.520  12.883  16.111  0.00  0.00    +0.000 HD
ENDROOT
TORSDOF 0
ENDMDL
MODEL 5
REMARK VINA RESULT:      -7.6      0.986      1.079
REMARK  Name = 
REMARK  0 active torsions:
REMARK  status: ('A' for Active; 'I' for Inactive)
REMARK                            x       y       z     vdW  Elec       q    Type
REMARK                         _______ _______ _______ _____ _____    ______ ____
ROOT
ATOM      1  O   UNL     1       8.124   7.045  18.389  0.00  0.00    +0.000 OA
ATOM      2  C   UNL     1       7.200   6.458  17.852  0.00  0.00    +0.000 C 
ATOM      3  C   UNL     1       6.240   5.520  18.528  0.00  0.00    +0.000 C 
ATOM      4  C   UNL     1       5.182   5.218  17.449  0.00  0.00    +0.000 C 
ATOM      5  C   UNL     1       4.735   3.771  17.515  0.00  0.00    +0.000 C 
ATOM      6  C   UNL     1       3.664   3.433  18.250  0.00  0.00    +0.000 C 
ATOM      7  C   UNL     1       2.931   4.481  18.938  0.00  0.00    +0.000 A 
ATOM      8  C   UNL     1       3.120   5.751  18.545  0.00  0.00    +0.000 A 
ATOM      9  C   UNL     1       2.372   6.839  19.151  0.00  0.00    +0.000 A 
ATOM     10  C   UNL     1       2.409   8.151  18.667  0.00  0.00    +0.000 A 
ATOM     11  C   UNL     1       1.722   9.166  19.333  0.00  0.00    +0.000 A 
ATOM     12  C   UNL     1       1.006   8.880  20.496  0.00  0.00    +0.000 A 
ATOM     13  C   UNL     1       0.945   7.571  20.975  0.00  0.00    +0.000 A 
ATOM     14  C   UNL     1       1.611   6.563  20.282  0.00  0.00    +0.000 A 
ATOM     15  O   UNL     1       1.465   5.242  20.747  0.00  0.00    +0.000 OA
ATOM     16  C   UNL     1       1.991   4.161  20.043  0.00  0.00    +0.000 A 
ATOM     17  O   UNL     1       1.734   3.004  20.364  0.00  0.00    +0.000 OA
ATOM     18  O   UNL     1       4.066   6.128  17.608  0.00  0.00    +0.000 OA
ATOM     19  C   UNL     1       5.873   5.597  16.127  0.00  0.00    +0.000 C 
ATOM     20  N   UNL     1       6.918   6.506  16.509  0.00  0.00    +0.000 N 
ATOM     21  H   UNL     1       7.508   7.036  15.880  0.00  0.00    +0.000 HD
ENDROOT
TORSDOF 0
ENDMDL
MODEL 6
REMARK VINA RESULT:      -7.6      2.123      4.205
REMARK  Name = 
REMARK  0 active torsions:
REMARK  status: ('A' for Active; 'I' for Inactive)
REMARK                            x       y       z     vdW  Elec       q    Type
REMARK                         _______ _______ _______ _____ _____    ______ ____
ROOT
ATOM      1  O   UNL     1       5.543   3.631  12.947  0.00  0.00    +0.000 OA
ATOM      2  C   UNL     1       5.885   4.119  14.010  0.00  0.00    +0.000 C 
ATOM      3  C   UNL     1       5.115   5.142  14.798  0.00  0.00    +0.000 C 
ATOM      4  C   UNL     1       5.892   5.263  16.122  0.00  0.00    +0.000 C 
ATOM      5  C   UNL     1       5.919   6.699  16.609  0.00  0.00    +0.000 C 
ATOM      6  C   UNL     1       4.975   7.136  17.457  0.00  0.00    +0.000 C 
ATOM      7  C   UNL     1       3.966   6.201  17.920  0.00  0.00    +0.000 A 
ATOM      8  C   UNL     1       4.205   4.888  17.780  0.00  0.00    +0.000 A 
ATOM      9  C   UNL     1       3.262   3.900  18.279  0.00  0.00    +0.000 A 
ATOM     10  C   UNL     1       3.541   2.530  18.307  0.00  0.00    +0.000 A 
ATOM     11  C   UNL     1       2.569   1.624  18.735  0.00  0.00    +0.000 A 
ATOM     12  C   UNL     1       1.309   2.081  19.122  0.00  0.00    +0.000 A 
ATOM     13  C   UNL     1       1.029   3.448  19.118  0.00  0.00    +0.000 A 
ATOM     14  C   UNL     1       2.019   4.342  18.718  0.00  0.00    +0.000 A 
ATOM     15  O   UNL     1       1.731   5.718  18.800  0.00  0.00    +0.000 OA
ATOM     16  C   UNL     1       2.704   6.680  18.540  0.00  0.00    +0.000 A 
ATOM     17  O   UNL     1       2.498   7.871  18.760  0.00  0.00    +0.000 OA
ATOM     18  O   UNL     1       5.300   4.379  17.105  0.00  0.00    +0.000 OA
ATOM     19  C   UNL     1       7.283   4.689  15.797  0.00  0.00    +0.000 C 
ATOM     20  N   UNL     1       7.075   3.861  14.642  0.00  0.00    +0.000 N 
ATOM     21  H   UNL     1       7.758   3.244  14.219  0.00  0.00    +0.000 HD
ENDROOT
TORSDOF 0
ENDMDL
MODEL 7
REMARK VINA RESULT:      -7.5      1.775      2.724
REMARK  Name = 
REMARK  0 active torsions:
REMARK  status: ('A' for Active; 'I' for Inactive)
REMARK                            x       y       z     vdW  Elec       q    Type
REMARK                         _______ _______ _______ _____ _____    ______ ____
ROOT
ATOM      1  O   UNL     1       8.562   7.309  18.963  0.00  0.00    +0.000 OA
ATOM      2  C   UNL     1       7.789   6.916  18.106  0.00  0.00    +0.000 C 
ATOM      3  C   UNL     1       7.074   5.593  18.103  0.00  0.00    +0.000 C 
ATOM      4  C   UNL     1       6.099   5.692  16.915  0.00  0.00    +0.000 C 
ATOM      5  C   UNL     1       5.992   4.367  16.186  0.00  0.00    +0.000 C 
ATOM      6  C   UNL     1       5.035   3.490  16.528  0.00  0.00    +0.000 C 
ATOM      7  C   UNL     1       4.093   3.856  17.570  0.00  0.00    +0.000 A 
ATOM      8  C   UNL     1       3.984   5.152  17.901  0.00  0.00    +0.000 A 
ATOM      9  C   UNL     1       3.016   5.590  18.894  0.00  0.00    +0.000 A 
ATOM     10  C   UNL     1       2.750   6.939  19.152  0.00  0.00    +0.000 A 
ATOM     11  C   UNL     1       1.858   7.298  20.164  0.00  0.00    +0.000 A 
ATOM     12  C   UNL     1       1.242   6.312  20.935  0.00  0.00    +0.000 A 
ATOM     13  C   UNL     1       1.485   4.963  20.671  0.00  0.00    +0.000 A 
ATOM     14  C   UNL     1       2.353   4.621  19.637  0.00  0.00    +0.000 A 
ATOM     15  O   UNL     1       2.516   3.253  19.345  0.00  0.00    +0.000 OA
ATOM     16  C   UNL     1       3.265   2.827  18.251  0.00  0.00    +0.000 A 
ATOM     17  O   UNL     1       3.281   1.648  17.908  0.00  0.00    +0.000 OA
ATOM     18  O   UNL     1       4.808   6.141  17.395  0.00  0.00    +0.000 OA
ATOM     19  C   UNL     1       6.669   6.833  16.053  0.00  0.00    +0.000 C 
ATOM     20  N   UNL     1       7.486   7.598  16.954  0.00  0.00    +0.000 N 
ATOM     21  H   UNL     1       7.931   8.483  16.750  0.00  0.00    +0.000 HD
ENDROOT
TORSDOF 0
ENDMDL
MODEL 8
REMARK VINA RESULT:      -7.3      2.955      5.652
REMARK  Name = 
REMARK  0 active torsions:
REMARK  status: ('A' for Active; 'I' for Inactive)
REMARK                            x       y       z     vdW  Elec       q    Type
REMARK                         _______ _______ _______ _____ _____    ______ ____
ROOT
ATOM      1  O   UNL     1       1.195   5.604  21.015  0.00  0.00    +0.000 OA
ATOM      2  C   UNL     1       1.801   4.717  20.439  0.00  0.00    +0.000 C 
ATOM      3  C   UNL     1       2.201   4.720  18.990  0.00  0.00    +0.000 C 
ATOM      4  C   UNL     1       3.089   3.471  18.839  0.00  0.00    +0.000 C 
ATOM      5  C   UNL     1       2.849   2.787  17.508  0.00  0.00    +0.000 C 
ATOM      6  C   UNL     1       3.608   3.102  16.446  0.00  0.00    +0.000 C 
ATOM      7  C   UNL     1       4.676   4.070  16.615  0.00  0.00    +0.000 A 
ATOM      8  C   UNL     1       5.094   4.344  17.861  0.00  0.00    +0.000 A 
ATOM      9  C   UNL     1       6.201   5.257  18.093  0.00  0.00    +0.000 A 
ATOM     10  C   UNL     1       6.778   5.447  19.353  0.00  0.00    +0.000 A 
ATOM     11  C   UNL     1       7.795   6.388  19.526  0.00  0.00    +0.000 A 
ATOM     12  C   UNL     1       8.228   7.155  18.445  0.00  0.00    +0.000 A 
ATOM     13  C   UNL     1       7.672   6.959  17.180  0.00  0.00    +0.000 A 
ATOM     14  C   UNL     1       6.681   5.994  17.017  0.00  0.00    +0.000 A 
ATOM     15  O   UNL     1       6.198   5.765  15.714  0.00  0.00    +0.000 OA
ATOM     16  C   UNL     1       5.300   4.736  15.443  0.00  0.00    +0.000 A 
ATOM     17  O   UNL     1       4.998   4.440  14.289  0.00  0.00    +0.000 OA
ATOM     18  O   UNL     1       4.478   3.852  18.998  0.00  0.00    +0.000 OA
ATOM     19  C   UNL     1       2.730   2.603  20.059  0.00  0.00    +0.000 C 
ATOM     20  N   UNL     1       2.168   3.523  21.008  0.00  0.00    +0.000 N 
ATOM     21  H   UNL     1       1.918   3.313  21.967  0.00  0.00    +0.000 HD
ENDROOT
TORSDOF 0
ENDMDL
MODEL 9
REMARK VINA RESULT:      -7.1      2.736      4.782
REMARK  Name = 
REMARK  0 active torsions:
REMARK  status: ('A' for Active; 'I' for Inactive)
REMARK                            x       y       z     vdW  Elec       q    Type
REMARK                         _______ _______ _______ _____ _____    ______ ____
ROOT
ATOM      1  O   UNL     1       5.258   1.380  21.312  0.00  0.00    +0.000 OA
ATOM      2  C   UNL     1       4.624   1.635  20.303  0.00  0.00    +0.000 C 
ATOM      3  C   UNL     1       3.815   2.878  20.061  0.00  0.00    +0.000 C 
ATOM      4  C   UNL     1       3.389   2.772  18.584  0.00  0.00    +0.000 C 
ATOM      5  C   UNL     1       1.977   3.288  18.385  0.00  0.00    +0.000 C 
ATOM      6  C   UNL     1       1.774   4.572  18.053  0.00  0.00    +0.000 C 
ATOM      7  C   UNL     1       2.926   5.432  17.851  0.00  0.00    +0.000 A 
ATOM      8  C   UNL     1       4.122   4.855  17.656  0.00  0.00    +0.000 A 
ATOM      9  C   UNL     1       5.303   5.658  17.387  0.00  0.00    +0.000 A 
ATOM     10  C   UNL     1       6.532   5.103  17.014  0.00  0.00    +0.000 A 
ATOM     11  C   UNL     1       7.648   5.921  16.835  0.00  0.00    +0.000 A 
ATOM     12  C   UNL     1       7.547   7.297  17.044  0.00  0.00    +0.000 A 
ATOM     13  C   UNL     1       6.321   7.863  17.396  0.00  0.00    +0.000 A 
ATOM     14  C   UNL     1       5.209   7.037  17.540  0.00  0.00    +0.000 A 
ATOM     15  O   UNL     1       3.971   7.647  17.817  0.00  0.00    +0.000 OA
ATOM     16  C   UNL     1       2.789   6.911  17.853  0.00  0.00    +0.000 A 
ATOM     17  O   UNL     1       1.695   7.463  17.943  0.00  0.00    +0.000 OA
ATOM     18  O   UNL     1       4.339   3.493  17.762  0.00  0.00    +0.000 OA
ATOM     19  C   UNL     1       3.560   1.280  18.249  0.00  0.00    +0.000 C 
ATOM     20  N   UNL     1       4.488   0.789  19.230  0.00  0.00    +0.000 N 
ATOM     21  H   UNL     1       4.909  -0.131  19.246  0.00  0.00    +0.000 HD
ENDROOT
TORSDOF 0
ENDMDL
