MODEL 1
REMARK VINA RESULT:      -7.4      0.000      0.000
REMARK  Name = 
REMARK  3 active torsions:
REMARK  status: ('A' for Active; 'I' for Inactive)
REMARK    1  A    between atoms: C_2  and  C_3
REMARK    2  A    between atoms: C_3  and  N_4
REMARK    3  A    between atoms: N_7  and  C_8
REMARK                            x       y       z     vdW  Elec       q    Type
REMARK                         _______ _______ _______ _____ _____    ______ ____
ROOT
ATOM      1  N   UNL     1       3.597   3.962  17.623  0.00  0.00    +0.000 N 
ATOM      2  C   UNL     1       2.540   4.845  17.934  0.00  0.00    +0.000 A 
ATOM      3  O   UNL     1       1.407   4.503  18.255  0.00  0.00    +0.000 OA
ATOM      4  N   UNL     1       3.057   6.161  17.821  0.00  0.00    +0.000 N 
ATOM      5  C   UNL     1       4.428   6.068  17.477  0.00  0.00    +0.000 A 
ATOM      6  N   UNL     1       5.322   7.064  17.357  0.00  0.00    +0.000 NA
ATOM      7  C   UNL     1       6.597   6.679  17.123  0.00  0.00    +0.000 A 
ATOM      8  C   UNL     1       7.001   5.346  17.024  0.00  0.00    +0.000 A 
ATOM      9  C   UNL     1       6.055   4.331  17.164  0.00  0.00    +0.000 A 
ATOM     10  C   UNL     1       4.749   4.718  17.385  0.00  0.00    +0.000 A 
ENDROOT
BRANCH   4  11
ATOM     11  C   UNL     1       2.567   7.321  18.463  0.00  0.00    +0.000 A 
ATOM     12  C   UNL     1       2.150   8.423  17.679  0.00  0.00    +0.000 A 
ATOM     13  C   UNL     1       1.346   9.432  18.222  0.00  0.00    +0.000 A 
ATOM     14  C   UNL     1       0.996   9.319  19.546  0.00  0.00    +0.000 A 
ATOM     15  C   UNL     1       1.493   8.313  20.342  0.00  0.00    +0.000 A 
ATOM     16  C   UNL     1       2.309   7.325  19.843  0.00  0.00    +0.000 A 
ATOM     17  O   UNL     1       0.998   8.367  21.609  0.00  0.00    +0.000 OA
ATOM     18  C   UNL     1      -0.060   9.326  21.416  0.00  0.00    +0.000 C 
ATOM     19  O   UNL     1       0.101  10.100  20.208  0.00  0.00    +0.000 OA
ENDBRANCH   4  11
BRANCH   1  20
ATOM     20  C   UNL     1       3.497   2.530  17.647  0.00  0.00    +0.000 C 
BRANCH  20  22
ATOM     21  C   UNL     1       4.406   2.185  19.973  0.00  0.00    +0.000 C 
ATOM     22  C   UNL     1       3.433   2.038  19.063  0.00  0.00    +0.000 C 
ENDBRANCH  20  22
ENDBRANCH   1  20
TORSDOF 3
ENDMDL
MODEL 2
REMARK VINA RESULT:      -7.4      3.065      5.861
REMARK  Name = 
REMARK  3 active torsions:
REMARK  status: ('A' for Active; 'I' for Inactive)
REMARK    1  A    between atoms: C_2  and  C_3
REMARK    2  A    between atoms: C_3  and  N_4
REMARK    3  A    between atoms: N_7  and  C_8
REMARK                            x       y       z     vdW  Elec       q    Type
REMARK                         _______ _______ _______ _____ _____    ______ ____
ROOT
ATOM      1  N   UNL     1       3.073   3.860  20.390  0.00  0.00    +0.000 N 
ATOM      2  C   UNL     1       4.215   3.773  19.564  0.00  0.00    +0.000 A 
ATOM      3  O   UNL     1       4.854   2.749  19.351  0.00  0.00    +0.000 OA
ATOM      4  N   UNL     1       4.440   5.070  19.038  0.00  0.00    +0.000 N 
ATOM      5  C   UNL     1       3.418   5.926  19.518  0.00  0.00    +0.000 A 
ATOM      6  N   UNL     1       3.196   7.212  19.200  0.00  0.00    +0.000 NA
ATOM      7  C   UNL     1       2.077   7.758  19.728  0.00  0.00    +0.000 A 
ATOM      8  C   UNL     1       1.178   7.061  20.538  0.00  0.00    +0.000 A 
ATOM      9  C   UNL     1       1.426   5.723  20.842  0.00  0.00    +0.000 A 
ATOM     10  C   UNL     1       2.576   5.164  20.322  0.00  0.00    +0.000 A 
ENDROOT
BRANCH   4  11
ATOM     11  C   UNL     1       5.127   5.392  17.845  0.00  0.00    +0.000 A 
ATOM     12  C   UNL     1       6.385   6.038  17.922  0.00  0.00    +0.000 A 
ATOM     13  C   UNL     1       7.254   6.061  16.826  0.00  0.00    +0.000 A 
ATOM     14  C   UNL     1       6.829   5.451  15.670  0.00  0.00    +0.000 A 
ATOM     15  C   UNL     1       5.565   4.924  15.552  0.00  0.00    +0.000 A 
ATOM     16  C   UNL     1       4.679   4.914  16.604  0.00  0.00    +0.000 A 
ATOM     17  O   UNL     1       5.359   4.342  14.339  0.00  0.00    +0.000 OA
ATOM     18  C   UNL     1       6.714   4.317  13.849  0.00  0.00    +0.000 C 
ATOM     19  O   UNL     1       7.581   5.227  14.558  0.00  0.00    +0.000 OA
ENDBRANCH   4  11
BRANCH   1  20
ATOM     20  C   UNL     1       2.490   2.753  21.094  0.00  0.00    +0.000 C 
BRANCH  20  22
ATOM     21  C   UNL     1       1.039   2.182  19.114  0.00  0.00    +0.000 C 
ATOM     22  C   UNL     1       1.209   2.334  20.434  0.00  0.00    +0.000 C 
ENDBRANCH  20  22
ENDBRANCH   1  20
TORSDOF 3
ENDMDL
MODEL 3
REMARK VINA RESULT:      -7.4      3.071      6.116
REMARK  Name = 
REMARK  3 active torsions:
REMARK  status: ('A' for Active; 'I' for Inactive)
REMARK    1  A    between atoms: C_2  and  C_3
REMARK    2  A    between atoms: C_3  and  N_4
REMARK    3  A    between atoms: N_7  and  C_8
REMARK                            x       y       z     vdW  Elec       q    Type
REMARK                         _______ _______ _______ _____ _____    ______ ____
ROOT
ATOM      1  N   UNL     1       3.344   4.777  20.024  0.00  0.00    +0.000 N 
ATOM      2  C   UNL     1       4.373   4.071  19.364  0.00  0.00    +0.000 A 
ATOM      3  O   UNL     1       4.760   2.947  19.664  0.00  0.00    +0.000 OA
ATOM      4  N   UNL     1       4.827   4.900  18.307  0.00  0.00    +0.000 N 
ATOM      5  C   UNL     1       4.051   6.085  18.311  0.00  0.00    +0.000 A 
ATOM      6  N   UNL     1       4.083   7.101  17.432  0.00  0.00    +0.000 NA
ATOM      7  C   UNL     1       3.151   8.062  17.617  0.00  0.00    +0.000 A 
ATOM      8  C   UNL     1       2.191   8.031  18.630  0.00  0.00    +0.000 A 
ATOM      9  C   UNL     1       2.171   6.960  19.522  0.00  0.00    +0.000 A 
ATOM     10  C   UNL     1       3.132   5.983  19.351  0.00  0.00    +0.000 A 
ENDROOT
BRANCH   4  11
ATOM     11  C   UNL     1       5.471   4.482  17.120  0.00  0.00    +0.000 A 
ATOM     12  C   UNL     1       4.817   3.566  16.262  0.00  0.00    +0.000 A 
ATOM     13  C   UNL     1       5.233   3.394  14.937  0.00  0.00    +0.000 A 
ATOM     14  C   UNL     1       6.310   4.134  14.511  0.00  0.00    +0.000 A 
ATOM     15  C   UNL     1       7.020   4.939  15.371  0.00  0.00    +0.000 A 
ATOM     16  C   UNL     1       6.652   5.103  16.686  0.00  0.00    +0.000 A 
ATOM     17  O   UNL     1       8.027   5.605  14.742  0.00  0.00    +0.000 OA
ATOM     18  C   UNL     1       7.671   5.343  13.370  0.00  0.00    +0.000 C 
ATOM     19  O   UNL     1       6.762   4.229  13.232  0.00  0.00    +0.000 OA
ENDBRANCH   4  11
BRANCH   1  20
ATOM     20  C   UNL     1       2.595   4.273  21.141  0.00  0.00    +0.000 C 
BRANCH  20  22
ATOM     21  C   UNL     1       1.022   2.894  19.735  0.00  0.00    +0.000 C 
ATOM     22  C   UNL     1       1.241   3.806  20.691  0.00  0.00    +0.000 C 
ENDBRANCH  20  22
ENDBRANCH   1  20
TORSDOF 3
ENDMDL
MODEL 4
REMARK VINA RESULT:      -7.3      1.735      3.585
REMARK  Name = 
REMARK  3 active torsions:
REMARK  status: ('A' for Active; 'I' for Inactive)
REMARK    1  A    between atoms: C_2  and  C_3
REMARK    2  A    between atoms: C_3  and  N_4
REMARK    3  A    between atoms: N_7  and  C_8
REMARK                            x       y       z     vdW  Elec       q    Type
REMARK                         _______ _______ _______ _____ _____    ______ ____
ROOT
ATOM      1  N   UNL     1       4.892   4.615  17.440  0.00  0.00    +0.000 N 
ATOM      2  C   UNL     1       4.609   5.921  17.896  0.00  0.00    +0.000 A 
ATOM      3  O   UNL     1       5.253   6.923  17.606  0.00  0.00    +0.000 OA
ATOM      4  N   UNL     1       3.452   5.830  18.711  0.00  0.00    +0.000 N 
ATOM      5  C   UNL     1       3.021   4.481  18.717  0.00  0.00    +0.000 A 
ATOM      6  N   UNL     1       1.919   3.965  19.285  0.00  0.00    +0.000 NA
ATOM      7  C   UNL     1       1.696   2.654  19.042  0.00  0.00    +0.000 A 
ATOM      8  C   UNL     1       2.521   1.859  18.243  0.00  0.00    +0.000 A 
ATOM      9  C   UNL     1       3.652   2.422  17.655  0.00  0.00    +0.000 A 
ATOM     10  C   UNL     1       3.897   3.756  17.915  0.00  0.00    +0.000 A 
ENDROOT
BRANCH   4  11
ATOM     11  C   UNL     1       2.533   6.866  18.994  0.00  0.00    +0.000 A 
ATOM     12  C   UNL     1       2.031   7.006  20.311  0.00  0.00    +0.000 A 
ATOM     13  C   UNL     1       1.414   8.191  20.726  0.00  0.00    +0.000 A 
ATOM     14  C   UNL     1       1.300   9.202  19.803  0.00  0.00    +0.000 A 
ATOM     15  C   UNL     1       1.680   9.031  18.492  0.00  0.00    +0.000 A 
ATOM     16  C   UNL     1       2.261   7.866  18.048  0.00  0.00    +0.000 A 
ATOM     17  O   UNL     1       1.511  10.162  17.754  0.00  0.00    +0.000 OA
ATOM     18  C   UNL     1       1.263  11.109  18.813  0.00  0.00    +0.000 C 
ATOM     19  O   UNL     1       0.882  10.472  20.052  0.00  0.00    +0.000 OA
ENDBRANCH   4  11
BRANCH   1  20
ATOM     20  C   UNL     1       5.974   4.275  16.560  0.00  0.00    +0.000 C 
BRANCH  20  22
ATOM     21  C   UNL     1       6.263   3.991  14.072  0.00  0.00    +0.000 C 
ATOM     22  C   UNL     1       5.527   4.358  15.130  0.00  0.00    +0.000 C 
ENDBRANCH  20  22
ENDBRANCH   1  20
TORSDOF 3
ENDMDL
MODEL 5
REMARK VINA RESULT:      -7.2      1.678      3.261
REMARK  Name = 
REMARK  3 active torsions:
REMARK  status: ('A' for Active; 'I' for Inactive)
REMARK    1  A    between atoms: C_2  and  C_3
REMARK    2  A    between atoms: C_3  and  N_4
REMARK    3  A    between atoms: N_7  and  C_8
REMARK                            x       y       z     vdW  Elec       q    Type
REMARK                         _______ _______ _______ _____ _____    ______ ____
ROOT
ATOM      1  N   UNL     1       4.689   4.594  17.270  0.00  0.00    +0.000 N 
ATOM      2  C   UNL     1       4.684   5.934  17.715  0.00  0.00    +0.000 A 
ATOM      3  O   UNL     1       5.520   6.779  17.415  0.00  0.00    +0.000 OA
ATOM      4  N   UNL     1       3.537   6.091  18.534  0.00  0.00    +0.000 N 
ATOM      5  C   UNL     1       2.837   4.859  18.553  0.00  0.00    +0.000 A 
ATOM      6  N   UNL     1       1.654   4.586  19.130  0.00  0.00    +0.000 NA
ATOM      7  C   UNL     1       1.165   3.348  18.899  0.00  0.00    +0.000 A 
ATOM      8  C   UNL     1       1.804   2.393  18.105  0.00  0.00    +0.000 A 
ATOM      9  C   UNL     1       3.025   2.706  17.508  0.00  0.00    +0.000 A 
ATOM     10  C   UNL     1       3.540   3.962  17.755  0.00  0.00    +0.000 A 
ENDROOT
BRANCH   4  11
ATOM     11  C   UNL     1       2.852   7.296  18.811  0.00  0.00    +0.000 A 
ATOM     12  C   UNL     1       2.533   8.173  17.746  0.00  0.00    +0.000 A 
ATOM     13  C   UNL     1       1.572   9.177  17.901  0.00  0.00    +0.000 A 
ATOM     14  C   UNL     1       0.968   9.290  19.130  0.00  0.00    +0.000 A 
ATOM     15  C   UNL     1       1.355   8.519  20.200  0.00  0.00    +0.000 A 
ATOM     16  C   UNL     1       2.318   7.544  20.085  0.00  0.00    +0.000 A 
ATOM     17  O   UNL     1       0.610   8.767  21.312  0.00  0.00    +0.000 OA
ATOM     18  C   UNL     1      -0.447   9.553  20.725  0.00  0.00    +0.000 C 
ATOM     19  O   UNL     1      -0.093  10.087  19.432  0.00  0.00    +0.000 OA
ENDBRANCH   4  11
BRANCH   1  20
ATOM     20  C   UNL     1       5.674   4.030  16.390  0.00  0.00    +0.000 C 
BRANCH  20  22
ATOM     21  C   UNL     1       6.037   3.954  13.897  0.00  0.00    +0.000 C 
ATOM     22  C   UNL     1       5.388   4.425  14.970  0.00  0.00    +0.000 C 
ENDBRANCH  20  22
ENDBRANCH   1  20
TORSDOF 3
ENDMDL
MODEL 6
REMARK VINA RESULT:      -7.0      2.686      6.311
REMARK  Name = 
REMARK  3 active torsions:
REMARK  status: ('A' for Active; 'I' for Inactive)
REMARK    1  A    between atoms: C_2  and  C_3
REMARK    2  A    between atoms: C_3  and  N_4
REMARK    3  A    between atoms: N_7  and  C_8
REMARK                            x       y       z     vdW  Elec       q    Type
REMARK                         _______ _______ _______ _____ _____    ______ ____
ROOT
ATOM      1  N   UNL     1       1.864   6.241  20.263  0.00  0.00    +0.000 N 
ATOM      2  C   UNL     1       2.628   6.717  19.176  0.00  0.00    +0.000 A 
ATOM      3  O   UNL     1       2.609   7.866  18.750  0.00  0.00    +0.000 OA
ATOM      4  N   UNL     1       3.409   5.627  18.715  0.00  0.00    +0.000 N 
ATOM      5  C   UNL     1       3.141   4.509  19.543  0.00  0.00    +0.000 A 
ATOM      6  N   UNL     1       3.725   3.300  19.519  0.00  0.00    +0.000 NA
ATOM      7  C   UNL     1       3.348   2.451  20.501  0.00  0.00    +0.000 A 
ATOM      8  C   UNL     1       2.430   2.776  21.503  0.00  0.00    +0.000 A 
ATOM      9  C   UNL     1       1.848   4.042  21.511  0.00  0.00    +0.000 A 
ATOM     10  C   UNL     1       2.214   4.908  20.501  0.00  0.00    +0.000 A 
ENDROOT
BRANCH   4  11
ATOM     11  C   UNL     1       4.627   5.699  18.001  0.00  0.00    +0.000 A 
ATOM     12  C   UNL     1       5.837   5.366  18.658  0.00  0.00    +0.000 A 
ATOM     13  C   UNL     1       6.998   5.081  17.932  0.00  0.00    +0.000 A 
ATOM     14  C   UNL     1       6.922   5.156  16.562  0.00  0.00    +0.000 A 
ATOM     15  C   UNL     1       5.784   5.591  15.923  0.00  0.00    +0.000 A 
ATOM     16  C   UNL     1       4.637   5.907  16.613  0.00  0.00    +0.000 A 
ATOM     17  O   UNL     1       5.910   5.562  14.568  0.00  0.00    +0.000 OA
ATOM     18  C   UNL     1       7.127   4.797  14.454  0.00  0.00    +0.000 C 
ATOM     19  O   UNL     1       7.884   4.765  15.683  0.00  0.00    +0.000 OA
ENDBRANCH   4  11
BRANCH   1  20
ATOM     20  C   UNL     1       0.957   7.043  21.035  0.00  0.00    +0.000 C 
BRANCH  20  22
ATOM     21  C   UNL     1       1.031   9.343  22.062  0.00  0.00    +0.000 C 
ATOM     22  C   UNL     1       1.648   8.282  21.526  0.00  0.00    +0.000 C 
ENDBRANCH  20  22
ENDBRANCH   1  20
TORSDOF 3
ENDMDL
MODEL 7
REMARK VINA RESULT:      -7.0      1.664      3.370
REMARK  Name = 
REMARK  3 active torsions:
REMARK  status: ('A' for Active; 'I' for Inactive)
REMARK    1  A    between atoms: C_2  and  C_3
REMARK    2  A    between atoms: C_3  and  N_4
REMARK    3  A    between atoms: N_7  and  C_8
REMARK                            x       y       z     vdW  Elec       q    Type
REMARK                         _______ _______ _______ _____ _____    ______ ____
ROOT
ATOM      1  N   UNL     1       4.748   5.100  17.032  0.00  0.00    +0.000 N 
ATOM      2  C   UNL     1       4.442   6.354  17.605  0.00  0.00    +0.000 A 
ATOM      3  O   UNL     1       5.011   7.407  17.341  0.00  0.00    +0.000 OA
ATOM      4  N   UNL     1       3.361   6.143  18.500  0.00  0.00    +0.000 N 
ATOM      5  C   UNL     1       2.997   4.775  18.439  0.00  0.00    +0.000 A 
ATOM      6  N   UNL     1       1.972   4.162  19.053  0.00  0.00    +0.000 NA
ATOM      7  C   UNL     1       1.792   2.862  18.730  0.00  0.00    +0.000 A 
ATOM      8  C   UNL     1       2.586   2.171  17.812  0.00  0.00    +0.000 A 
ATOM      9  C   UNL     1       3.636   2.834  17.180  0.00  0.00    +0.000 A 
ATOM     10  C   UNL     1       3.837   4.157  17.518  0.00  0.00    +0.000 A 
ENDROOT
BRANCH   4  11
ATOM     11  C   UNL     1       2.420   7.105  18.932  0.00  0.00    +0.000 A 
ATOM     12  C   UNL     1       2.010   7.114  20.287  0.00  0.00    +0.000 A 
ATOM     13  C   UNL     1       1.374   8.230  20.842  0.00  0.00    +0.000 A 
ATOM     14  C   UNL     1       1.147   9.305  20.015  0.00  0.00    +0.000 A 
ATOM     15  C   UNL     1       1.438   9.258  18.672  0.00  0.00    +0.000 A 
ATOM     16  C   UNL     1       2.036   8.163  18.094  0.00  0.00    +0.000 A 
ATOM     17  O   UNL     1       1.164  10.435  18.044  0.00  0.00    +0.000 OA
ATOM     18  C   UNL     1       0.953  11.280  19.193  0.00  0.00    +0.000 C 
ATOM     19  O   UNL     1       0.693  10.528  20.398  0.00  0.00    +0.000 OA
ENDBRANCH   4  11
BRANCH   1  20
ATOM     20  C   UNL     1       5.768   4.881  16.046  0.00  0.00    +0.000 C 
BRANCH  20  22
ATOM     21  C   UNL     1       7.498   4.910  17.879  0.00  0.00    +0.000 C 
ATOM     22  C   UNL     1       7.044   4.447  16.707  0.00  0.00    +0.000 C 
ENDBRANCH  20  22
ENDBRANCH   1  20
TORSDOF 3
ENDMDL
MODEL 8
REMARK VINA RESULT:      -7.0      0.869      1.117
REMARK  Name = 
REMARK  3 active torsions:
REMARK  status: ('A' for Active; 'I' for Inactive)
REMARK    1  A    between atoms: C_2  and  C_3
REMARK    2  A    between atoms: C_3  and  N_4
REMARK    3  A    between atoms: N_7  and  C_8
REMARK                            x       y       z     vdW  Elec       q    Type
REMARK                         _______ _______ _______ _____ _____    ______ ____
ROOT
ATOM      1  N   UNL     1       3.833   4.179  19.077  0.00  0.00    +0.000 N 
ATOM      2  C   UNL     1       2.714   5.021  19.250  0.00  0.00    +0.000 A 
ATOM      3  O   UNL     1       1.707   4.733  19.886  0.00  0.00    +0.000 OA
ATOM      4  N   UNL     1       3.005   6.234  18.574  0.00  0.00    +0.000 N 
ATOM      5  C   UNL     1       4.308   6.133  18.026  0.00  0.00    +0.000 A 
ATOM      6  N   UNL     1       5.014   7.079  17.385  0.00  0.00    +0.000 NA
ATOM      7  C   UNL     1       6.282   6.742  17.062  0.00  0.00    +0.000 A 
ATOM      8  C   UNL     1       6.863   5.510  17.371  0.00  0.00    +0.000 A 
ATOM      9  C   UNL     1       6.113   4.550  18.048  0.00  0.00    +0.000 A 
ATOM     10  C   UNL     1       4.810   4.880  18.365  0.00  0.00    +0.000 A 
ENDROOT
BRANCH   4  11
ATOM     11  C   UNL     1       2.448   7.505  18.838  0.00  0.00    +0.000 A 
ATOM     12  C   UNL     1       2.130   8.362  17.756  0.00  0.00    +0.000 A 
ATOM     13  C   UNL     1       1.272   9.453  17.928  0.00  0.00    +0.000 A 
ATOM     14  C   UNL     1       0.768   9.671  19.188  0.00  0.00    +0.000 A 
ATOM     15  C   UNL     1       1.163   8.913  20.265  0.00  0.00    +0.000 A 
ATOM     16  C   UNL     1       2.028   7.853  20.132  0.00  0.00    +0.000 A 
ATOM     17  O   UNL     1       0.523   9.273  21.411  0.00  0.00    +0.000 OA
ATOM     18  C   UNL     1      -0.502  10.125  20.860  0.00  0.00    +0.000 C 
ATOM     19  O   UNL     1      -0.196  10.571  19.521  0.00  0.00    +0.000 OA
ENDBRANCH   4  11
BRANCH   1  20
ATOM     20  C   UNL     1       3.955   2.861  19.634  0.00  0.00    +0.000 C 
BRANCH  20  22
ATOM     21  C   UNL     1       2.562   1.989  17.723  0.00  0.00    +0.000 C 
ATOM     22  C   UNL     1       3.540   1.830  18.624  0.00  0.00    +0.000 C 
ENDBRANCH  20  22
ENDBRANCH   1  20
TORSDOF 3
ENDMDL
MODEL 9
REMARK VINA RESULT:      -6.9      3.329      5.279
REMARK  Name = 
REMARK  3 active torsions:
REMARK  status: ('A' for Active; 'I' for Inactive)
REMARK    1  A    between atoms: C_2  and  C_3
REMARK    2  A    between atoms: C_3  and  N_4
REMARK    3  A    between atoms: N_7  and  C_8
REMARK                            x       y       z     vdW  Elec       q    Type
REMARK                         _______ _______ _______ _____ _____    ______ ____
ROOT
ATOM      1  N   UNL     1       7.203   5.672  17.706  0.00  0.00    +0.000 N 
ATOM      2  C   UNL     1       6.278   5.030  18.559  0.00  0.00    +0.000 A 
ATOM      3  O   UNL     1       6.144   5.262  19.755  0.00  0.00    +0.000 OA
ATOM      4  N   UNL     1       5.552   4.112  17.759  0.00  0.00    +0.000 N 
ATOM      5  C   UNL     1       6.014   4.226  16.424  0.00  0.00    +0.000 A 
ATOM      6  N   UNL     1       5.544   3.609  15.328  0.00  0.00    +0.000 NA
ATOM      7  C   UNL     1       6.107   3.987  14.159  0.00  0.00    +0.000 A 
ATOM      8  C   UNL     1       7.101   4.963  14.053  0.00  0.00    +0.000 A 
ATOM      9  C   UNL     1       7.563   5.597  15.205  0.00  0.00    +0.000 A 
ATOM     10  C   UNL     1       7.006   5.202  16.405  0.00  0.00    +0.000 A 
ENDROOT
BRANCH   4  11
ATOM     11  C   UNL     1       4.258   3.604  18.015  0.00  0.00    +0.000 A 
ATOM     12  C   UNL     1       4.043   2.205  17.984  0.00  0.00    +0.000 A 
ATOM     13  C   UNL     1       2.904   1.636  18.563  0.00  0.00    +0.000 A 
ATOM     14  C   UNL     1       1.997   2.489  19.145  0.00  0.00    +0.000 A 
ATOM     15  C   UNL     1       2.142   3.855  19.077  0.00  0.00    +0.000 A 
ATOM     16  C   UNL     1       3.236   4.443  18.487  0.00  0.00    +0.000 A 
ATOM     17  O   UNL     1       1.152   4.512  19.741  0.00  0.00    +0.000 OA
ATOM     18  C   UNL     1       0.562   3.406  20.454  0.00  0.00    +0.000 C 
ATOM     19  O   UNL     1       0.920   2.125  19.892  0.00  0.00    +0.000 OA
ENDBRANCH   4  11
BRANCH   1  20
ATOM     20  C   UNL     1       8.116   6.700  18.120  0.00  0.00    +0.000 C 
BRANCH  20  22
ATOM     21  C   UNL     1       8.201   9.214  17.972  0.00  0.00    +0.000 C 
ATOM     22  C   UNL     1       7.630   8.043  17.661  0.00  0.00    +0.000 C 
ENDBRANCH  20  22
ENDBRANCH   1  20
TORSDOF 3
ENDMDL
