MODEL 1
REMARK VINA RESULT:      -7.0      0.000      0.000
REMARK  Name = 
REMARK  10 active torsions:
REMARK  status: ('A' for Active; 'I' for Inactive)
REMARK    1  A    between atoms: C_1  and  C_2
REMARK    2  A    between atoms: C_4  and  N_5
REMARK    3  A    between atoms: N_5  and  C_6
REMARK    4  A    between atoms: C_6  and  C_7
REMARK    5  A    between atoms: C_7  and  C_8
REMARK    6  A    between atoms: C_8  and  O_9
REMARK    7  A    between atoms: O_9  and  C_10
REMARK    8  A    between atoms: C_10  and  C_11
REMARK    9  A    between atoms: C_10  and  C_12
REMARK   10  A    between atoms: C_22  and  C_23
REMARK                            x       y       z     vdW  Elec       q    Type
REMARK                         _______ _______ _______ _____ _____    ______ ____
ROOT
ATOM      1  C   UNL     1       4.039   1.548  19.482  0.00  0.00    +0.000 C 
ATOM      2  C   UNL     1       3.687   2.990  19.225  0.00  0.00    +0.000 A 
ATOM      3  C   UNL     1       4.219   3.572  18.002  0.00  0.00    +0.000 A 
ATOM      4  C   UNL     1       4.010   4.864  17.677  0.00  0.00    +0.000 A 
ATOM      5  N   UNL     1       3.220   5.644  18.572  0.00  0.00    +0.000 N 
ATOM      6  C   UNL     1       2.681   5.107  19.753  0.00  0.00    +0.000 A 
ATOM      7  N   UNL     1       1.974   5.992  20.421  0.00  0.00    +0.000 NA
ATOM      8  C   UNL     1       2.015   7.132  19.678  0.00  0.00    +0.000 A 
ATOM      9  C   UNL     1       1.395   8.361  19.956  0.00  0.00    +0.000 A 
ATOM     10  C   UNL     1       1.542   9.415  19.055  0.00  0.00    +0.000 A 
ATOM     11  C   UNL     1       2.289   9.243  17.892  0.00  0.00    +0.000 A 
ATOM     12  C   UNL     1       2.910   8.019  17.593  0.00  0.00    +0.000 A 
ATOM     13  C   UNL     1       2.770   6.966  18.515  0.00  0.00    +0.000 A 
ATOM     14  C   UNL     1       2.942   3.738  20.072  0.00  0.00    +0.000 A 
ENDROOT
BRANCH   4  15
ATOM     15  N   UNL     1       4.590   5.387  16.521  0.00  0.00    +0.000 N 
ATOM     16  H   UNL     1       4.269   6.318  16.282  0.00  0.00    +0.000 HD
BRANCH  15  17
ATOM     17  C   UNL     1       4.869   4.547  15.355  0.00  0.00    +0.000 C 
BRANCH  17  18
ATOM     18  C   UNL     1       6.358   4.233  15.239  0.00  0.00    +0.000 C 
BRANCH  18  19
ATOM     19  C   UNL     1       7.155   5.308  15.975  0.00  0.00    +0.000 C 
BRANCH  19  20
ATOM     20  O   UNL     1       7.591   4.833  17.248  0.00  0.00    +0.000 OA
BRANCH  20  21
ATOM     21  C   UNL     1       7.798   5.889  18.199  0.00  0.00    +0.000 C 
ATOM     22  C   UNL     1       7.391   7.249  17.634  0.00  0.00    +0.000 C 
ATOM     23  C   UNL     1       6.958   5.581  19.436  0.00  0.00    +0.000 C 
ENDBRANCH  20  21
ENDBRANCH  19  20
ENDBRANCH  18  19
ENDBRANCH  17  18
ENDBRANCH  15  17
ENDBRANCH   4  15
BRANCH  14  24
ATOM     24  C   UNL     1       2.414   3.188  21.280  0.00  0.00    +0.000 C 
ATOM     25  N   UNL     1       1.931   2.776  22.255  0.00  0.00    +0.000 NA
ENDBRANCH  14  24
TORSDOF 7
ENDMDL
MODEL 2
REMARK VINA RESULT:      -7.0      1.229      4.267
REMARK  Name = 
REMARK  10 active torsions:
REMARK  status: ('A' for Active; 'I' for Inactive)
REMARK    1  A    between atoms: C_1  and  C_2
REMARK    2  A    between atoms: C_4  and  N_5
REMARK    3  A    between atoms: N_5  and  C_6
REMARK    4  A    between atoms: C_6  and  C_7
REMARK    5  A    between atoms: C_7  and  C_8
REMARK    6  A    between atoms: C_8  and  O_9
REMARK    7  A    between atoms: O_9  and  C_10
REMARK    8  A    between atoms: C_10  and  C_11
REMARK    9  A    between atoms: C_10  and  C_12
REMARK   10  A    between atoms: C_22  and  C_23
REMARK                            x       y       z     vdW  Elec       q    Type
REMARK                         _______ _______ _______ _____ _____    ______ ____
ROOT
ATOM      1  C   UNL     1       2.084   9.934  17.949  0.00  0.00    +0.000 C 
ATOM      2  C   UNL     1       2.342   8.526  18.419  0.00  0.00    +0.000 A 
ATOM      3  C   UNL     1       3.209   7.716  17.575  0.00  0.00    +0.000 A 
ATOM      4  C   UNL     1       3.484   6.428  17.864  0.00  0.00    +0.000 A 
ATOM      5  N   UNL     1       2.911   5.886  19.051  0.00  0.00    +0.000 N 
ATOM      6  C   UNL     1       2.083   6.647  19.894  0.00  0.00    +0.000 A 
ATOM      7  N   UNL     1       1.675   5.960  20.939  0.00  0.00    +0.000 NA
ATOM      8  C   UNL     1       2.249   4.731  20.817  0.00  0.00    +0.000 A 
ATOM      9  C   UNL     1       2.139   3.641  21.695  0.00  0.00    +0.000 A 
ATOM     10  C   UNL     1       2.823   2.461  21.403  0.00  0.00    +0.000 A 
ATOM     11  C   UNL     1       3.609   2.374  20.257  0.00  0.00    +0.000 A 
ATOM     12  C   UNL     1       3.739   3.456  19.372  0.00  0.00    +0.000 A 
ATOM     13  C   UNL     1       3.033   4.637  19.665  0.00  0.00    +0.000 A 
ATOM     14  C   UNL     1       1.797   8.003  19.542  0.00  0.00    +0.000 A 
ENDROOT
BRANCH   4  15
ATOM     15  N   UNL     1       4.275   5.679  16.991  0.00  0.00    +0.000 N 
ATOM     16  H   UNL     1       4.845   4.978  17.448  0.00  0.00    +0.000 HD
BRANCH  15  17
ATOM     17  C   UNL     1       4.919   6.289  15.826  0.00  0.00    +0.000 C 
BRANCH  17  18
ATOM     18  C   UNL     1       5.997   5.376  15.247  0.00  0.00    +0.000 C 
BRANCH  18  19
ATOM     19  C   UNL     1       7.182   5.327  16.208  0.00  0.00    +0.000 C 
BRANCH  19  20
ATOM     20  O   UNL     1       7.711   6.634  16.428  0.00  0.00    +0.000 OA
BRANCH  20  21
ATOM     21  C   UNL     1       7.411   7.148  17.736  0.00  0.00    +0.000 C 
ATOM     22  C   UNL     1       7.859   6.189  18.838  0.00  0.00    +0.000 C 
ATOM     23  C   UNL     1       8.136   8.481  17.896  0.00  0.00    +0.000 C 
ENDBRANCH  20  21
ENDBRANCH  19  20
ENDBRANCH  18  19
ENDBRANCH  17  18
ENDBRANCH  15  17
ENDBRANCH   4  15
BRANCH  14  24
ATOM     24  C   UNL     1       0.941   8.779  20.382  0.00  0.00    +0.000 C 
ATOM     25  N   UNL     1       0.295   9.423  21.104  0.00  0.00    +0.000 NA
ENDBRANCH  14  24
TORSDOF 7
ENDMDL
MODEL 3
REMARK VINA RESULT:      -6.9      2.203      4.929
REMARK  Name = 
REMARK  10 active torsions:
REMARK  status: ('A' for Active; 'I' for Inactive)
REMARK    1  A    between atoms: C_1  and  C_2
REMARK    2  A    between atoms: C_4  and  N_5
REMARK    3  A    between atoms: N_5  and  C_6
REMARK    4  A    between atoms: C_6  and  C_7
REMARK    5  A    between atoms: C_7  and  C_8
REMARK    6  A    between atoms: C_8  and  O_9
REMARK    7  A    between atoms: O_9  and  C_10
REMARK    8  A    between atoms: C_10  and  C_11
REMARK    9  A    between atoms: C_10  and  C_12
REMARK   10  A    between atoms: C_22  and  C_23
REMARK                            x       y       z     vdW  Elec       q    Type
REMARK                         _______ _______ _______ _____ _____    ______ ____
ROOT
ATOM      1  C   UNL     1       5.845   4.238  17.456  0.00  0.00    +0.000 C 
ATOM      2  C   UNL     1       4.820   5.167  18.051  0.00  0.00    +0.000 A 
ATOM      3  C   UNL     1       4.299   4.795  19.359  0.00  0.00    +0.000 A 
ATOM      4  C   UNL     1       3.349   5.521  19.981  0.00  0.00    +0.000 A 
ATOM      5  N   UNL     1       2.881   6.694  19.317  0.00  0.00    +0.000 N 
ATOM      6  C   UNL     1       3.374   7.087  18.062  0.00  0.00    +0.000 A 
ATOM      7  N   UNL     1       2.820   8.202  17.640  0.00  0.00    +0.000 NA
ATOM      8  C   UNL     1       1.961   8.582  18.626  0.00  0.00    +0.000 A 
ATOM      9  C   UNL     1       1.145   9.724  18.661  0.00  0.00    +0.000 A 
ATOM     10  C   UNL     1       0.339   9.949  19.777  0.00  0.00    +0.000 A 
ATOM     11  C   UNL     1       0.355   9.053  20.843  0.00  0.00    +0.000 A 
ATOM     12  C   UNL     1       1.171   7.910  20.829  0.00  0.00    +0.000 A 
ATOM     13  C   UNL     1       1.968   7.682  19.694  0.00  0.00    +0.000 A 
ATOM     14  C   UNL     1       4.368   6.279  17.426  0.00  0.00    +0.000 A 
ENDROOT
BRANCH   4  15
ATOM     15  N   UNL     1       2.843   5.089  21.208  0.00  0.00    +0.000 N 
ATOM     16  H   UNL     1       3.501   5.160  21.974  0.00  0.00    +0.000 HD
BRANCH  15  17
ATOM     17  C   UNL     1       1.955   3.929  21.305  0.00  0.00    +0.000 C 
BRANCH  17  18
ATOM     18  C   UNL     1       0.817   4.014  20.292  0.00  0.00    +0.000 C 
BRANCH  18  19
ATOM     19  C   UNL     1       0.712   2.688  19.543  0.00  0.00    +0.000 C 
BRANCH  19  20
ATOM     20  O   UNL     1       1.970   2.015  19.523  0.00  0.00    +0.000 OA
BRANCH  20  21
ATOM     21  C   UNL     1       2.428   1.721  18.194  0.00  0.00    +0.000 C 
ATOM     22  C   UNL     1       2.288   2.927  17.266  0.00  0.00    +0.000 C 
ATOM     23  C   UNL     1       3.896   1.313  18.280  0.00  0.00    +0.000 C 
ENDBRANCH  20  21
ENDBRANCH  19  20
ENDBRANCH  18  19
ENDBRANCH  17  18
ENDBRANCH  15  17
ENDBRANCH   4  15
BRANCH  14  24
ATOM     24  C   UNL     1       4.862   6.660  16.140  0.00  0.00    +0.000 C 
ATOM     25  N   UNL     1       5.322   6.982  15.121  0.00  0.00    +0.000 NA
ENDBRANCH  14  24
TORSDOF 7
ENDMDL
MODEL 4
REMARK VINA RESULT:      -6.8      1.475      2.728
REMARK  Name = 
REMARK  10 active torsions:
REMARK  status: ('A' for Active; 'I' for Inactive)
REMARK    1  A    between atoms: C_1  and  C_2
REMARK    2  A    between atoms: C_4  and  N_5
REMARK    3  A    between atoms: N_5  and  C_6
REMARK    4  A    between atoms: C_6  and  C_7
REMARK    5  A    between atoms: C_7  and  C_8
REMARK    6  A    between atoms: C_8  and  O_9
REMARK    7  A    between atoms: O_9  and  C_10
REMARK    8  A    between atoms: C_10  and  C_11
REMARK    9  A    between atoms: C_10  and  C_12
REMARK   10  A    between atoms: C_22  and  C_23
REMARK                            x       y       z     vdW  Elec       q    Type
REMARK                         _______ _______ _______ _____ _____    ______ ____
ROOT
ATOM      1  C   UNL     1       4.021   1.650  19.291  0.00  0.00    +0.000 C 
ATOM      2  C   UNL     1       3.647   3.098  19.110  0.00  0.00    +0.000 A 
ATOM      3  C   UNL     1       4.161   3.748  17.913  0.00  0.00    +0.000 A 
ATOM      4  C   UNL     1       3.932   5.051  17.655  0.00  0.00    +0.000 A 
ATOM      5  N   UNL     1       3.138   5.775  18.593  0.00  0.00    +0.000 N 
ATOM      6  C   UNL     1       2.615   5.171  19.749  0.00  0.00    +0.000 A 
ATOM      7  N   UNL     1       1.900   6.012  20.466  0.00  0.00    +0.000 NA
ATOM      8  C   UNL     1       1.920   7.188  19.780  0.00  0.00    +0.000 A 
ATOM      9  C   UNL     1       1.285   8.392  20.123  0.00  0.00    +0.000 A 
ATOM     10  C   UNL     1       1.411   9.492  19.275  0.00  0.00    +0.000 A 
ATOM     11  C   UNL     1       2.152   9.389  18.101  0.00  0.00    +0.000 A 
ATOM     12  C   UNL     1       2.787   8.190  17.737  0.00  0.00    +0.000 A 
ATOM     13  C   UNL     1       2.669   7.091  18.605  0.00  0.00    +0.000 A 
ATOM     14  C   UNL     1       2.897   3.792  19.998  0.00  0.00    +0.000 A 
ENDROOT
BRANCH   4  15
ATOM     15  N   UNL     1       4.497   5.641  16.523  0.00  0.00    +0.000 N 
ATOM     16  H   UNL     1       4.162   5.258  15.647  0.00  0.00    +0.000 HD
BRANCH  15  17
ATOM     17  C   UNL     1       5.905   6.037  16.487  0.00  0.00    +0.000 C 
BRANCH  17  18
ATOM     18  C   UNL     1       6.747   5.027  15.712  0.00  0.00    +0.000 C 
BRANCH  18  19
ATOM     19  C   UNL     1       6.134   4.821  14.329  0.00  0.00    +0.000 C 
BRANCH  19  20
ATOM     20  O   UNL     1       6.158   3.442  13.963  0.00  0.00    +0.000 OA
BRANCH  20  21
ATOM     21  C   UNL     1       6.190   3.239  12.541  0.00  0.00    +0.000 C 
ATOM     22  C   UNL     1       4.811   3.428  11.911  0.00  0.00    +0.000 C 
ATOM     23  C   UNL     1       7.165   4.249  11.943  0.00  0.00    +0.000 C 
ENDBRANCH  20  21
ENDBRANCH  19  20
ENDBRANCH  18  19
ENDBRANCH  17  18
ENDBRANCH  15  17
ENDBRANCH   4  15
BRANCH  14  24
ATOM     24  C   UNL     1       2.386   3.174  21.180  0.00  0.00    +0.000 C 
ATOM     25  N   UNL     1       1.909   2.691  22.125  0.00  0.00    +0.000 NA
ENDBRANCH  14  24
TORSDOF 7
ENDMDL
MODEL 5
REMARK VINA RESULT:      -6.7      2.641      6.220
REMARK  Name = 
REMARK  10 active torsions:
REMARK  status: ('A' for Active; 'I' for Inactive)
REMARK    1  A    between atoms: C_1  and  C_2
REMARK    2  A    between atoms: C_4  and  N_5
REMARK    3  A    between atoms: N_5  and  C_6
REMARK    4  A    between atoms: C_6  and  C_7
REMARK    5  A    between atoms: C_7  and  C_8
REMARK    6  A    between atoms: C_8  and  O_9
REMARK    7  A    between atoms: O_9  and  C_10
REMARK    8  A    between atoms: C_10  and  C_11
REMARK    9  A    between atoms: C_10  and  C_12
REMARK   10  A    between atoms: C_22  and  C_23
REMARK                            x       y       z     vdW  Elec       q    Type
REMARK                         _______ _______ _______ _____ _____    ______ ____
ROOT
ATOM      1  C   UNL     1       6.959   7.175  16.497  0.00  0.00    +0.000 C 
ATOM      2  C   UNL     1       5.892   6.472  17.295  0.00  0.00    +0.000 A 
ATOM      3  C   UNL     1       4.595   7.131  17.352  0.00  0.00    +0.000 A 
ATOM      4  C   UNL     1       3.569   6.626  18.066  0.00  0.00    +0.000 A 
ATOM      5  N   UNL     1       3.792   5.397  18.754  0.00  0.00    +0.000 N 
ATOM      6  C   UNL     1       5.028   4.730  18.706  0.00  0.00    +0.000 A 
ATOM      7  N   UNL     1       5.012   3.610  19.395  0.00  0.00    +0.000 NA
ATOM      8  C   UNL     1       3.750   3.504  19.896  0.00  0.00    +0.000 A 
ATOM      9  C   UNL     1       3.223   2.469  20.685  0.00  0.00    +0.000 A 
ATOM     10  C   UNL     1       1.890   2.534  21.088  0.00  0.00    +0.000 A 
ATOM     11  C   UNL     1       1.094   3.610  20.704  0.00  0.00    +0.000 A 
ATOM     12  C   UNL     1       1.601   4.650  19.908  0.00  0.00    +0.000 A 
ATOM     13  C   UNL     1       2.951   4.586  19.519  0.00  0.00    +0.000 A 
ATOM     14  C   UNL     1       6.098   5.308  17.954  0.00  0.00    +0.000 A 
ENDROOT
BRANCH   4  15
ATOM     15  N   UNL     1       2.364   7.327  18.134  0.00  0.00    +0.000 N 
ATOM     16  H   UNL     1       1.620   6.924  17.577  0.00  0.00    +0.000 HD
BRANCH  15  17
ATOM     17  C   UNL     1       2.330   8.790  18.184  0.00  0.00    +0.000 C 
BRANCH  17  18
ATOM     18  C   UNL     1       0.926   9.322  17.912  0.00  0.00    +0.000 C 
BRANCH  18  19
ATOM     19  C   UNL     1       0.525  10.275  19.035  0.00  0.00    +0.000 C 
BRANCH  19  20
ATOM     20  O   UNL     1       0.758   9.681  20.312  0.00  0.00    +0.000 OA
BRANCH  20  21
ATOM     21  C   UNL     1      -0.221  10.058  21.293  0.00  0.00    +0.000 C 
ATOM     22  C   UNL     1      -0.010   9.323  22.616  0.00  0.00    +0.000 C 
ATOM     23  C   UNL     1      -0.104  11.562  21.522  0.00  0.00    +0.000 C 
ENDBRANCH  20  21
ENDBRANCH  19  20
ENDBRANCH  18  19
ENDBRANCH  17  18
ENDBRANCH  15  17
ENDBRANCH   4  15
BRANCH  14  24
ATOM     24  C   UNL     1       7.364   4.648  17.916  0.00  0.00    +0.000 C 
ATOM     25  N   UNL     1       8.403   4.125  17.948  0.00  0.00    +0.000 NA
ENDBRANCH  14  24
TORSDOF 7
ENDMDL
MODEL 6
REMARK VINA RESULT:      -6.6      2.720      6.368
REMARK  Name = 
REMARK  10 active torsions:
REMARK  status: ('A' for Active; 'I' for Inactive)
REMARK    1  A    between atoms: C_1  and  C_2
REMARK    2  A    between atoms: C_4  and  N_5
REMARK    3  A    between atoms: N_5  and  C_6
REMARK    4  A    between atoms: C_6  and  C_7
REMARK    5  A    between atoms: C_7  and  C_8
REMARK    6  A    between atoms: C_8  and  O_9
REMARK    7  A    between atoms: O_9  and  C_10
REMARK    8  A    between atoms: C_10  and  C_11
REMARK    9  A    between atoms: C_10  and  C_12
REMARK   10  A    between atoms: C_22  and  C_23
REMARK                            x       y       z     vdW  Elec       q    Type
REMARK                         _______ _______ _______ _____ _____    ______ ____
ROOT
ATOM      1  C   UNL     1       6.827   7.073  16.419  0.00  0.00    +0.000 C 
ATOM      2  C   UNL     1       5.791   6.369  17.255  0.00  0.00    +0.000 A 
ATOM      3  C   UNL     1       4.472   6.984  17.296  0.00  0.00    +0.000 A 
ATOM      4  C   UNL     1       3.469   6.475  18.039  0.00  0.00    +0.000 A 
ATOM      5  N   UNL     1       3.740   5.284  18.775  0.00  0.00    +0.000 N 
ATOM      6  C   UNL     1       4.998   4.658  18.745  0.00  0.00    +0.000 A 
ATOM      7  N   UNL     1       5.026   3.568  19.480  0.00  0.00    +0.000 NA
ATOM      8  C   UNL     1       3.772   3.440  19.996  0.00  0.00    +0.000 A 
ATOM      9  C   UNL     1       3.287   2.421  20.832  0.00  0.00    +0.000 A 
ATOM     10  C   UNL     1       1.955   2.457  21.244  0.00  0.00    +0.000 A 
ATOM     11  C   UNL     1       1.120   3.488  20.822  0.00  0.00    +0.000 A 
ATOM     12  C   UNL     1       1.585   4.511  19.979  0.00  0.00    +0.000 A 
ATOM     13  C   UNL     1       2.933   4.477  19.581  0.00  0.00    +0.000 A 
ATOM     14  C   UNL     1       6.041   5.241  17.960  0.00  0.00    +0.000 A 
ENDROOT
BRANCH   4  15
ATOM     15  N   UNL     1       2.241   7.136  18.088  0.00  0.00    +0.000 N 
ATOM     16  H   UNL     1       1.693   7.054  17.240  0.00  0.00    +0.000 HD
BRANCH  15  17
ATOM     17  C   UNL     1       2.094   8.431  18.756  0.00  0.00    +0.000 C 
BRANCH  17  18
ATOM     18  C   UNL     1       1.678   8.260  20.214  0.00  0.00    +0.000 C 
BRANCH  18  19
ATOM     19  C   UNL     1       0.557   9.245  20.534  0.00  0.00    +0.000 C 
BRANCH  19  20
ATOM     20  O   UNL     1       0.316  10.116  19.430  0.00  0.00    +0.000 OA
BRANCH  20  21
ATOM     21  C   UNL     1      -1.075  10.424  19.252  0.00  0.00    +0.000 C 
ATOM     22  C   UNL     1      -1.411  11.834  19.738  0.00  0.00    +0.000 C 
ATOM     23  C   UNL     1      -1.396  10.310  17.764  0.00  0.00    +0.000 C 
ENDBRANCH  20  21
ENDBRANCH  19  20
ENDBRANCH  18  19
ENDBRANCH  17  18
ENDBRANCH  15  17
ENDBRANCH   4  15
BRANCH  14  24
ATOM     24  C   UNL     1       7.329   4.623  17.938  0.00  0.00    +0.000 C 
ATOM     25  N   UNL     1       8.391   4.149  17.977  0.00  0.00    +0.000 NA
ENDBRANCH  14  24
TORSDOF 7
ENDMDL
MODEL 7
REMARK VINA RESULT:      -6.6      3.213      6.013
REMARK  Name = 
REMARK  10 active torsions:
REMARK  status: ('A' for Active; 'I' for Inactive)
REMARK    1  A    between atoms: C_1  and  C_2
REMARK    2  A    between atoms: C_4  and  N_5
REMARK    3  A    between atoms: N_5  and  C_6
REMARK    4  A    between atoms: C_6  and  C_7
REMARK    5  A    between atoms: C_7  and  C_8
REMARK    6  A    between atoms: C_8  and  O_9
REMARK    7  A    between atoms: O_9  and  C_10
REMARK    8  A    between atoms: C_10  and  C_11
REMARK    9  A    between atoms: C_10  and  C_12
REMARK   10  A    between atoms: C_22  and  C_23
REMARK                            x       y       z     vdW  Elec       q    Type
REMARK                         _______ _______ _______ _____ _____    ______ ____
ROOT
ATOM      1  C   UNL     1       4.030   5.035  19.620  0.00  0.00    +0.000 C 
ATOM      2  C   UNL     1       4.728   5.010  18.286  0.00  0.00    +0.000 A 
ATOM      3  C   UNL     1       5.864   5.908  18.139  0.00  0.00    +0.000 A 
ATOM      4  C   UNL     1       6.548   6.010  16.981  0.00  0.00    +0.000 A 
ATOM      5  N   UNL     1       6.132   5.179  15.900  0.00  0.00    +0.000 N 
ATOM      6  C   UNL     1       5.049   4.292  16.015  0.00  0.00    +0.000 A 
ATOM      7  N   UNL     1       4.845   3.612  14.908  0.00  0.00    +0.000 NA
ATOM      8  C   UNL     1       5.811   4.025  14.041  0.00  0.00    +0.000 A 
ATOM      9  C   UNL     1       6.033   3.580  12.728  0.00  0.00    +0.000 A 
ATOM     10  C   UNL     1       7.095   4.117  11.999  0.00  0.00    +0.000 A 
ATOM     11  C   UNL     1       7.925   5.076  12.575  0.00  0.00    +0.000 A 
ATOM     12  C   UNL     1       7.723   5.526  13.890  0.00  0.00    +0.000 A 
ATOM     13  C   UNL     1       6.641   4.992  14.612  0.00  0.00    +0.000 A 
ATOM     14  C   UNL     1       4.336   4.228  17.253  0.00  0.00    +0.000 A 
ENDROOT
BRANCH   4  15
ATOM     15  N   UNL     1       7.594   6.928  16.876  0.00  0.00    +0.000 N 
ATOM     16  H   UNL     1       8.343   6.634  16.261  0.00  0.00    +0.000 HD
BRANCH  15  17
ATOM     17  C   UNL     1       8.055   7.700  18.031  0.00  0.00    +0.000 C 
BRANCH  17  18
ATOM     18  C   UNL     1       7.947   9.201  17.776  0.00  0.00    +0.000 C 
BRANCH  18  19
ATOM     19  C   UNL     1       8.987   9.930  18.623  0.00  0.00    +0.000 C 
BRANCH  19  20
ATOM     20  O   UNL     1       9.270  11.219  18.081  0.00  0.00    +0.000 OA
BRANCH  20  21
ATOM     21  C   UNL     1      10.672  11.534  18.086  0.00  0.00    +0.000 C 
ATOM     22  C   UNL     1      10.970  12.806  17.293  0.00  0.00    +0.000 C 
ATOM     23  C   UNL     1      11.107  11.724  19.536  0.00  0.00    +0.000 C 
ENDBRANCH  20  21
ENDBRANCH  19  20
ENDBRANCH  18  19
ENDBRANCH  17  18
ENDBRANCH  15  17
ENDBRANCH   4  15
BRANCH  14  24
ATOM     24  C   UNL     1       3.221   3.343  17.374  0.00  0.00    +0.000 C 
ATOM     25  N   UNL     1       2.288   2.648  17.419  0.00  0.00    +0.000 NA
ENDBRANCH  14  24
TORSDOF 7
ENDMDL
MODEL 8
REMARK VINA RESULT:      -6.5      1.559      4.780
REMARK  Name = 
REMARK  10 active torsions:
REMARK  status: ('A' for Active; 'I' for Inactive)
REMARK    1  A    between atoms: C_1  and  C_2
REMARK    2  A    between atoms: C_4  and  N_5
REMARK    3  A    between atoms: N_5  and  C_6
REMARK    4  A    between atoms: C_6  and  C_7
REMARK    5  A    between atoms: C_7  and  C_8
REMARK    6  A    between atoms: C_8  and  O_9
REMARK    7  A    between atoms: O_9  and  C_10
REMARK    8  A    between atoms: C_10  and  C_11
REMARK    9  A    between atoms: C_10  and  C_12
REMARK   10  A    between atoms: C_22  and  C_23
REMARK                            x       y       z     vdW  Elec       q    Type
REMARK                         _______ _______ _______ _____ _____    ______ ____
ROOT
ATOM      1  C   UNL     1       2.150   9.985  17.845  0.00  0.00    +0.000 C 
ATOM      2  C   UNL     1       2.403   8.579  18.323  0.00  0.00    +0.000 A 
ATOM      3  C   UNL     1       3.275   7.765  17.488  0.00  0.00    +0.000 A 
ATOM      4  C   UNL     1       3.548   6.479  17.784  0.00  0.00    +0.000 A 
ATOM      5  N   UNL     1       2.965   5.942  18.970  0.00  0.00    +0.000 N 
ATOM      6  C   UNL     1       2.131   6.706  19.803  0.00  0.00    +0.000 A 
ATOM      7  N   UNL     1       1.716   6.024  20.848  0.00  0.00    +0.000 NA
ATOM      8  C   UNL     1       2.290   4.794  20.735  0.00  0.00    +0.000 A 
ATOM      9  C   UNL     1       2.172   3.708  21.617  0.00  0.00    +0.000 A 
ATOM     10  C   UNL     1       2.857   2.526  21.335  0.00  0.00    +0.000 A 
ATOM     11  C   UNL     1       3.653   2.434  20.195  0.00  0.00    +0.000 A 
ATOM     12  C   UNL     1       3.789   3.513  19.306  0.00  0.00    +0.000 A 
ATOM     13  C   UNL     1       3.082   4.695  19.589  0.00  0.00    +0.000 A 
ATOM     14  C   UNL     1       1.850   8.061  19.444  0.00  0.00    +0.000 A 
ENDROOT
BRANCH   4  15
ATOM     15  N   UNL     1       4.344   5.726  16.920  0.00  0.00    +0.000 N 
ATOM     16  H   UNL     1       4.377   4.738  17.143  0.00  0.00    +0.000 HD
BRANCH  15  17
ATOM     17  C   UNL     1       5.605   6.247  16.390  0.00  0.00    +0.000 C 
BRANCH  17  18
ATOM     18  C   UNL     1       6.782   5.357  16.781  0.00  0.00    +0.000 C 
BRANCH  18  19
ATOM     19  C   UNL     1       7.018   4.326  15.680  0.00  0.00    +0.000 C 
BRANCH  19  20
ATOM     20  O   UNL     1       5.961   4.357  14.721  0.00  0.00    +0.000 OA
BRANCH  20  21
ATOM     21  C   UNL     1       6.351   3.840  13.439  0.00  0.00    +0.000 C 
ATOM     22  C   UNL     1       5.146   3.619  12.526  0.00  0.00    +0.000 C 
ATOM     23  C   UNL     1       7.301   4.844  12.794  0.00  0.00    +0.000 C 
ENDBRANCH  20  21
ENDBRANCH  19  20
ENDBRANCH  18  19
ENDBRANCH  17  18
ENDBRANCH  15  17
ENDBRANCH   4  15
BRANCH  14  24
ATOM     24  C   UNL     1       0.987   8.841  20.274  0.00  0.00    +0.000 C 
ATOM     25  N   UNL     1       0.258   9.501  20.896  0.00  0.00    +0.000 NA
ENDBRANCH  14  24
TORSDOF 7
ENDMDL
MODEL 9
REMARK VINA RESULT:      -6.4      3.121      6.684
REMARK  Name = 
REMARK  10 active torsions:
REMARK  status: ('A' for Active; 'I' for Inactive)
REMARK    1  A    between atoms: C_1  and  C_2
REMARK    2  A    between atoms: C_4  and  N_5
REMARK    3  A    between atoms: N_5  and  C_6
REMARK    4  A    between atoms: C_6  and  C_7
REMARK    5  A    between atoms: C_7  and  C_8
REMARK    6  A    between atoms: C_8  and  O_9
REMARK    7  A    between atoms: O_9  and  C_10
REMARK    8  A    between atoms: C_10  and  C_11
REMARK    9  A    between atoms: C_10  and  C_12
REMARK   10  A    between atoms: C_22  and  C_23
REMARK                            x       y       z     vdW  Elec       q    Type
REMARK                         _______ _______ _______ _____ _____    ______ ____
ROOT
ATOM      1  C   UNL     1       7.322   7.571  17.169  0.00  0.00    +0.000 C 
ATOM      2  C   UNL     1       6.141   6.692  17.485  0.00  0.00    +0.000 A 
ATOM      3  C   UNL     1       4.838   7.342  17.481  0.00  0.00    +0.000 A 
ATOM      4  C   UNL     1       3.707   6.674  17.787  0.00  0.00    +0.000 A 
ATOM      5  N   UNL     1       3.828   5.287  18.095  0.00  0.00    +0.000 N 
ATOM      6  C   UNL     1       5.069   4.629  18.094  0.00  0.00    +0.000 A 
ATOM      7  N   UNL     1       4.953   3.353  18.390  0.00  0.00    +0.000 NA
ATOM      8  C   UNL     1       3.620   3.138  18.572  0.00  0.00    +0.000 A 
ATOM      9  C   UNL     1       2.981   1.928  18.885  0.00  0.00    +0.000 A 
ATOM     10  C   UNL     1       1.592   1.907  19.014  0.00  0.00    +0.000 A 
ATOM     11  C   UNL     1       0.855   3.074  18.827  0.00  0.00    +0.000 A 
ATOM     12  C   UNL     1       1.477   4.291  18.505  0.00  0.00    +0.000 A 
ATOM     13  C   UNL     1       2.878   4.307  18.392  0.00  0.00    +0.000 A 
ATOM     14  C   UNL     1       6.248   5.376  17.784  0.00  0.00    +0.000 A 
ENDROOT
BRANCH   4  15
ATOM     15  N   UNL     1       2.491   7.358  17.824  0.00  0.00    +0.000 N 
ATOM     16  H   UNL     1       1.771   6.953  17.237  0.00  0.00    +0.000 HD
BRANCH  15  17
ATOM     17  C   UNL     1       2.435   8.819  17.894  0.00  0.00    +0.000 C 
BRANCH  17  18
ATOM     18  C   UNL     1       1.289   9.289  18.786  0.00  0.00    +0.000 C 
BRANCH  18  19
ATOM     19  C   UNL     1       0.103   9.685  17.912  0.00  0.00    +0.000 C 
BRANCH  19  20
ATOM     20  O   UNL     1      -0.771  10.570  18.612  0.00  0.00    +0.000 OA
BRANCH  20  21
ATOM     21  C   UNL     1      -2.150  10.403  18.245  0.00  0.00    +0.000 C 
ATOM     22  C   UNL     1      -2.953  11.685  18.460  0.00  0.00    +0.000 C 
ATOM     23  C   UNL     1      -2.202  10.011  16.771  0.00  0.00    +0.000 C 
ENDBRANCH  20  21
ENDBRANCH  19  20
ENDBRANCH  18  19
ENDBRANCH  17  18
ENDBRANCH  15  17
ENDBRANCH   4  15
BRANCH  14  24
ATOM     24  C   UNL     1       7.517   4.720  17.798  0.00  0.00    +0.000 C 
ATOM     25  N   UNL     1       8.521   4.132  17.833  0.00  0.00    +0.000 NA
ENDBRANCH  14  24
TORSDOF 7
ENDMDL
