MODEL 1
REMARK VINA RESULT:      -7.5      0.000      0.000
REMARK  Name = 
REMARK  9 active torsions:
REMARK  status: ('A' for Active; 'I' for Inactive)
REMARK    1  A    between atoms: C_1  and  C_2
REMARK    2  A    between atoms: C_5  and  C_6
REMARK    3  A    between atoms: C_6  and  N_7
REMARK    4  A    between atoms: N_7  and  C_8
REMARK    5  A    between atoms: N_11  and  C_12
REMARK    6  A    between atoms: C_15  and  C_16
REMARK    7  A    between atoms: C_16  and  C_17
REMARK    8  A    between atoms: C_16  and  C_18
REMARK    9  A    between atoms: C_16  and  C_19
REMARK                            x       y       z     vdW  Elec       q    Type
REMARK                         _______ _______ _______ _____ _____    ______ ____
ROOT
ATOM      1  N   UNL     1       7.387   6.730  18.199  0.00  0.00    +0.000 N 
ATOM      2  C   UNL     1       8.006   5.847  19.178  0.00  0.00    +0.000 C 
ATOM      3  C   UNL     1       7.692   8.081  18.063  0.00  0.00    +0.000 C 
ATOM      4  O   UNL     1       7.004   8.810  17.354  0.00  0.00    +0.000 OA
ATOM      5  N   UNL     1       8.797   8.508  18.772  0.00  0.00    +0.000 N 
ATOM      6  H   UNL     1       9.455   7.800  19.057  0.00  0.00    +0.000 HD
ENDROOT
BRANCH   5   7
ATOM      7  C   UNL     1       9.235   9.847  18.897  0.00  0.00    +0.000 A 
ATOM      8  C   UNL     1       9.661  10.611  17.814  0.00  0.00    +0.000 A 
ATOM      9  C   UNL     1      10.106  11.925  17.986  0.00  0.00    +0.000 A 
ATOM     10  C   UNL     1      10.131  12.531  19.252  0.00  0.00    +0.000 A 
ATOM     11  C   UNL     1       9.681  11.755  20.339  0.00  0.00    +0.000 A 
ATOM     12  C   UNL     1       9.231  10.436  20.162  0.00  0.00    +0.000 A 
BRANCH  10  13
ATOM     13  C   UNL     1      10.601  13.987  19.454  0.00  0.00    +0.000 C 
ATOM     14  C   UNL     1      10.587  14.416  20.944  0.00  0.00    +0.000 C 
ATOM     15  C   UNL     1      12.082  14.073  19.007  0.00  0.00    +0.000 C 
BRANCH  13  16
ATOM     16  C   UNL     1       9.747  15.012  18.647  0.00  0.00    +0.000 C 
ATOM     17  F   UNL     1       8.443  14.667  18.552  0.00  0.00    +0.000 F 
ATOM     18  F   UNL     1       9.775  16.249  19.203  0.00  0.00    +0.000 F 
ATOM     19  F   UNL     1      10.201  15.154  17.377  0.00  0.00    +0.000 F 
ENDBRANCH  13  16
ENDBRANCH  10  13
ENDBRANCH   5   7
BRANCH   1  20
ATOM     20  C   UNL     1       6.175   6.248  17.526  0.00  0.00    +0.000 C 
BRANCH  20  25
ATOM     21  C   UNL     1       6.290   3.571  12.967  0.00  0.00    +0.000 C 
ATOM     22  C   UNL     1       6.532   4.457  14.134  0.00  0.00    +0.000 A 
ATOM     23  N   UNL     1       7.637   5.143  14.338  0.00  0.00    +0.000 NA
ATOM     24  N   UNL     1       7.599   5.855  15.518  0.00  0.00    +0.000 NA
ATOM     25  C   UNL     1       6.466   5.682  16.171  0.00  0.00    +0.000 A 
ATOM     26  S   UNL     1       5.345   4.660  15.359  0.00  0.00    +0.000 S 
ENDBRANCH  20  25
ENDBRANCH   1  20
TORSDOF 5
ENDMDL
MODEL 2
REMARK VINA RESULT:      -7.5      6.922      7.654
REMARK  Name = 
REMARK  9 active torsions:
REMARK  status: ('A' for Active; 'I' for Inactive)
REMARK    1  A    between atoms: C_1  and  C_2
REMARK    2  A    between atoms: C_5  and  C_6
REMARK    3  A    between atoms: C_6  and  N_7
REMARK    4  A    between atoms: N_7  and  C_8
REMARK    5  A    between atoms: N_11  and  C_12
REMARK    6  A    between atoms: C_15  and  C_16
REMARK    7  A    between atoms: C_16  and  C_17
REMARK    8  A    between atoms: C_16  and  C_18
REMARK    9  A    between atoms: C_16  and  C_19
REMARK                            x       y       z     vdW  Elec       q    Type
REMARK                         _______ _______ _______ _____ _____    ______ ____
ROOT
ATOM      1  N   UNL     1       4.773   4.503  17.756  0.00  0.00    +0.000 N 
ATOM      2  C   UNL     1       3.832   3.512  17.253  0.00  0.00    +0.000 C 
ATOM      3  C   UNL     1       4.408   5.768  18.206  0.00  0.00    +0.000 C 
ATOM      4  O   UNL     1       5.262   6.622  18.437  0.00  0.00    +0.000 OA
ATOM      5  N   UNL     1       3.052   5.967  18.364  0.00  0.00    +0.000 N 
ATOM      6  H   UNL     1       2.479   5.144  18.452  0.00  0.00    +0.000 HD
ENDROOT
BRANCH   5   7
ATOM      7  C   UNL     1       2.425   7.194  18.687  0.00  0.00    +0.000 A 
ATOM      8  C   UNL     1       1.997   7.512  19.973  0.00  0.00    +0.000 A 
ATOM      9  C   UNL     1       1.364   8.729  20.244  0.00  0.00    +0.000 A 
ATOM     10  C   UNL     1       1.144   9.681  19.237  0.00  0.00    +0.000 A 
ATOM     11  C   UNL     1       1.597   9.357  17.943  0.00  0.00    +0.000 A 
ATOM     12  C   UNL     1       2.237   8.136  17.675  0.00  0.00    +0.000 A 
BRANCH  10  13
ATOM     13  C   UNL     1       0.464  11.036  19.526  0.00  0.00    +0.000 C 
ATOM     14  C   UNL     1       0.485  11.405  21.032  0.00  0.00    +0.000 C 
ATOM     15  C   UNL     1       1.284  12.140  18.813  0.00  0.00    +0.000 C 
BRANCH  13  16
ATOM     16  C   UNL     1      -1.016  11.082  19.038  0.00  0.00    +0.000 C 
ATOM     17  F   UNL     1      -1.169  11.702  17.846  0.00  0.00    +0.000 F 
ATOM     18  F   UNL     1      -1.546   9.842  18.895  0.00  0.00    +0.000 F 
ATOM     19  F   UNL     1      -1.814  11.739  19.917  0.00  0.00    +0.000 F 
ENDBRANCH  13  16
ENDBRANCH  10  13
ENDBRANCH   5   7
BRANCH   1  20
ATOM     20  C   UNL     1       6.200   4.271  17.499  0.00  0.00    +0.000 C 
BRANCH  20  25
ATOM     21  C   UNL     1       7.037   4.350  12.278  0.00  0.00    +0.000 C 
ATOM     22  C   UNL     1       6.978   4.602  13.741  0.00  0.00    +0.000 A 
ATOM     23  N   UNL     1       7.688   5.512  14.374  0.00  0.00    +0.000 NA
ATOM     24  N   UNL     1       7.455   5.503  15.733  0.00  0.00    +0.000 NA
ATOM     25  C   UNL     1       6.579   4.583  16.085  0.00  0.00    +0.000 A 
ATOM     26  S   UNL     1       5.943   3.686  14.761  0.00  0.00    +0.000 S 
ENDBRANCH  20  25
ENDBRANCH   1  20
TORSDOF 5
ENDMDL
MODEL 3
REMARK VINA RESULT:      -7.4      9.435     11.860
REMARK  Name = 
REMARK  9 active torsions:
REMARK  status: ('A' for Active; 'I' for Inactive)
REMARK    1  A    between atoms: C_1  and  C_2
REMARK    2  A    between atoms: C_5  and  C_6
REMARK    3  A    between atoms: C_6  and  N_7
REMARK    4  A    between atoms: N_7  and  C_8
REMARK    5  A    between atoms: N_11  and  C_12
REMARK    6  A    between atoms: C_15  and  C_16
REMARK    7  A    between atoms: C_16  and  C_17
REMARK    8  A    between atoms: C_16  and  C_18
REMARK    9  A    between atoms: C_16  and  C_19
REMARK                            x       y       z     vdW  Elec       q    Type
REMARK                         _______ _______ _______ _____ _____    ______ ____
ROOT
ATOM      1  N   UNL     1      -0.918  12.238  19.655  0.00  0.00    +0.000 N 
ATOM      2  C   UNL     1       0.038  13.316  19.865  0.00  0.00    +0.000 C 
ATOM      3  C   UNL     1      -0.562  10.922  19.373  0.00  0.00    +0.000 C 
ATOM      4  O   UNL     1      -1.409  10.106  19.019  0.00  0.00    +0.000 OA
ATOM      5  N   UNL     1       0.779  10.632  19.522  0.00  0.00    +0.000 N 
ATOM      6  H   UNL     1       1.318  11.258  20.099  0.00  0.00    +0.000 HD
ENDROOT
BRANCH   5   7
ATOM      7  C   UNL     1       1.407   9.411  19.179  0.00  0.00    +0.000 A 
ATOM      8  C   UNL     1       1.932   9.156  17.916  0.00  0.00    +0.000 A 
ATOM      9  C   UNL     1       2.526   7.926  17.614  0.00  0.00    +0.000 A 
ATOM     10  C   UNL     1       2.627   6.906  18.572  0.00  0.00    +0.000 A 
ATOM     11  C   UNL     1       2.108   7.182  19.853  0.00  0.00    +0.000 A 
ATOM     12  C   UNL     1       1.516   8.419  20.154  0.00  0.00    +0.000 A 
BRANCH  10  13
ATOM     13  C   UNL     1       3.297   5.552  18.260  0.00  0.00    +0.000 C 
ATOM     14  C   UNL     1       4.290   5.639  17.072  0.00  0.00    +0.000 C 
ATOM     15  C   UNL     1       4.148   5.149  19.489  0.00  0.00    +0.000 C 
BRANCH  13  16
ATOM     16  C   UNL     1       2.263   4.428  17.944  0.00  0.00    +0.000 C 
ATOM     17  F   UNL     1       1.159   4.879  17.308  0.00  0.00    +0.000 F 
ATOM     18  F   UNL     1       2.789   3.458  17.156  0.00  0.00    +0.000 F 
ATOM     19  F   UNL     1       1.832   3.812  19.073  0.00  0.00    +0.000 F 
ENDBRANCH  13  16
ENDBRANCH  10  13
ENDBRANCH   5   7
BRANCH   1  20
ATOM     20  C   UNL     1      -2.320  12.612  19.435  0.00  0.00    +0.000 C 
BRANCH  20  25
ATOM     21  C   UNL     1      -4.059  12.511  24.428  0.00  0.00    +0.000 C 
ATOM     22  C   UNL     1      -3.886  12.580  22.954  0.00  0.00    +0.000 A 
ATOM     23  N   UNL     1      -4.872  12.561  22.081  0.00  0.00    +0.000 NA
ATOM     24  N   UNL     1      -4.418  12.606  20.781  0.00  0.00    +0.000 NA
ATOM     25  C   UNL     1      -3.103  12.654  20.710  0.00  0.00    +0.000 A 
ATOM     26  S   UNL     1      -2.325  12.689  22.245  0.00  0.00    +0.000 S 
ENDBRANCH  20  25
ENDBRANCH   1  20
TORSDOF 5
ENDMDL
MODEL 4
REMARK VINA RESULT:      -7.4      9.401     11.886
REMARK  Name = 
REMARK  9 active torsions:
REMARK  status: ('A' for Active; 'I' for Inactive)
REMARK    1  A    between atoms: C_1  and  C_2
REMARK    2  A    between atoms: C_5  and  C_6
REMARK    3  A    between atoms: C_6  and  N_7
REMARK    4  A    between atoms: N_7  and  C_8
REMARK    5  A    between atoms: N_11  and  C_12
REMARK    6  A    between atoms: C_15  and  C_16
REMARK    7  A    between atoms: C_16  and  C_17
REMARK    8  A    between atoms: C_16  and  C_18
REMARK    9  A    between atoms: C_16  and  C_19
REMARK                            x       y       z     vdW  Elec       q    Type
REMARK                         _______ _______ _______ _____ _____    ______ ____
ROOT
ATOM      1  N   UNL     1      -0.307  12.258  20.795  0.00  0.00    +0.000 N 
ATOM      2  C   UNL     1      -1.279  12.595  19.764  0.00  0.00    +0.000 C 
ATOM      3  C   UNL     1       0.559  11.171  20.727  0.00  0.00    +0.000 C 
ATOM      4  O   UNL     1       1.217  10.832  21.708  0.00  0.00    +0.000 OA
ATOM      5  N   UNL     1       0.608  10.535  19.503  0.00  0.00    +0.000 N 
ATOM      6  H   UNL     1       0.287  11.059  18.706  0.00  0.00    +0.000 HD
ENDROOT
BRANCH   5   7
ATOM      7  C   UNL     1       1.310   9.340  19.217  0.00  0.00    +0.000 A 
ATOM      8  C   UNL     1       1.469   8.313  20.143  0.00  0.00    +0.000 A 
ATOM      9  C   UNL     1       2.189   7.157  19.825  0.00  0.00    +0.000 A 
ATOM     10  C   UNL     1       2.769   6.980  18.559  0.00  0.00    +0.000 A 
ATOM     11  C   UNL     1       2.587   8.018  17.624  0.00  0.00    +0.000 A 
ATOM     12  C   UNL     1       1.860   9.176  17.946  0.00  0.00    +0.000 A 
BRANCH  10  13
ATOM     13  C   UNL     1       3.549   5.702  18.188  0.00  0.00    +0.000 C 
ATOM     14  C   UNL     1       4.516   5.919  16.994  0.00  0.00    +0.000 C 
ATOM     15  C   UNL     1       4.449   5.329  19.392  0.00  0.00    +0.000 C 
BRANCH  13  16
ATOM     16  C   UNL     1       2.612   4.505  17.839  0.00  0.00    +0.000 C 
ATOM     17  F   UNL     1       1.373   4.888  17.458  0.00  0.00    +0.000 F 
ATOM     18  F   UNL     1       3.106   3.748  16.828  0.00  0.00    +0.000 F 
ATOM     19  F   UNL     1       2.449   3.672  18.897  0.00  0.00    +0.000 F 
ENDBRANCH  13  16
ENDBRANCH  10  13
ENDBRANCH   5   7
BRANCH   1  20
ATOM     20  C   UNL     1      -0.451  12.918  22.099  0.00  0.00    +0.000 C 
BRANCH  20  25
ATOM     21  C   UNL     1      -5.381  13.775  23.806  0.00  0.00    +0.000 C 
ATOM     22  C   UNL     1      -4.057  13.227  23.418  0.00  0.00    +0.000 A 
ATOM     23  N   UNL     1      -3.625  12.021  23.723  0.00  0.00    +0.000 NA
ATOM     24  N   UNL     1      -2.347  11.792  23.261  0.00  0.00    +0.000 NA
ATOM     25  C   UNL     1      -1.850  12.835  22.624  0.00  0.00    +0.000 A 
ATOM     26  S   UNL     1      -2.938  14.163  22.510  0.00  0.00    +0.000 S 
ENDBRANCH  20  25
ENDBRANCH   1  20
TORSDOF 5
ENDMDL
MODEL 5
REMARK VINA RESULT:      -7.3      9.286     11.784
REMARK  Name = 
REMARK  9 active torsions:
REMARK  status: ('A' for Active; 'I' for Inactive)
REMARK    1  A    between atoms: C_1  and  C_2
REMARK    2  A    between atoms: C_5  and  C_6
REMARK    3  A    between atoms: C_6  and  N_7
REMARK    4  A    between atoms: N_7  and  C_8
REMARK    5  A    between atoms: N_11  and  C_12
REMARK    6  A    between atoms: C_15  and  C_16
REMARK    7  A    between atoms: C_16  and  C_17
REMARK    8  A    between atoms: C_16  and  C_18
REMARK    9  A    between atoms: C_16  and  C_19
REMARK                            x       y       z     vdW  Elec       q    Type
REMARK                         _______ _______ _______ _____ _____    ______ ____
ROOT
ATOM      1  N   UNL     1      -0.669  12.166  19.504  0.00  0.00    +0.000 N 
ATOM      2  C   UNL     1       0.329  13.219  19.617  0.00  0.00    +0.000 C 
ATOM      3  C   UNL     1      -0.367  10.821  19.311  0.00  0.00    +0.000 C 
ATOM      4  O   UNL     1      -1.251  10.014  19.034  0.00  0.00    +0.000 OA
ATOM      5  N   UNL     1       0.966  10.492  19.456  0.00  0.00    +0.000 N 
ATOM      6  H   UNL     1       1.539  11.136  19.975  0.00  0.00    +0.000 HD
ENDROOT
BRANCH   5   7
ATOM      7  C   UNL     1       1.540   9.227  19.191  0.00  0.00    +0.000 A 
ATOM      8  C   UNL     1       1.585   8.201  20.131  0.00  0.00    +0.000 A 
ATOM      9  C   UNL     1       2.182   6.972  19.834  0.00  0.00    +0.000 A 
ATOM     10  C   UNL     1       2.749   6.718  18.576  0.00  0.00    +0.000 A 
ATOM     11  C   UNL     1       2.682   7.756  17.625  0.00  0.00    +0.000 A 
ATOM     12  C   UNL     1       2.079   8.988  17.926  0.00  0.00    +0.000 A 
BRANCH  10  13
ATOM     13  C   UNL     1       3.393   5.360  18.227  0.00  0.00    +0.000 C 
ATOM     14  C   UNL     1       4.384   5.458  17.038  0.00  0.00    +0.000 C 
ATOM     15  C   UNL     1       4.241   4.912  19.443  0.00  0.00    +0.000 C 
BRANCH  13  16
ATOM     16  C   UNL     1       2.338   4.263  17.887  0.00  0.00    +0.000 C 
ATOM     17  F   UNL     1       1.940   3.550  18.965  0.00  0.00    +0.000 F 
ATOM     18  F   UNL     1       1.214   4.787  17.339  0.00  0.00    +0.000 F 
ATOM     19  F   UNL     1       2.818   3.366  16.990  0.00  0.00    +0.000 F 
ENDBRANCH  13  16
ENDBRANCH  10  13
ENDBRANCH   5   7
BRANCH   1  20
ATOM     20  C   UNL     1      -2.061  12.576  19.284  0.00  0.00    +0.000 C 
BRANCH  20  25
ATOM     21  C   UNL     1      -3.828  12.433  24.266  0.00  0.00    +0.000 C 
ATOM     22  C   UNL     1      -3.638  12.561  22.798  0.00  0.00    +0.000 A 
ATOM     23  N   UNL     1      -4.612  12.728  21.928  0.00  0.00    +0.000 NA
ATOM     24  N   UNL     1      -4.148  12.784  20.631  0.00  0.00    +0.000 NA
ATOM     25  C   UNL     1      -2.838  12.654  20.561  0.00  0.00    +0.000 A 
ATOM     26  S   UNL     1      -2.073  12.493  22.094  0.00  0.00    +0.000 S 
ENDBRANCH  20  25
ENDBRANCH   1  20
TORSDOF 5
ENDMDL
MODEL 6
REMARK VINA RESULT:      -7.3      6.325      7.230
REMARK  Name = 
REMARK  9 active torsions:
REMARK  status: ('A' for Active; 'I' for Inactive)
REMARK    1  A    between atoms: C_1  and  C_2
REMARK    2  A    between atoms: C_5  and  C_6
REMARK    3  A    between atoms: C_6  and  N_7
REMARK    4  A    between atoms: N_7  and  C_8
REMARK    5  A    between atoms: N_11  and  C_12
REMARK    6  A    between atoms: C_15  and  C_16
REMARK    7  A    between atoms: C_16  and  C_17
REMARK    8  A    between atoms: C_16  and  C_18
REMARK    9  A    between atoms: C_16  and  C_19
REMARK                            x       y       z     vdW  Elec       q    Type
REMARK                         _______ _______ _______ _____ _____    ______ ____
ROOT
ATOM      1  N   UNL     1       5.198   4.709  18.342  0.00  0.00    +0.000 N 
ATOM      2  C   UNL     1       4.404   3.488  18.365  0.00  0.00    +0.000 C 
ATOM      3  C   UNL     1       4.666   5.989  18.470  0.00  0.00    +0.000 C 
ATOM      4  O   UNL     1       5.358   6.980  18.251  0.00  0.00    +0.000 OA
ATOM      5  N   UNL     1       3.340   6.039  18.850  0.00  0.00    +0.000 N 
ATOM      6  H   UNL     1       2.965   5.218  19.296  0.00  0.00    +0.000 HD
ENDROOT
BRANCH   5   7
ATOM      7  C   UNL     1       2.543   7.204  18.927  0.00  0.00    +0.000 A 
ATOM      8  C   UNL     1       2.278   8.018  17.828  0.00  0.00    +0.000 A 
ATOM      9  C   UNL     1       1.501   9.173  17.954  0.00  0.00    +0.000 A 
ATOM     10  C   UNL     1       0.948   9.554  19.186  0.00  0.00    +0.000 A 
ATOM     11  C   UNL     1       1.207   8.715  20.288  0.00  0.00    +0.000 A 
ATOM     12  C   UNL     1       1.985   7.553  20.158  0.00  0.00    +0.000 A 
BRANCH  10  13
ATOM     13  C   UNL     1       0.072  10.816  19.336  0.00  0.00    +0.000 C 
ATOM     14  C   UNL     1      -1.028  10.910  18.247  0.00  0.00    +0.000 C 
ATOM     15  C   UNL     1      -0.681  10.713  20.685  0.00  0.00    +0.000 C 
BRANCH  13  16
ATOM     16  C   UNL     1       0.905  12.134  19.297  0.00  0.00    +0.000 C 
ATOM     17  F   UNL     1       2.061  12.059  19.993  0.00  0.00    +0.000 F 
ATOM     18  F   UNL     1       1.243  12.488  18.032  0.00  0.00    +0.000 F 
ATOM     19  F   UNL     1       0.212  13.180  19.814  0.00  0.00    +0.000 F 
ENDBRANCH  13  16
ENDBRANCH  10  13
ENDBRANCH   5   7
BRANCH   1  20
ATOM     20  C   UNL     1       6.582   4.606  17.863  0.00  0.00    +0.000 C 
BRANCH  20  25
ATOM     21  C   UNL     1       6.406   3.884  12.628  0.00  0.00    +0.000 C 
ATOM     22  C   UNL     1       6.619   4.357  14.019  0.00  0.00    +0.000 A 
ATOM     23  N   UNL     1       7.407   5.355  14.360  0.00  0.00    +0.000 NA
ATOM     24  N   UNL     1       7.438   5.555  15.723  0.00  0.00    +0.000 NA
ATOM     25  C   UNL     1       6.674   4.698  16.372  0.00  0.00    +0.000 A 
ATOM     26  S   UNL     1       5.827   3.606  15.346  0.00  0.00    +0.000 S 
ENDBRANCH  20  25
ENDBRANCH   1  20
TORSDOF 5
ENDMDL
MODEL 7
REMARK VINA RESULT:      -7.3      8.897     11.423
REMARK  Name = 
REMARK  9 active torsions:
REMARK  status: ('A' for Active; 'I' for Inactive)
REMARK    1  A    between atoms: C_1  and  C_2
REMARK    2  A    between atoms: C_5  and  C_6
REMARK    3  A    between atoms: C_6  and  N_7
REMARK    4  A    between atoms: N_7  and  C_8
REMARK    5  A    between atoms: N_11  and  C_12
REMARK    6  A    between atoms: C_15  and  C_16
REMARK    7  A    between atoms: C_16  and  C_17
REMARK    8  A    between atoms: C_16  and  C_18
REMARK    9  A    between atoms: C_16  and  C_19
REMARK                            x       y       z     vdW  Elec       q    Type
REMARK                         _______ _______ _______ _____ _____    ______ ____
ROOT
ATOM      1  N   UNL     1       0.392  11.172  19.576  0.00  0.00    +0.000 N 
ATOM      2  C   UNL     1       0.991  11.700  20.793  0.00  0.00    +0.000 C 
ATOM      3  C   UNL     1       0.659   9.907  19.060  0.00  0.00    +0.000 C 
ATOM      4  O   UNL     1       0.273   9.595  17.936  0.00  0.00    +0.000 OA
ATOM      5  N   UNL     1       1.370   9.070  19.895  0.00  0.00    +0.000 N 
ATOM      6  H   UNL     1       1.364   9.295  20.877  0.00  0.00    +0.000 HD
ENDROOT
BRANCH   5   7
ATOM      7  C   UNL     1       1.869   7.790  19.558  0.00  0.00    +0.000 A 
ATOM      8  C   UNL     1       1.737   6.680  20.388  0.00  0.00    +0.000 A 
ATOM      9  C   UNL     1       2.264   5.437  20.023  0.00  0.00    +0.000 A 
ATOM     10  C   UNL     1       2.935   5.254  18.804  0.00  0.00    +0.000 A 
ATOM     11  C   UNL     1       3.047   6.379  17.963  0.00  0.00    +0.000 A 
ATOM     12  C   UNL     1       2.513   7.626  18.331  0.00  0.00    +0.000 A 
BRANCH  10  13
ATOM     13  C   UNL     1       3.504   3.884  18.380  0.00  0.00    +0.000 C 
ATOM     14  C   UNL     1       4.225   3.937  17.008  0.00  0.00    +0.000 C 
ATOM     15  C   UNL     1       4.591   3.484  19.409  0.00  0.00    +0.000 C 
BRANCH  13  16
ATOM     16  C   UNL     1       2.412   2.774  18.310  0.00  0.00    +0.000 C 
ATOM     17  F   UNL     1       2.679   1.816  17.395  0.00  0.00    +0.000 F 
ATOM     18  F   UNL     1       2.254   2.137  19.496  0.00  0.00    +0.000 F 
ATOM     19  F   UNL     1       1.198   3.286  17.987  0.00  0.00    +0.000 F 
ENDBRANCH  13  16
ENDBRANCH  10  13
ENDBRANCH   5   7
BRANCH   1  20
ATOM     20  C   UNL     1      -0.293  12.123  18.692  0.00  0.00    +0.000 C 
BRANCH  20  25
ATOM     21  C   UNL     1      -5.466  11.450  17.827  0.00  0.00    +0.000 C 
ATOM     22  C   UNL     1      -4.111  11.720  18.371  0.00  0.00    +0.000 A 
ATOM     23  N   UNL     1      -3.868  12.278  19.538  0.00  0.00    +0.000 NA
ATOM     24  N   UNL     1      -2.518  12.435  19.771  0.00  0.00    +0.000 NA
ATOM     25  C   UNL     1      -1.783  11.995  18.769  0.00  0.00    +0.000 A 
ATOM     26  S   UNL     1      -2.698  11.315  17.481  0.00  0.00    +0.000 S 
ENDBRANCH  20  25
ENDBRANCH   1  20
TORSDOF 5
ENDMDL
MODEL 8
REMARK VINA RESULT:      -7.3      6.318      7.238
REMARK  Name = 
REMARK  9 active torsions:
REMARK  status: ('A' for Active; 'I' for Inactive)
REMARK    1  A    between atoms: C_1  and  C_2
REMARK    2  A    between atoms: C_5  and  C_6
REMARK    3  A    between atoms: C_6  and  N_7
REMARK    4  A    between atoms: N_7  and  C_8
REMARK    5  A    between atoms: N_11  and  C_12
REMARK    6  A    between atoms: C_15  and  C_16
REMARK    7  A    between atoms: C_16  and  C_17
REMARK    8  A    between atoms: C_16  and  C_18
REMARK    9  A    between atoms: C_16  and  C_19
REMARK                            x       y       z     vdW  Elec       q    Type
REMARK                         _______ _______ _______ _____ _____    ______ ____
ROOT
ATOM      1  N   UNL     1       5.174   4.609  17.998  0.00  0.00    +0.000 N 
ATOM      2  C   UNL     1       4.341   3.430  17.804  0.00  0.00    +0.000 C 
ATOM      3  C   UNL     1       4.677   5.878  18.278  0.00  0.00    +0.000 C 
ATOM      4  O   UNL     1       5.412   6.861  18.241  0.00  0.00    +0.000 OA
ATOM      5  N   UNL     1       3.333   5.927  18.590  0.00  0.00    +0.000 N 
ATOM      6  H   UNL     1       2.906   5.067  18.894  0.00  0.00    +0.000 HD
ENDROOT
BRANCH   5   7
ATOM      7  C   UNL     1       2.570   7.101  18.790  0.00  0.00    +0.000 A 
ATOM      8  C   UNL     1       2.094   7.494  20.038  0.00  0.00    +0.000 A 
ATOM      9  C   UNL     1       1.326   8.653  20.187  0.00  0.00    +0.000 A 
ATOM     10  C   UNL     1       1.014   9.472  19.091  0.00  0.00    +0.000 A 
ATOM     11  C   UNL     1       1.516   9.075  17.836  0.00  0.00    +0.000 A 
ATOM     12  C   UNL     1       2.290   7.912  17.690  0.00  0.00    +0.000 A 
BRANCH  10  13
ATOM     13  C   UNL     1       0.184  10.763  19.244  0.00  0.00    +0.000 C 
ATOM     14  C   UNL     1      -1.004  10.830  18.249  0.00  0.00    +0.000 C 
ATOM     15  C   UNL     1      -0.453  10.753  20.656  0.00  0.00    +0.000 C 
BRANCH  13  16
ATOM     16  C   UNL     1       1.040  12.054  19.061  0.00  0.00    +0.000 C 
ATOM     17  F   UNL     1       1.207  12.753  20.206  0.00  0.00    +0.000 F 
ATOM     18  F   UNL     1       2.283  11.780  18.596  0.00  0.00    +0.000 F 
ATOM     19  F   UNL     1       0.477  12.907  18.169  0.00  0.00    +0.000 F 
ENDBRANCH  13  16
ENDBRANCH  10  13
ENDBRANCH   5   7
BRANCH   1  20
ATOM     20  C   UNL     1       6.579   4.518  17.584  0.00  0.00    +0.000 C 
BRANCH  20  25
ATOM     21  C   UNL     1       6.684   4.041  12.319  0.00  0.00    +0.000 C 
ATOM     22  C   UNL     1       6.818   4.451  13.740  0.00  0.00    +0.000 A 
ATOM     23  N   UNL     1       7.571   5.444  14.167  0.00  0.00    +0.000 NA
ATOM     24  N   UNL     1       7.528   5.579  15.538  0.00  0.00    +0.000 NA
ATOM     25  C   UNL     1       6.746   4.682  16.105  0.00  0.00    +0.000 A 
ATOM     26  S   UNL     1       5.971   3.628  14.988  0.00  0.00    +0.000 S 
ENDBRANCH  20  25
ENDBRANCH   1  20
TORSDOF 5
ENDMDL
MODEL 9
REMARK VINA RESULT:      -7.3      8.995     11.569
REMARK  Name = 
REMARK  9 active torsions:
REMARK  status: ('A' for Active; 'I' for Inactive)
REMARK    1  A    between atoms: C_1  and  C_2
REMARK    2  A    between atoms: C_5  and  C_6
REMARK    3  A    between atoms: C_6  and  N_7
REMARK    4  A    between atoms: N_7  and  C_8
REMARK    5  A    between atoms: N_11  and  C_12
REMARK    6  A    between atoms: C_15  and  C_16
REMARK    7  A    between atoms: C_16  and  C_17
REMARK    8  A    between atoms: C_16  and  C_18
REMARK    9  A    between atoms: C_16  and  C_19
REMARK                            x       y       z     vdW  Elec       q    Type
REMARK                         _______ _______ _______ _____ _____    ______ ____
ROOT
ATOM      1  N   UNL     1       0.446  11.235  19.565  0.00  0.00    +0.000 N 
ATOM      2  C   UNL     1       1.067  11.732  20.785  0.00  0.00    +0.000 C 
ATOM      3  C   UNL     1       0.696   9.981  19.017  0.00  0.00    +0.000 C 
ATOM      4  O   UNL     1       0.292   9.697  17.892  0.00  0.00    +0.000 OA
ATOM      5  N   UNL     1       1.413   9.120  19.823  0.00  0.00    +0.000 N 
ATOM      6  H   UNL     1       1.423   9.323  20.809  0.00  0.00    +0.000 HD
ENDROOT
BRANCH   5   7
ATOM      7  C   UNL     1       1.898   7.844  19.449  0.00  0.00    +0.000 A 
ATOM      8  C   UNL     1       2.551   7.603  18.244  0.00  0.00    +0.000 A 
ATOM      9  C   UNL     1       2.995   6.321  17.905  0.00  0.00    +0.000 A 
ATOM     10  C   UNL     1       2.813   5.231  18.769  0.00  0.00    +0.000 A 
ATOM     11  C   UNL     1       2.168   5.489  19.994  0.00  0.00    +0.000 A 
ATOM     12  C   UNL     1       1.726   6.778  20.333  0.00  0.00    +0.000 A 
BRANCH  10  13
ATOM     13  C   UNL     1       3.316   3.815  18.417  0.00  0.00    +0.000 C 
ATOM     14  C   UNL     1       4.097   3.775  17.078  0.00  0.00    +0.000 C 
ATOM     15  C   UNL     1       4.332   3.389  19.506  0.00  0.00    +0.000 C 
BRANCH  13  16
ATOM     16  C   UNL     1       2.162   2.769  18.335  0.00  0.00    +0.000 C 
ATOM     17  F   UNL     1       1.941   2.122  19.502  0.00  0.00    +0.000 F 
ATOM     18  F   UNL     1       0.982   3.338  17.984  0.00  0.00    +0.000 F 
ATOM     19  F   UNL     1       2.417   1.813  17.408  0.00  0.00    +0.000 F 
ENDBRANCH  13  16
ENDBRANCH  10  13
ENDBRANCH   5   7
BRANCH   1  20
ATOM     20  C   UNL     1      -0.245  12.211  18.714  0.00  0.00    +0.000 C 
BRANCH  20  25
ATOM     21  C   UNL     1      -5.145  12.641  20.654  0.00  0.00    +0.000 C 
ATOM     22  C   UNL     1      -3.922  12.402  19.847  0.00  0.00    +0.000 A 
ATOM     23  N   UNL     1      -3.891  11.740  18.708  0.00  0.00    +0.000 NA
ATOM     24  N   UNL     1      -2.616  11.645  18.194  0.00  0.00    +0.000 NA
ATOM     25  C   UNL     1      -1.721  12.235  18.962  0.00  0.00    +0.000 A 
ATOM     26  S   UNL     1      -2.389  12.988  20.357  0.00  0.00    +0.000 S 
ENDBRANCH  20  25
ENDBRANCH   1  20
TORSDOF 5
ENDMDL
