MODEL 1
REMARK VINA RESULT:      -6.7      0.000      0.000
REMARK  Name = 
REMARK  9 active torsions:
REMARK  status: ('A' for Active; 'I' for Inactive)
REMARK    1  A    between atoms: C_1  and  N_2
REMARK    2  A    between atoms: N_2  and  C_3
REMARK    3  A    between atoms: N_2  and  C_4
REMARK    4  A    between atoms: C_4  and  C_5
REMARK    5  A    between atoms: C_5  and  C_6
REMARK    6  A    between atoms: C_6  and  N_7
REMARK    7  A    between atoms: N_7  and  C_8
REMARK    8  A    between atoms: C_10  and  C_11
REMARK    9  A    between atoms: C_19  and  C_20
REMARK                            x       y       z     vdW  Elec       q    Type
REMARK                         _______ _______ _______ _____ _____    ______ ____
ROOT
ATOM      1  C   UNL     1       4.839   4.470  18.210  0.00  0.00    +0.000 A 
ATOM      2  O   UNL     1       4.013   5.310  18.915  0.00  0.00    +0.000 OA
ATOM      3  C   UNL     1       3.741   6.338  18.048  0.00  0.00    +0.000 A 
ATOM      4  N   UNL     1       4.305   6.213  16.860  0.00  0.00    +0.000 NA
ATOM      5  C   UNL     1       5.002   5.037  16.963  0.00  0.00    +0.000 A 
ENDROOT
BRANCH   3   6
ATOM      6  C   UNL     1       2.833   7.383  18.513  0.00  0.00    +0.000 A 
ATOM      7  C   UNL     1       2.320   7.403  19.821  0.00  0.00    +0.000 A 
ATOM      8  C   UNL     1       1.407   8.391  20.213  0.00  0.00    +0.000 A 
ATOM      9  C   UNL     1       1.000   9.364  19.300  0.00  0.00    +0.000 A 
ATOM     10 CL   UNL     1      -0.159  10.544  19.769  0.00  0.00    +0.000 Cl
ATOM     11  C   UNL     1       1.518   9.376  18.010  0.00  0.00    +0.000 A 
ATOM     12  C   UNL     1       2.435   8.395  17.623  0.00  0.00    +0.000 A 
ENDBRANCH   3   6
BRANCH   1  13
ATOM     13  N   UNL     1       5.296   3.359  18.818  0.00  0.00    +0.000 N 
ATOM     14  H   UNL     1       6.289   3.144  18.820  0.00  0.00    +0.000 HD
BRANCH  13  15
ATOM     15  C   UNL     1       4.456   2.559  19.695  0.00  0.00    +0.000 C 
BRANCH  15  16
ATOM     16  C   UNL     1       3.383   1.837  18.872  0.00  0.00    +0.000 C 
BRANCH  16  17
ATOM     17  C   UNL     1       1.959   2.103  19.381  0.00  0.00    +0.000 C 
BRANCH  17  19
ATOM     18  C   UNL     1       0.878   4.156  20.134  0.00  0.00    +0.000 C 
ATOM     19  N   UNL     1       1.871   3.122  20.439  0.00  0.00    +0.000 NA
ATOM     20  C   UNL     1       1.541   2.495  21.724  0.00  0.00    +0.000 C 
ENDBRANCH  17  19
ENDBRANCH  16  17
ENDBRANCH  15  16
ENDBRANCH  13  15
ENDBRANCH   1  13
BRANCH   5  21
ATOM     21  C   UNL     1       5.707   4.483  15.862  0.00  0.00    +0.000 C 
ATOM     22  N   UNL     1       6.274   4.006  14.960  0.00  0.00    +0.000 NA
ENDBRANCH   5  21
TORSDOF 7
ENDMDL
MODEL 2
REMARK VINA RESULT:      -6.7      1.797      4.138
REMARK  Name = 
REMARK  9 active torsions:
REMARK  status: ('A' for Active; 'I' for Inactive)
REMARK    1  A    between atoms: C_1  and  N_2
REMARK    2  A    between atoms: N_2  and  C_3
REMARK    3  A    between atoms: N_2  and  C_4
REMARK    4  A    between atoms: C_4  and  C_5
REMARK    5  A    between atoms: C_5  and  C_6
REMARK    6  A    between atoms: C_6  and  N_7
REMARK    7  A    between atoms: N_7  and  C_8
REMARK    8  A    between atoms: C_10  and  C_11
REMARK    9  A    between atoms: C_19  and  C_20
REMARK                            x       y       z     vdW  Elec       q    Type
REMARK                         _______ _______ _______ _____ _____    ______ ____
ROOT
ATOM      1  C   UNL     1       4.256   4.001  17.941  0.00  0.00    +0.000 A 
ATOM      2  O   UNL     1       3.698   5.233  17.703  0.00  0.00    +0.000 OA
ATOM      3  C   UNL     1       3.195   5.627  18.918  0.00  0.00    +0.000 A 
ATOM      4  N   UNL     1       3.400   4.764  19.898  0.00  0.00    +0.000 NA
ATOM      5  C   UNL     1       4.065   3.737  19.281  0.00  0.00    +0.000 A 
ENDROOT
BRANCH   3   6
ATOM      6  C   UNL     1       2.568   6.944  18.988  0.00  0.00    +0.000 A 
ATOM      7  C   UNL     1       1.959   7.422  20.160  0.00  0.00    +0.000 A 
ATOM      8  C   UNL     1       1.319   8.668  20.171  0.00  0.00    +0.000 A 
ATOM      9  C   UNL     1       1.282   9.443  19.012  0.00  0.00    +0.000 A 
ATOM     10 CL   UNL     1       0.451  10.949  19.016  0.00  0.00    +0.000 Cl
ATOM     11  C   UNL     1       1.904   8.998  17.851  0.00  0.00    +0.000 A 
ATOM     12  C   UNL     1       2.549   7.758  17.843  0.00  0.00    +0.000 A 
ENDBRANCH   3   6
BRANCH   1  13
ATOM     13  N   UNL     1       4.823   3.344  16.912  0.00  0.00    +0.000 N 
ATOM     14  H   UNL     1       4.648   2.353  16.774  0.00  0.00    +0.000 HD
BRANCH  13  15
ATOM     15  C   UNL     1       5.497   4.042  15.828  0.00  0.00    +0.000 C 
BRANCH  15  16
ATOM     16  C   UNL     1       6.881   4.510  16.291  0.00  0.00    +0.000 C 
BRANCH  16  17
ATOM     17  C   UNL     1       6.971   6.034  16.464  0.00  0.00    +0.000 C 
BRANCH  17  19
ATOM     18  C   UNL     1       7.798   7.927  17.762  0.00  0.00    +0.000 C 
ATOM     19  N   UNL     1       7.789   6.469  17.608  0.00  0.00    +0.000 NA
ATOM     20  C   UNL     1       7.301   5.852  18.847  0.00  0.00    +0.000 C 
ENDBRANCH  17  19
ENDBRANCH  16  17
ENDBRANCH  15  16
ENDBRANCH  13  15
ENDBRANCH   1  13
BRANCH   5  21
ATOM     21  C   UNL     1       4.547   2.614  20.004  0.00  0.00    +0.000 C 
ATOM     22  N   UNL     1       4.964   1.705  20.607  0.00  0.00    +0.000 NA
ENDBRANCH   5  21
TORSDOF 7
ENDMDL
MODEL 3
REMARK VINA RESULT:      -6.5      1.654      3.971
REMARK  Name = 
REMARK  9 active torsions:
REMARK  status: ('A' for Active; 'I' for Inactive)
REMARK    1  A    between atoms: C_1  and  N_2
REMARK    2  A    between atoms: N_2  and  C_3
REMARK    3  A    between atoms: N_2  and  C_4
REMARK    4  A    between atoms: C_4  and  C_5
REMARK    5  A    between atoms: C_5  and  C_6
REMARK    6  A    between atoms: C_6  and  N_7
REMARK    7  A    between atoms: N_7  and  C_8
REMARK    8  A    between atoms: C_10  and  C_11
REMARK    9  A    between atoms: C_19  and  C_20
REMARK                            x       y       z     vdW  Elec       q    Type
REMARK                         _______ _______ _______ _____ _____    ______ ____
ROOT
ATOM      1  C   UNL     1       4.563   4.773  19.129  0.00  0.00    +0.000 A 
ATOM      2  O   UNL     1       4.225   6.097  19.260  0.00  0.00    +0.000 OA
ATOM      3  C   UNL     1       2.878   6.139  18.997  0.00  0.00    +0.000 A 
ATOM      4  N   UNL     1       2.338   4.963  18.731  0.00  0.00    +0.000 NA
ATOM      5  C   UNL     1       3.402   4.101  18.810  0.00  0.00    +0.000 A 
ENDROOT
BRANCH   3   6
ATOM      6  C   UNL     1       2.215   7.436  19.104  0.00  0.00    +0.000 A 
ATOM      7  C   UNL     1       1.665   7.898  20.311  0.00  0.00    +0.000 A 
ATOM      8  C   UNL     1       0.987   9.123  20.361  0.00  0.00    +0.000 A 
ATOM      9  C   UNL     1       0.853   9.892  19.206  0.00  0.00    +0.000 A 
ATOM     10 CL   UNL     1      -0.024  11.371  19.260  0.00  0.00    +0.000 Cl
ATOM     11  C   UNL     1       1.415   9.464  18.009  0.00  0.00    +0.000 A 
ATOM     12  C   UNL     1       2.098   8.245  17.962  0.00  0.00    +0.000 A 
ENDBRANCH   3   6
BRANCH   1  13
ATOM     13  N   UNL     1       5.849   4.418  19.314  0.00  0.00    +0.000 N 
ATOM     14  H   UNL     1       6.140   3.452  19.188  0.00  0.00    +0.000 HD
BRANCH  13  15
ATOM     15  C   UNL     1       6.909   5.403  19.455  0.00  0.00    +0.000 C 
BRANCH  15  16
ATOM     16  C   UNL     1       7.816   5.374  18.220  0.00  0.00    +0.000 C 
BRANCH  16  17
ATOM     17  C   UNL     1       7.249   6.180  17.042  0.00  0.00    +0.000 C 
BRANCH  17  19
ATOM     18  C   UNL     1       5.150   6.300  15.804  0.00  0.00    +0.000 C 
ATOM     19  N   UNL     1       6.269   5.451  16.220  0.00  0.00    +0.000 NA
ATOM     20  C   UNL     1       6.921   4.888  15.032  0.00  0.00    +0.000 C 
ENDBRANCH  17  19
ENDBRANCH  16  17
ENDBRANCH  15  16
ENDBRANCH  13  15
ENDBRANCH   1  13
BRANCH   5  21
ATOM     21  C   UNL     1       3.244   2.698  18.660  0.00  0.00    +0.000 C 
ATOM     22  N   UNL     1       3.097   1.549  18.517  0.00  0.00    +0.000 NA
ENDBRANCH   5  21
TORSDOF 7
ENDMDL
MODEL 4
REMARK VINA RESULT:      -6.5      1.871      4.254
REMARK  Name = 
REMARK  9 active torsions:
REMARK  status: ('A' for Active; 'I' for Inactive)
REMARK    1  A    between atoms: C_1  and  N_2
REMARK    2  A    between atoms: N_2  and  C_3
REMARK    3  A    between atoms: N_2  and  C_4
REMARK    4  A    between atoms: C_4  and  C_5
REMARK    5  A    between atoms: C_5  and  C_6
REMARK    6  A    between atoms: C_6  and  N_7
REMARK    7  A    between atoms: N_7  and  C_8
REMARK    8  A    between atoms: C_10  and  C_11
REMARK    9  A    between atoms: C_19  and  C_20
REMARK                            x       y       z     vdW  Elec       q    Type
REMARK                         _______ _______ _______ _____ _____    ______ ____
ROOT
ATOM      1  C   UNL     1       3.867   4.254  17.798  0.00  0.00    +0.000 A 
ATOM      2  O   UNL     1       3.273   5.480  17.627  0.00  0.00    +0.000 OA
ATOM      3  C   UNL     1       2.918   5.874  18.893  0.00  0.00    +0.000 A 
ATOM      4  N   UNL     1       3.249   5.017  19.843  0.00  0.00    +0.000 NA
ATOM      5  C   UNL     1       3.844   3.993  19.152  0.00  0.00    +0.000 A 
ENDROOT
BRANCH   3   6
ATOM      6  C   UNL     1       2.292   7.185  19.035  0.00  0.00    +0.000 A 
ATOM      7  C   UNL     1       2.226   8.103  17.974  0.00  0.00    +0.000 A 
ATOM      8  C   UNL     1       1.667   9.373  18.165  0.00  0.00    +0.000 A 
ATOM      9  C   UNL     1       1.173   9.735  19.418  0.00  0.00    +0.000 A 
ATOM     10 CL   UNL     1       0.536  11.314  19.662  0.00  0.00    +0.000 Cl
ATOM     11  C   UNL     1       1.205   8.830  20.472  0.00  0.00    +0.000 A 
ATOM     12  C   UNL     1       1.756   7.560  20.278  0.00  0.00    +0.000 A 
ENDBRANCH   3   6
BRANCH   1  13
ATOM     13  N   UNL     1       4.312   3.598  16.710  0.00  0.00    +0.000 N 
ATOM     14  H   UNL     1       3.820   2.778  16.365  0.00  0.00    +0.000 HD
BRANCH  13  15
ATOM     15  C   UNL     1       5.341   4.150  15.843  0.00  0.00    +0.000 C 
BRANCH  15  16
ATOM     16  C   UNL     1       6.538   4.610  16.683  0.00  0.00    +0.000 C 
BRANCH  16  17
ATOM     17  C   UNL     1       6.698   6.137  16.711  0.00  0.00    +0.000 C 
BRANCH  17  19
ATOM     18  C   UNL     1       7.822   8.080  17.667  0.00  0.00    +0.000 C 
ATOM     19  N   UNL     1       7.802   6.619  17.558  0.00  0.00    +0.000 NA
ATOM     20  C   UNL     1       7.708   6.031  18.899  0.00  0.00    +0.000 C 
ENDBRANCH  17  19
ENDBRANCH  16  17
ENDBRANCH  15  16
ENDBRANCH  13  15
ENDBRANCH   1  13
BRANCH   5  21
ATOM     21  C   UNL     1       4.421   2.877  19.814  0.00  0.00    +0.000 C 
ATOM     22  N   UNL     1       4.919   1.970  20.354  0.00  0.00    +0.000 NA
ENDBRANCH   5  21
TORSDOF 7
ENDMDL
MODEL 5
REMARK VINA RESULT:      -6.4      1.807      4.424
REMARK  Name = 
REMARK  9 active torsions:
REMARK  status: ('A' for Active; 'I' for Inactive)
REMARK    1  A    between atoms: C_1  and  N_2
REMARK    2  A    between atoms: N_2  and  C_3
REMARK    3  A    between atoms: N_2  and  C_4
REMARK    4  A    between atoms: C_4  and  C_5
REMARK    5  A    between atoms: C_5  and  C_6
REMARK    6  A    between atoms: C_6  and  N_7
REMARK    7  A    between atoms: N_7  and  C_8
REMARK    8  A    between atoms: C_10  and  C_11
REMARK    9  A    between atoms: C_19  and  C_20
REMARK                            x       y       z     vdW  Elec       q    Type
REMARK                         _______ _______ _______ _____ _____    ______ ____
ROOT
ATOM      1  C   UNL     1       3.565   4.855  19.534  0.00  0.00    +0.000 A 
ATOM      2  O   UNL     1       3.365   6.115  19.025  0.00  0.00    +0.000 OA
ATOM      3  C   UNL     1       2.293   6.607  19.727  0.00  0.00    +0.000 A 
ATOM      4  N   UNL     1       1.814   5.781  20.640  0.00  0.00    +0.000 NA
ATOM      5  C   UNL     1       2.613   4.674  20.515  0.00  0.00    +0.000 A 
ENDROOT
BRANCH   3   6
ATOM      6  C   UNL     1       1.868   7.972  19.429  0.00  0.00    +0.000 A 
ATOM      7  C   UNL     1       2.134   8.587  18.195  0.00  0.00    +0.000 A 
ATOM      8  C   UNL     1       1.758   9.917  17.967  0.00  0.00    +0.000 A 
ATOM      9  C   UNL     1       1.119  10.642  18.972  0.00  0.00    +0.000 A 
ATOM     10 CL   UNL     1       0.707  12.291  18.707  0.00  0.00    +0.000 Cl
ATOM     11  C   UNL     1       0.824  10.042  20.191  0.00  0.00    +0.000 A 
ATOM     12  C   UNL     1       1.192   8.712  20.413  0.00  0.00    +0.000 A 
ENDBRANCH   3   6
BRANCH   1  13
ATOM     13  N   UNL     1       4.557   4.104  19.019  0.00  0.00    +0.000 N 
ATOM     14  H   UNL     1       5.285   3.729  19.621  0.00  0.00    +0.000 HD
BRANCH  13  15
ATOM     15  C   UNL     1       4.511   3.594  17.658  0.00  0.00    +0.000 C 
BRANCH  15  16
ATOM     16  C   UNL     1       5.444   4.415  16.762  0.00  0.00    +0.000 C 
BRANCH  16  17
ATOM     17  C   UNL     1       6.818   4.667  17.400  0.00  0.00    +0.000 C 
BRANCH  17  19
ATOM     18  C   UNL     1       7.814   5.740  19.352  0.00  0.00    +0.000 C 
ATOM     19  N   UNL     1       6.894   5.887  18.221  0.00  0.00    +0.000 NA
ATOM     20  C   UNL     1       7.311   7.028  17.399  0.00  0.00    +0.000 C 
ENDBRANCH  17  19
ENDBRANCH  16  17
ENDBRANCH  15  16
ENDBRANCH  13  15
ENDBRANCH   1  13
BRANCH   5  21
ATOM     21  C   UNL     1       2.482   3.554  21.378  0.00  0.00    +0.000 C 
ATOM     22  N   UNL     1       2.369   2.618  22.066  0.00  0.00    +0.000 NA
ENDBRANCH   5  21
TORSDOF 7
ENDMDL
MODEL 6
REMARK VINA RESULT:      -6.4      4.445      6.840
REMARK  Name = 
REMARK  9 active torsions:
REMARK  status: ('A' for Active; 'I' for Inactive)
REMARK    1  A    between atoms: C_1  and  N_2
REMARK    2  A    between atoms: N_2  and  C_3
REMARK    3  A    between atoms: N_2  and  C_4
REMARK    4  A    between atoms: C_4  and  C_5
REMARK    5  A    between atoms: C_5  and  C_6
REMARK    6  A    between atoms: C_6  and  N_7
REMARK    7  A    between atoms: N_7  and  C_8
REMARK    8  A    between atoms: C_10  and  C_11
REMARK    9  A    between atoms: C_19  and  C_20
REMARK                            x       y       z     vdW  Elec       q    Type
REMARK                         _______ _______ _______ _____ _____    ______ ____
ROOT
ATOM      1  C   UNL     1       6.711   6.425  17.036  0.00  0.00    +0.000 A 
ATOM      2  O   UNL     1       5.947   6.152  18.144  0.00  0.00    +0.000 OA
ATOM      3  C   UNL     1       5.261   5.009  17.820  0.00  0.00    +0.000 A 
ATOM      4  N   UNL     1       5.537   4.530  16.619  0.00  0.00    +0.000 NA
ATOM      5  C   UNL     1       6.448   5.426  16.123  0.00  0.00    +0.000 A 
ENDROOT
BRANCH   3   6
ATOM      6  C   UNL     1       4.382   4.442  18.840  0.00  0.00    +0.000 A 
ATOM      7  C   UNL     1       4.350   3.067  19.121  0.00  0.00    +0.000 A 
ATOM      8  C   UNL     1       3.454   2.554  20.068  0.00  0.00    +0.000 A 
ATOM      9  C   UNL     1       2.582   3.413  20.737  0.00  0.00    +0.000 A 
ATOM     10 CL   UNL     1       1.448   2.774  21.860  0.00  0.00    +0.000 Cl
ATOM     11  C   UNL     1       2.618   4.781  20.491  0.00  0.00    +0.000 A 
ATOM     12  C   UNL     1       3.519   5.291  19.552  0.00  0.00    +0.000 A 
ENDBRANCH   3   6
BRANCH   1  13
ATOM     13  N   UNL     1       7.494   7.520  17.051  0.00  0.00    +0.000 N 
ATOM     14  H   UNL     1       7.524   8.143  16.249  0.00  0.00    +0.000 HD
BRANCH  13  15
ATOM     15  C   UNL     1       8.130   7.998  18.269  0.00  0.00    +0.000 C 
BRANCH  15  16
ATOM     16  C   UNL     1       8.414   9.499  18.154  0.00  0.00    +0.000 C 
BRANCH  16  17
ATOM     17  C   UNL     1       9.234  10.045  19.333  0.00  0.00    +0.000 C 
BRANCH  17  19
ATOM     18  C   UNL     1      11.160  11.526  19.108  0.00  0.00    +0.000 C 
ATOM     19  N   UNL     1       9.698  11.432  19.161  0.00  0.00    +0.000 NA
ATOM     20  C   UNL     1       9.128  12.013  17.941  0.00  0.00    +0.000 C 
ENDBRANCH  17  19
ENDBRANCH  16  17
ENDBRANCH  15  16
ENDBRANCH  13  15
ENDBRANCH   1  13
BRANCH   5  21
ATOM     21  C   UNL     1       7.070   5.242  14.861  0.00  0.00    +0.000 C 
ATOM     22  N   UNL     1       7.582   5.065  13.826  0.00  0.00    +0.000 NA
ENDBRANCH   5  21
TORSDOF 7
ENDMDL
MODEL 7
REMARK VINA RESULT:      -6.4      0.799      1.436
REMARK  Name = 
REMARK  9 active torsions:
REMARK  status: ('A' for Active; 'I' for Inactive)
REMARK    1  A    between atoms: C_1  and  N_2
REMARK    2  A    between atoms: N_2  and  C_3
REMARK    3  A    between atoms: N_2  and  C_4
REMARK    4  A    between atoms: C_4  and  C_5
REMARK    5  A    between atoms: C_5  and  C_6
REMARK    6  A    between atoms: C_6  and  N_7
REMARK    7  A    between atoms: N_7  and  C_8
REMARK    8  A    between atoms: C_10  and  C_11
REMARK    9  A    between atoms: C_19  and  C_20
REMARK                            x       y       z     vdW  Elec       q    Type
REMARK                         _______ _______ _______ _____ _____    ______ ____
ROOT
ATOM      1  C   UNL     1       4.621   4.922  17.730  0.00  0.00    +0.000 A 
ATOM      2  O   UNL     1       3.687   5.577  18.495  0.00  0.00    +0.000 OA
ATOM      3  C   UNL     1       3.547   6.804  17.897  0.00  0.00    +0.000 A 
ATOM      4  N   UNL     1       4.292   6.973  16.819  0.00  0.00    +0.000 NA
ATOM      5  C   UNL     1       4.974   5.788  16.717  0.00  0.00    +0.000 A 
ENDROOT
BRANCH   3   6
ATOM      6  C   UNL     1       2.568   7.722  18.474  0.00  0.00    +0.000 A 
ATOM      7  C   UNL     1       2.015   8.785  17.741  0.00  0.00    +0.000 A 
ATOM      8  C   UNL     1       1.122   9.678  18.346  0.00  0.00    +0.000 A 
ATOM      9  C   UNL     1       0.778   9.516  19.688  0.00  0.00    +0.000 A 
ATOM     10 CL   UNL     1      -0.279  10.645  20.441  0.00  0.00    +0.000 Cl
ATOM     11  C   UNL     1       1.294   8.454  20.421  0.00  0.00    +0.000 A 
ATOM     12  C   UNL     1       2.179   7.559  19.814  0.00  0.00    +0.000 A 
ENDBRANCH   3   6
BRANCH   1  13
ATOM     13  N   UNL     1       4.986   3.677  18.089  0.00  0.00    +0.000 N 
ATOM     14  H   UNL     1       5.631   3.142  17.514  0.00  0.00    +0.000 HD
BRANCH  13  15
ATOM     15  C   UNL     1       4.686   3.134  19.405  0.00  0.00    +0.000 C 
BRANCH  15  16
ATOM     16  C   UNL     1       3.463   2.215  19.323  0.00  0.00    +0.000 C 
BRANCH  16  17
ATOM     17  C   UNL     1       2.511   2.377  20.518  0.00  0.00    +0.000 C 
BRANCH  17  19
ATOM     18  C   UNL     1       0.936   4.234  20.377  0.00  0.00    +0.000 C 
ATOM     19  N   UNL     1       1.148   2.801  20.158  0.00  0.00    +0.000 NA
ATOM     20  C   UNL     1       0.867   2.475  18.756  0.00  0.00    +0.000 C 
ENDBRANCH  17  19
ENDBRANCH  16  17
ENDBRANCH  15  16
ENDBRANCH  13  15
ENDBRANCH   1  13
BRANCH   5  21
ATOM     21  C   UNL     1       5.848   5.516  15.631  0.00  0.00    +0.000 C 
ATOM     22  N   UNL     1       6.574   5.318  14.739  0.00  0.00    +0.000 NA
ENDBRANCH   5  21
TORSDOF 7
ENDMDL
MODEL 8
REMARK VINA RESULT:      -6.4      0.885      1.415
REMARK  Name = 
REMARK  9 active torsions:
REMARK  status: ('A' for Active; 'I' for Inactive)
REMARK    1  A    between atoms: C_1  and  N_2
REMARK    2  A    between atoms: N_2  and  C_3
REMARK    3  A    between atoms: N_2  and  C_4
REMARK    4  A    between atoms: C_4  and  C_5
REMARK    5  A    between atoms: C_5  and  C_6
REMARK    6  A    between atoms: C_6  and  N_7
REMARK    7  A    between atoms: N_7  and  C_8
REMARK    8  A    between atoms: C_10  and  C_11
REMARK    9  A    between atoms: C_19  and  C_20
REMARK                            x       y       z     vdW  Elec       q    Type
REMARK                         _______ _______ _______ _____ _____    ______ ____
ROOT
ATOM      1  C   UNL     1       4.308   4.899  17.743  0.00  0.00    +0.000 A 
ATOM      2  O   UNL     1       3.367   5.572  18.484  0.00  0.00    +0.000 OA
ATOM      3  C   UNL     1       3.385   6.852  17.987  0.00  0.00    +0.000 A 
ATOM      4  N   UNL     1       4.236   7.039  16.993  0.00  0.00    +0.000 NA
ATOM      5  C   UNL     1       4.821   5.808  16.843  0.00  0.00    +0.000 A 
ENDROOT
BRANCH   3   6
ATOM      6  C   UNL     1       2.439   7.805  18.561  0.00  0.00    +0.000 A 
ATOM      7  C   UNL     1       1.940   8.897  17.831  0.00  0.00    +0.000 A 
ATOM      8  C   UNL     1       1.078   9.822  18.434  0.00  0.00    +0.000 A 
ATOM      9  C   UNL     1       0.712   9.664  19.771  0.00  0.00    +0.000 A 
ATOM     10 CL   UNL     1      -0.305  10.830  20.522  0.00  0.00    +0.000 Cl
ATOM     11  C   UNL     1       1.175   8.575  20.501  0.00  0.00    +0.000 A 
ATOM     12  C   UNL     1       2.029   7.648  19.895  0.00  0.00    +0.000 A 
ENDBRANCH   3   6
BRANCH   1  13
ATOM     13  N   UNL     1       4.533   3.601  18.018  0.00  0.00    +0.000 N 
ATOM     14  H   UNL     1       5.092   3.334  18.824  0.00  0.00    +0.000 HD
BRANCH  13  15
ATOM     15  C   UNL     1       3.806   2.533  17.349  0.00  0.00    +0.000 C 
BRANCH  15  16
ATOM     16  C   UNL     1       2.412   2.384  17.968  0.00  0.00    +0.000 C 
BRANCH  16  17
ATOM     17  C   UNL     1       2.454   2.027  19.461  0.00  0.00    +0.000 C 
BRANCH  17  19
ATOM     18  C   UNL     1       0.879   3.813  19.988  0.00  0.00    +0.000 C 
ATOM     19  N   UNL     1       2.126   3.142  20.364  0.00  0.00    +0.000 NA
ATOM     20  C   UNL     1       2.024   2.664  21.747  0.00  0.00    +0.000 C 
ENDBRANCH  17  19
ENDBRANCH  16  17
ENDBRANCH  15  16
ENDBRANCH  13  15
ENDBRANCH   1  13
BRANCH   5  21
ATOM     21  C   UNL     1       5.764   5.548  15.813  0.00  0.00    +0.000 C 
ATOM     22  N   UNL     1       6.533   5.356  14.956  0.00  0.00    +0.000 NA
ENDBRANCH   5  21
TORSDOF 7
ENDMDL
MODEL 9
REMARK VINA RESULT:      -6.3      4.449      6.771
REMARK  Name = 
REMARK  9 active torsions:
REMARK  status: ('A' for Active; 'I' for Inactive)
REMARK    1  A    between atoms: C_1  and  N_2
REMARK    2  A    between atoms: N_2  and  C_3
REMARK    3  A    between atoms: N_2  and  C_4
REMARK    4  A    between atoms: C_4  and  C_5
REMARK    5  A    between atoms: C_5  and  C_6
REMARK    6  A    between atoms: C_6  and  N_7
REMARK    7  A    between atoms: N_7  and  C_8
REMARK    8  A    between atoms: C_10  and  C_11
REMARK    9  A    between atoms: C_19  and  C_20
REMARK                            x       y       z     vdW  Elec       q    Type
REMARK                         _______ _______ _______ _____ _____    ______ ____
ROOT
ATOM      1  C   UNL     1       6.354   6.571  17.098  0.00  0.00    +0.000 A 
ATOM      2  O   UNL     1       5.508   6.280  18.140  0.00  0.00    +0.000 OA
ATOM      3  C   UNL     1       4.970   5.058  17.819  0.00  0.00    +0.000 A 
ATOM      4  N   UNL     1       5.412   4.550  16.682  0.00  0.00    +0.000 NA
ATOM      5  C   UNL     1       6.282   5.507  16.225  0.00  0.00    +0.000 A 
ENDROOT
BRANCH   3   6
ATOM      6  C   UNL     1       4.049   4.459  18.780  0.00  0.00    +0.000 A 
ATOM      7  C   UNL     1       3.165   5.232  19.552  0.00  0.00    +0.000 A 
ATOM      8  C   UNL     1       2.335   4.625  20.504  0.00  0.00    +0.000 A 
ATOM      9  C   UNL     1       2.385   3.244  20.693  0.00  0.00    +0.000 A 
ATOM     10 CL   UNL     1       1.403   2.510  21.898  0.00  0.00    +0.000 Cl
ATOM     11  C   UNL     1       3.234   2.461  19.919  0.00  0.00    +0.000 A 
ATOM     12  C   UNL     1       4.055   3.066  18.964  0.00  0.00    +0.000 A 
ENDBRANCH   3   6
BRANCH   1  13
ATOM     13  N   UNL     1       7.024   7.739  17.123  0.00  0.00    +0.000 N 
ATOM     14  H   UNL     1       6.693   8.535  16.585  0.00  0.00    +0.000 HD
BRANCH  13  15
ATOM     15  C   UNL     1       8.084   7.999  18.084  0.00  0.00    +0.000 C 
BRANCH  15  16
ATOM     16  C   UNL     1       8.469   9.482  18.047  0.00  0.00    +0.000 C 
BRANCH  16  17
ATOM     17  C   UNL     1       9.275   9.922  19.278  0.00  0.00    +0.000 C 
BRANCH  17  19
ATOM     18  C   UNL     1       9.280  11.773  20.867  0.00  0.00    +0.000 C 
ATOM     19  N   UNL     1       9.364  11.381  19.458  0.00  0.00    +0.000 NA
ATOM     20  C   UNL     1      10.615  11.889  18.884  0.00  0.00    +0.000 C 
ENDBRANCH  17  19
ENDBRANCH  16  17
ENDBRANCH  15  16
ENDBRANCH  13  15
ENDBRANCH   1  13
BRANCH   5  21
ATOM     21  C   UNL     1       7.046   5.322  15.042  0.00  0.00    +0.000 C 
ATOM     22  N   UNL     1       7.684   5.194  14.073  0.00  0.00    +0.000 NA
ENDBRANCH   5  21
TORSDOF 7
ENDMDL
