MODEL 1
REMARK VINA RESULT:      -8.2      0.000      0.000
REMARK  Name = 
REMARK  5 active torsions:
REMARK  status: ('A' for Active; 'I' for Inactive)
REMARK    1  A    between atoms: C_1  and  C_2
REMARK    2  A    between atoms: C_2  and  C_3
REMARK    3  A    between atoms: C_3  and  C_4
REMARK    4  A    between atoms: N_12  and  C_13
REMARK    5  A    between atoms: C_13  and  C_14
REMARK                            x       y       z     vdW  Elec       q    Type
REMARK                         _______ _______ _______ _____ _____    ______ ____
ROOT
ATOM      1  C   UNL     1       6.217   5.069  16.023  0.00  0.00    +0.000 C 
ATOM      2  C   UNL     1       7.521   4.266  16.212  0.00  0.00    +0.000 C 
ATOM      3  N   UNL     1       7.795   4.363  17.610  0.00  0.00    +0.000 N 
ATOM      4  C   UNL     1       6.699   4.709  18.289  0.00  0.00    +0.000 C 
ATOM      5  O   UNL     1       6.673   4.716  19.509  0.00  0.00    +0.000 OA
ATOM      6  C   UNL     1       5.504   4.981  17.412  0.00  0.00    +0.000 C 
ATOM      7  C   UNL     1       4.895   6.350  17.868  0.00  0.00    +0.000 C 
ATOM      8  C   UNL     1       3.449   6.513  17.449  0.00  0.00    +0.000 C 
ATOM      9  N   UNL     1       2.662   5.357  17.943  0.00  0.00    +0.000 NA
ATOM     10  C   UNL     1       3.058   4.175  17.150  0.00  0.00    +0.000 C 
ATOM     11  C   UNL     1       4.495   3.783  17.506  0.00  0.00    +0.000 C 
ATOM     12  H   UNL     1       8.668   4.059  18.059  0.00  0.00    +0.000 HD
ENDROOT
BRANCH   9  13
ATOM     13  C   UNL     1       2.146   5.291  19.391  0.00  0.00    +0.000 C 
ATOM     14  C   UNL     1       0.857   4.384  19.467  0.00  0.00    +0.000 C 
ATOM     15  C   UNL     1       1.120   2.848  19.530  0.00  0.00    +0.000 C 
ATOM     16  C   UNL     1       1.948   2.478  20.762  0.00  0.00    +0.000 C 
ATOM     17  C   UNL     1       3.273   3.237  20.804  0.00  0.00    +0.000 C 
ATOM     18  C   UNL     1       3.059   4.751  20.596  0.00  0.00    +0.000 C 
BRANCH  13  19
ATOM     19  C   UNL     1       1.805   6.769  19.765  0.00  0.00    +0.000 A 
ATOM     20  C   UNL     1       1.515   7.177  21.087  0.00  0.00    +0.000 A 
ATOM     21  C   UNL     1       1.164   8.502  21.372  0.00  0.00    +0.000 A 
ATOM     22  C   UNL     1       1.095   9.453  20.350  0.00  0.00    +0.000 A 
ATOM     23  C   UNL     1       1.385   9.083  19.043  0.00  0.00    +0.000 A 
ATOM     24  C   UNL     1       1.736   7.767  18.753  0.00  0.00    +0.000 A 
ENDBRANCH  13  19
ENDBRANCH   9  13
BRANCH   1  25
ATOM     25  C   UNL     1       5.430   4.672  14.760  0.00  0.00    +0.000 C 
BRANCH  25  27
ATOM     26  C   UNL     1       5.508   3.490  12.539  0.00  0.00    +0.000 C 
ATOM     27  C   UNL     1       6.312   3.917  13.761  0.00  0.00    +0.000 C 
ENDBRANCH  25  27
ENDBRANCH   1  25
TORSDOF 4
ENDMDL
MODEL 2
REMARK VINA RESULT:      -7.9      1.763      2.824
REMARK  Name = 
REMARK  5 active torsions:
REMARK  status: ('A' for Active; 'I' for Inactive)
REMARK    1  A    between atoms: C_1  and  C_2
REMARK    2  A    between atoms: C_2  and  C_3
REMARK    3  A    between atoms: C_3  and  C_4
REMARK    4  A    between atoms: N_12  and  C_13
REMARK    5  A    between atoms: C_13  and  C_14
REMARK                            x       y       z     vdW  Elec       q    Type
REMARK                         _______ _______ _______ _____ _____    ______ ____
ROOT
ATOM      1  C   UNL     1       6.958   4.640  17.242  0.00  0.00    +0.000 C 
ATOM      2  C   UNL     1       7.277   4.593  15.734  0.00  0.00    +0.000 C 
ATOM      3  N   UNL     1       6.110   4.020  15.144  0.00  0.00    +0.000 N 
ATOM      4  C   UNL     1       5.062   4.120  15.966  0.00  0.00    +0.000 C 
ATOM      5  O   UNL     1       3.935   3.819  15.610  0.00  0.00    +0.000 OA
ATOM      6  C   UNL     1       5.397   4.724  17.305  0.00  0.00    +0.000 C 
ATOM      7  C   UNL     1       4.785   3.791  18.402  0.00  0.00    +0.000 C 
ATOM      8  C   UNL     1       4.597   4.496  19.729  0.00  0.00    +0.000 C 
ATOM      9  N   UNL     1       3.789   5.723  19.522  0.00  0.00    +0.000 NA
ATOM     10  C   UNL     1       4.633   6.696  18.798  0.00  0.00    +0.000 C 
ATOM     11  C   UNL     1       4.867   6.200  17.368  0.00  0.00    +0.000 C 
ATOM     12  H   UNL     1       6.037   3.714  14.166  0.00  0.00    +0.000 HD
ENDROOT
BRANCH   9  13
ATOM     13  C   UNL     1       2.255   5.673  19.428  0.00  0.00    +0.000 C 
ATOM     14  C   UNL     1       1.816   4.943  18.100  0.00  0.00    +0.000 C 
ATOM     15  C   UNL     1       1.827   3.383  18.156  0.00  0.00    +0.000 C 
ATOM     16  C   UNL     1       0.880   2.862  19.237  0.00  0.00    +0.000 C 
ATOM     17  C   UNL     1       1.215   3.436  20.612  0.00  0.00    +0.000 C 
ATOM     18  C   UNL     1       1.356   4.972  20.559  0.00  0.00    +0.000 C 
BRANCH  13  19
ATOM     19  C   UNL     1       1.802   7.168  19.413  0.00  0.00    +0.000 A 
ATOM     20  C   UNL     1       1.422   7.866  20.582  0.00  0.00    +0.000 A 
ATOM     21  C   UNL     1       0.972   9.190  20.517  0.00  0.00    +0.000 A 
ATOM     22  C   UNL     1       0.893   9.853  19.290  0.00  0.00    +0.000 A 
ATOM     23  C   UNL     1       1.269   9.196  18.126  0.00  0.00    +0.000 A 
ATOM     24  C   UNL     1       1.718   7.879  18.183  0.00  0.00    +0.000 A 
ENDBRANCH  13  19
ENDBRANCH   9  13
BRANCH   1  25
ATOM     25  C   UNL     1       7.787   5.686  18.011  0.00  0.00    +0.000 C 
BRANCH  25  27
ATOM     26  C   UNL     1       8.200   8.159  18.241  0.00  0.00    +0.000 C 
ATOM     27  C   UNL     1       7.797   7.038  17.291  0.00  0.00    +0.000 C 
ENDBRANCH  25  27
ENDBRANCH   1  25
TORSDOF 4
ENDMDL
MODEL 3
REMARK VINA RESULT:      -7.9      1.742      2.714
REMARK  Name = 
REMARK  5 active torsions:
REMARK  status: ('A' for Active; 'I' for Inactive)
REMARK    1  A    between atoms: C_1  and  C_2
REMARK    2  A    between atoms: C_2  and  C_3
REMARK    3  A    between atoms: C_3  and  C_4
REMARK    4  A    between atoms: N_12  and  C_13
REMARK    5  A    between atoms: C_13  and  C_14
REMARK                            x       y       z     vdW  Elec       q    Type
REMARK                         _______ _______ _______ _____ _____    ______ ____
ROOT
ATOM      1  C   UNL     1       6.873   5.017  16.800  0.00  0.00    +0.000 C 
ATOM      2  C   UNL     1       7.005   4.186  15.507  0.00  0.00    +0.000 C 
ATOM      3  N   UNL     1       6.003   3.177  15.633  0.00  0.00    +0.000 N 
ATOM      4  C   UNL     1       5.083   3.527  16.535  0.00  0.00    +0.000 C 
ATOM      5  O   UNL     1       4.066   2.875  16.704  0.00  0.00    +0.000 OA
ATOM      6  C   UNL     1       5.381   4.831  17.229  0.00  0.00    +0.000 C 
ATOM      7  C   UNL     1       5.220   4.587  18.767  0.00  0.00    +0.000 C 
ATOM      8  C   UNL     1       4.991   5.870  19.540  0.00  0.00    +0.000 C 
ATOM      9  N   UNL     1       3.829   6.590  18.962  0.00  0.00    +0.000 NA
ATOM     10  C   UNL     1       4.243   7.119  17.646  0.00  0.00    +0.000 C 
ATOM     11  C   UNL     1       4.440   5.955  16.669  0.00  0.00    +0.000 C 
ATOM     12  H   UNL     1       5.907   2.364  15.011  0.00  0.00    +0.000 HD
ENDROOT
BRANCH   9  13
ATOM     13  C   UNL     1       2.384   6.212  19.325  0.00  0.00    +0.000 C 
ATOM     14  C   UNL     1       1.614   5.711  18.042  0.00  0.00    +0.000 C 
ATOM     15  C   UNL     1       1.865   4.223  17.647  0.00  0.00    +0.000 C 
ATOM     16  C   UNL     1       1.441   3.274  18.769  0.00  0.00    +0.000 C 
ATOM     17  C   UNL     1       2.152   3.593  20.082  0.00  0.00    +0.000 C 
ATOM     18  C   UNL     1       2.047   5.093  20.427  0.00  0.00    +0.000 C 
BRANCH  13  19
ATOM     19  C   UNL     1       1.747   7.530  19.872  0.00  0.00    +0.000 A 
ATOM     20  C   UNL     1       1.307   7.672  21.208  0.00  0.00    +0.000 A 
ATOM     21  C   UNL     1       0.695   8.853  21.643  0.00  0.00    +0.000 A 
ATOM     22  C   UNL     1       0.508   9.922  20.762  0.00  0.00    +0.000 A 
ATOM     23  C   UNL     1       0.940   9.815  19.447  0.00  0.00    +0.000 A 
ATOM     24  C   UNL     1       1.550   8.643  19.007  0.00  0.00    +0.000 A 
ENDBRANCH  13  19
ENDBRANCH   9  13
BRANCH   1  25
ATOM     25  C   UNL     1       7.433   6.446  16.669  0.00  0.00    +0.000 C 
BRANCH  25  27
ATOM     26  C   UNL     1       8.110   8.514  17.936  0.00  0.00    +0.000 C 
ATOM     27  C   UNL     1       7.851   7.015  18.028  0.00  0.00    +0.000 C 
ENDBRANCH  25  27
ENDBRANCH   1  25
TORSDOF 4
ENDMDL
MODEL 4
REMARK VINA RESULT:      -7.6      1.694      6.607
REMARK  Name = 
REMARK  5 active torsions:
REMARK  status: ('A' for Active; 'I' for Inactive)
REMARK    1  A    between atoms: C_1  and  C_2
REMARK    2  A    between atoms: C_2  and  C_3
REMARK    3  A    between atoms: C_3  and  C_4
REMARK    4  A    between atoms: N_12  and  C_13
REMARK    5  A    between atoms: C_13  and  C_14
REMARK                            x       y       z     vdW  Elec       q    Type
REMARK                         _______ _______ _______ _____ _____    ______ ____
ROOT
ATOM      1  C   UNL     1       2.260   3.474  19.365  0.00  0.00    +0.000 C 
ATOM      2  C   UNL     1       2.343   3.005  20.832  0.00  0.00    +0.000 C 
ATOM      3  N   UNL     1       3.620   2.372  20.928  0.00  0.00    +0.000 N 
ATOM      4  C   UNL     1       4.419   2.756  19.929  0.00  0.00    +0.000 C 
ATOM      5  O   UNL     1       5.597   2.444  19.892  0.00  0.00    +0.000 OA
ATOM      6  C   UNL     1       3.751   3.672  18.936  0.00  0.00    +0.000 C 
ATOM      7  C   UNL     1       4.051   3.107  17.507  0.00  0.00    +0.000 C 
ATOM      8  C   UNL     1       3.892   4.152  16.423  0.00  0.00    +0.000 C 
ATOM      9  N   UNL     1       4.735   5.329  16.748  0.00  0.00    +0.000 NA
ATOM     10  C   UNL     1       4.116   6.016  17.900  0.00  0.00    +0.000 C 
ATOM     11  C   UNL     1       4.258   5.142  19.150  0.00  0.00    +0.000 C 
ATOM     12  H   UNL     1       3.943   1.822  21.733  0.00  0.00    +0.000 HD
ENDROOT
BRANCH   9  13
ATOM     13  C   UNL     1       6.240   5.355  16.435  0.00  0.00    +0.000 C 
ATOM     14  C   UNL     1       6.802   6.822  16.589  0.00  0.00    +0.000 C 
ATOM     15  C   UNL     1       7.135   7.264  18.048  0.00  0.00    +0.000 C 
ATOM     16  C   UNL     1       8.197   6.356  18.672  0.00  0.00    +0.000 C 
ATOM     17  C   UNL     1       7.772   4.889  18.654  0.00  0.00    +0.000 C 
ATOM     18  C   UNL     1       7.295   4.460  17.251  0.00  0.00    +0.000 C 
BRANCH  13  19
ATOM     19  C   UNL     1       6.353   4.872  14.954  0.00  0.00    +0.000 A 
ATOM     20  C   UNL     1       5.444   3.958  14.374  0.00  0.00    +0.000 A 
ATOM     21  C   UNL     1       5.611   3.511  13.058  0.00  0.00    +0.000 A 
ATOM     22  C   UNL     1       6.683   3.965  12.286  0.00  0.00    +0.000 A 
ATOM     23  C   UNL     1       7.586   4.871  12.825  0.00  0.00    +0.000 A 
ATOM     24  C   UNL     1       7.426   5.320  14.133  0.00  0.00    +0.000 A 
ENDBRANCH  13  19
ENDBRANCH   9  13
BRANCH   1  25
ATOM     25  C   UNL     1       1.267   4.632  19.147  0.00  0.00    +0.000 C 
BRANCH  25  27
ATOM     26  C   UNL     1       1.519   6.703  20.557  0.00  0.00    +0.000 C 
ATOM     27  C   UNL     1       0.898   5.314  20.468  0.00  0.00    +0.000 C 
ENDBRANCH  25  27
ENDBRANCH   1  25
TORSDOF 4
ENDMDL
MODEL 5
REMARK VINA RESULT:      -7.5      7.791      9.964
REMARK  Name = 
REMARK  5 active torsions:
REMARK  status: ('A' for Active; 'I' for Inactive)
REMARK    1  A    between atoms: C_1  and  C_2
REMARK    2  A    between atoms: C_2  and  C_3
REMARK    3  A    between atoms: C_3  and  C_4
REMARK    4  A    between atoms: N_12  and  C_13
REMARK    5  A    between atoms: C_13  and  C_14
REMARK                            x       y       z     vdW  Elec       q    Type
REMARK                         _______ _______ _______ _____ _____    ______ ____
ROOT
ATOM      1  C   UNL     1       1.888  15.858  19.826  0.00  0.00    +0.000 C 
ATOM      2  C   UNL     1       2.099  16.844  20.993  0.00  0.00    +0.000 C 
ATOM      3  N   UNL     1       0.854  16.835  21.691  0.00  0.00    +0.000 N 
ATOM      4  C   UNL     1       0.144  15.746  21.388  0.00  0.00    +0.000 C 
ATOM      5  O   UNL     1      -0.890  15.468  21.973  0.00  0.00    +0.000 OA
ATOM      6  C   UNL     1       0.792  14.871  20.347  0.00  0.00    +0.000 C 
ATOM      7  C   UNL     1      -0.295  14.549  19.267  0.00  0.00    +0.000 C 
ATOM      8  C   UNL     1       0.036  13.313  18.457  0.00  0.00    +0.000 C 
ATOM      9  N   UNL     1       0.268  12.172  19.376  0.00  0.00    +0.000 NA
ATOM     10  C   UNL     1       1.550  12.411  20.069  0.00  0.00    +0.000 C 
ATOM     11  C   UNL     1       1.396  13.593  21.031  0.00  0.00    +0.000 C 
ATOM     12  H   UNL     1       0.598  17.488  22.443  0.00  0.00    +0.000 HD
ENDROOT
BRANCH   9  13
ATOM     13  C   UNL     1      -0.898  11.365  19.972  0.00  0.00    +0.000 C 
ATOM     14  C   UNL     1      -0.370   9.997  20.555  0.00  0.00    +0.000 C 
ATOM     15  C   UNL     1       0.258  10.072  21.981  0.00  0.00    +0.000 C 
ATOM     16  C   UNL     1      -0.755  10.585  23.006  0.00  0.00    +0.000 C 
ATOM     17  C   UNL     1      -1.322  11.947  22.612  0.00  0.00    +0.000 C 
ATOM     18  C   UNL     1      -1.820  11.947  21.152  0.00  0.00    +0.000 C 
BRANCH  13  19
ATOM     19  C   UNL     1      -1.871  11.118  18.776  0.00  0.00    +0.000 A 
ATOM     20  C   UNL     1      -1.574  10.227  17.718  0.00  0.00    +0.000 A 
ATOM     21  C   UNL     1      -2.451  10.074  16.638  0.00  0.00    +0.000 A 
ATOM     22  C   UNL     1      -3.645  10.798  16.585  0.00  0.00    +0.000 A 
ATOM     23  C   UNL     1      -3.968  11.672  17.614  0.00  0.00    +0.000 A 
ATOM     24  C   UNL     1      -3.100  11.830  18.692  0.00  0.00    +0.000 A 
ENDBRANCH  13  19
ENDBRANCH   9  13
BRANCH   1  25
ATOM     25  C   UNL     1       3.202  15.278  19.269  0.00  0.00    +0.000 C 
BRANCH  25  27
ATOM     26  C   UNL     1       2.612  16.726  17.295  0.00  0.00    +0.000 C 
ATOM     27  C   UNL     1       3.289  15.438  17.748  0.00  0.00    +0.000 C 
ENDBRANCH  25  27
ENDBRANCH   1  25
TORSDOF 4
ENDMDL
MODEL 6
REMARK VINA RESULT:      -7.3      1.769      3.070
REMARK  Name = 
REMARK  5 active torsions:
REMARK  status: ('A' for Active; 'I' for Inactive)
REMARK    1  A    between atoms: C_1  and  C_2
REMARK    2  A    between atoms: C_2  and  C_3
REMARK    3  A    between atoms: C_3  and  C_4
REMARK    4  A    between atoms: N_12  and  C_13
REMARK    5  A    between atoms: C_13  and  C_14
REMARK                            x       y       z     vdW  Elec       q    Type
REMARK                         _______ _______ _______ _____ _____    ______ ____
ROOT
ATOM      1  C   UNL     1       6.869   4.545  16.815  0.00  0.00    +0.000 C 
ATOM      2  C   UNL     1       7.099   4.501  15.290  0.00  0.00    +0.000 C 
ATOM      3  N   UNL     1       5.892   3.944  14.768  0.00  0.00    +0.000 N 
ATOM      4  C   UNL     1       4.895   4.052  15.650  0.00  0.00    +0.000 C 
ATOM      5  O   UNL     1       3.746   3.764  15.360  0.00  0.00    +0.000 OA
ATOM      6  C   UNL     1       5.316   4.645  16.969  0.00  0.00    +0.000 C 
ATOM      7  C   UNL     1       4.758   3.714  18.097  0.00  0.00    +0.000 C 
ATOM      8  C   UNL     1       4.657   4.416  19.435  0.00  0.00    +0.000 C 
ATOM      9  N   UNL     1       3.852   5.652  19.281  0.00  0.00    +0.000 NA
ATOM     10  C   UNL     1       4.662   6.619  18.512  0.00  0.00    +0.000 C 
ATOM     11  C   UNL     1       4.806   6.127  17.069  0.00  0.00    +0.000 C 
ATOM     12  H   UNL     1       5.758   3.643  13.794  0.00  0.00    +0.000 HD
ENDROOT
BRANCH   9  13
ATOM     13  C   UNL     1       2.314   5.619  19.277  0.00  0.00    +0.000 C 
ATOM     14  C   UNL     1       1.791   4.848  18.004  0.00  0.00    +0.000 C 
ATOM     15  C   UNL     1       1.788   3.291  18.115  0.00  0.00    +0.000 C 
ATOM     16  C   UNL     1       0.899   2.821  19.266  0.00  0.00    +0.000 C 
ATOM     17  C   UNL     1       1.319   3.439  20.598  0.00  0.00    +0.000 C 
ATOM     18  C   UNL     1       1.474   4.969  20.483  0.00  0.00    +0.000 C 
BRANCH  13  19
ATOM     19  C   UNL     1       1.877   7.118  19.234  0.00  0.00    +0.000 A 
ATOM     20  C   UNL     1       1.803   7.860  18.033  0.00  0.00    +0.000 A 
ATOM     21  C   UNL     1       1.457   9.216  18.045  0.00  0.00    +0.000 A 
ATOM     22  C   UNL     1       1.174   9.867  19.249  0.00  0.00    +0.000 A 
ATOM     23  C   UNL     1       1.229   9.160  20.443  0.00  0.00    +0.000 A 
ATOM     24  C   UNL     1       1.572   7.811  20.439  0.00  0.00    +0.000 A 
ENDBRANCH  13  19
ENDBRANCH   9  13
BRANCH   1  25
ATOM     25  C   UNL     1       7.753   5.579  17.537  0.00  0.00    +0.000 C 
BRANCH  25  27
ATOM     26  C   UNL     1       7.916   5.886  20.031  0.00  0.00    +0.000 C 
ATOM     27  C   UNL     1       8.322   5.020  18.845  0.00  0.00    +0.000 C 
ENDBRANCH  25  27
ENDBRANCH   1  25
TORSDOF 4
ENDMDL
MODEL 7
REMARK VINA RESULT:      -7.3      7.392      9.442
REMARK  Name = 
REMARK  5 active torsions:
REMARK  status: ('A' for Active; 'I' for Inactive)
REMARK    1  A    between atoms: C_1  and  C_2
REMARK    2  A    between atoms: C_2  and  C_3
REMARK    3  A    between atoms: C_3  and  C_4
REMARK    4  A    between atoms: N_12  and  C_13
REMARK    5  A    between atoms: C_13  and  C_14
REMARK                            x       y       z     vdW  Elec       q    Type
REMARK                         _______ _______ _______ _____ _____    ______ ____
ROOT
ATOM      1  C   UNL     1       2.348  15.525  19.711  0.00  0.00    +0.000 C 
ATOM      2  C   UNL     1       3.042  16.109  20.959  0.00  0.00    +0.000 C 
ATOM      3  N   UNL     1       2.096  15.914  22.011  0.00  0.00    +0.000 N 
ATOM      4  C   UNL     1       1.199  14.982  21.681  0.00  0.00    +0.000 C 
ATOM      5  O   UNL     1       0.382  14.561  22.483  0.00  0.00    +0.000 OA
ATOM      6  C   UNL     1       1.366  14.450  20.281  0.00  0.00    +0.000 C 
ATOM      7  C   UNL     1      -0.041  14.491  19.596  0.00  0.00    +0.000 C 
ATOM      8  C   UNL     1      -0.141  13.551  18.413  0.00  0.00    +0.000 C 
ATOM      9  N   UNL     1       0.234  12.181  18.841  0.00  0.00    +0.000 NA
ATOM     10  C   UNL     1       1.690  12.174  19.089  0.00  0.00    +0.000 C 
ATOM     11  C   UNL     1       1.998  13.013  20.333  0.00  0.00    +0.000 C 
ATOM     12  H   UNL     1       2.177  16.315  22.954  0.00  0.00    +0.000 HD
ENDROOT
BRANCH   9  13
ATOM     13  C   UNL     1      -0.768  11.256  19.553  0.00  0.00    +0.000 C 
ATOM     14  C   UNL     1      -0.074   9.888  19.924  0.00  0.00    +0.000 C 
ATOM     15  C   UNL     1       0.783   9.901  21.227  0.00  0.00    +0.000 C 
ATOM     16  C   UNL     1      -0.067  10.267  22.445  0.00  0.00    +0.000 C 
ATOM     17  C   UNL     1      -0.767  11.613  22.266  0.00  0.00    +0.000 C 
ATOM     18  C   UNL     1      -1.506  11.686  20.913  0.00  0.00    +0.000 C 
BRANCH  13  19
ATOM     19  C   UNL     1      -1.916  11.031  18.517  0.00  0.00    +0.000 A 
ATOM     20  C   UNL     1      -1.771  10.203  17.380  0.00  0.00    +0.000 A 
ATOM     21  C   UNL     1      -2.807  10.070  16.449  0.00  0.00    +0.000 A 
ATOM     22  C   UNL     1      -4.014  10.753  16.627  0.00  0.00    +0.000 A 
ATOM     23  C   UNL     1      -4.188  11.565  17.740  0.00  0.00    +0.000 A 
ATOM     24  C   UNL     1      -3.161  11.702  18.670  0.00  0.00    +0.000 A 
ENDBRANCH  13  19
ENDBRANCH   9  13
BRANCH   1  25
ATOM     25  C   UNL     1       3.332  15.115  18.599  0.00  0.00    +0.000 C 
BRANCH  25  27
ATOM     26  C   UNL     1       5.747  14.779  17.969  0.00  0.00    +0.000 C 
ATOM     27  C   UNL     1       4.781  15.128  19.095  0.00  0.00    +0.000 C 
ENDBRANCH  25  27
ENDBRANCH   1  25
TORSDOF 4
ENDMDL
MODEL 8
REMARK VINA RESULT:      -7.2      7.658     10.034
REMARK  Name = 
REMARK  5 active torsions:
REMARK  status: ('A' for Active; 'I' for Inactive)
REMARK    1  A    between atoms: C_1  and  C_2
REMARK    2  A    between atoms: C_2  and  C_3
REMARK    3  A    between atoms: C_3  and  C_4
REMARK    4  A    between atoms: N_12  and  C_13
REMARK    5  A    between atoms: C_13  and  C_14
REMARK                            x       y       z     vdW  Elec       q    Type
REMARK                         _______ _______ _______ _____ _____    ______ ____
ROOT
ATOM      1  C   UNL     1       1.422  16.111  20.446  0.00  0.00    +0.000 C 
ATOM      2  C   UNL     1       1.615  16.909  21.751  0.00  0.00    +0.000 C 
ATOM      3  N   UNL     1       0.439  16.632  22.511  0.00  0.00    +0.000 N 
ATOM      4  C   UNL     1      -0.168  15.528  22.067  0.00  0.00    +0.000 C 
ATOM      5  O   UNL     1      -1.114  15.033  22.656  0.00  0.00    +0.000 OA
ATOM      6  C   UNL     1       0.488  14.924  20.852  0.00  0.00    +0.000 C 
ATOM      7  C   UNL     1      -0.640  14.654  19.801  0.00  0.00    +0.000 C 
ATOM      8  C   UNL     1      -0.239  13.619  18.770  0.00  0.00    +0.000 C 
ATOM      9  N   UNL     1       0.192  12.379  19.461  0.00  0.00    +0.000 NA
ATOM     10  C   UNL     1       1.491  12.657  20.107  0.00  0.00    +0.000 C 
ATOM     11  C   UNL     1       1.283  13.636  21.266  0.00  0.00    +0.000 C 
ATOM     12  H   UNL     1       0.173  17.115  23.379  0.00  0.00    +0.000 HD
ENDROOT
BRANCH   9  13
ATOM     13  C   UNL     1      -0.826  11.348  19.977  0.00  0.00    +0.000 C 
ATOM     14  C   UNL     1      -0.089  10.011  20.376  0.00  0.00    +0.000 C 
ATOM     15  C   UNL     1       0.577  10.005  21.787  0.00  0.00    +0.000 C 
ATOM     16  C   UNL     1      -0.459  10.241  22.888  0.00  0.00    +0.000 C 
ATOM     17  C   UNL     1      -1.227  11.544  22.677  0.00  0.00    +0.000 C 
ATOM     18  C   UNL     1      -1.775  11.645  21.238  0.00  0.00    +0.000 C 
BRANCH  13  19
ATOM     19  C   UNL     1      -1.799  11.106  18.779  0.00  0.00    +0.000 A 
ATOM     20  C   UNL     1      -3.085  11.689  18.707  0.00  0.00    +0.000 A 
ATOM     21  C   UNL     1      -3.946  11.405  17.641  0.00  0.00    +0.000 A 
ATOM     22  C   UNL     1      -3.549  10.538  16.619  0.00  0.00    +0.000 A 
ATOM     23  C   UNL     1      -2.287   9.960  16.658  0.00  0.00    +0.000 A 
ATOM     24  C   UNL     1      -1.425  10.238  17.716  0.00  0.00    +0.000 A 
ENDBRANCH  13  19
ENDBRANCH   9  13
BRANCH   1  25
ATOM     25  C   UNL     1       2.743  15.798  19.718  0.00  0.00    +0.000 C 
BRANCH  25  27
ATOM     26  C   UNL     1       3.847  15.438  17.484  0.00  0.00    +0.000 C 
ATOM     27  C   UNL     1       2.599  15.940  18.200  0.00  0.00    +0.000 C 
ENDBRANCH  25  27
ENDBRANCH   1  25
TORSDOF 4
ENDMDL
MODEL 9
REMARK VINA RESULT:      -7.2      7.775     10.050
REMARK  Name = 
REMARK  5 active torsions:
REMARK  status: ('A' for Active; 'I' for Inactive)
REMARK    1  A    between atoms: C_1  and  C_2
REMARK    2  A    between atoms: C_2  and  C_3
REMARK    3  A    between atoms: C_3  and  C_4
REMARK    4  A    between atoms: N_12  and  C_13
REMARK    5  A    between atoms: C_13  and  C_14
REMARK                            x       y       z     vdW  Elec       q    Type
REMARK                         _______ _______ _______ _____ _____    ______ ____
ROOT
ATOM      1  C   UNL     1       1.752  15.942  19.744  0.00  0.00    +0.000 C 
ATOM      2  C   UNL     1       1.836  17.014  20.851  0.00  0.00    +0.000 C 
ATOM      3  N   UNL     1       0.542  16.998  21.455  0.00  0.00    +0.000 N 
ATOM      4  C   UNL     1      -0.101  15.861  21.179  0.00  0.00    +0.000 C 
ATOM      5  O   UNL     1      -1.164  15.579  21.705  0.00  0.00    +0.000 OA
ATOM      6  C   UNL     1       0.658  14.946  20.252  0.00  0.00    +0.000 C 
ATOM      7  C   UNL     1      -0.331  14.504  19.122  0.00  0.00    +0.000 C 
ATOM      8  C   UNL     1       0.108  13.232  18.428  0.00  0.00    +0.000 C 
ATOM      9  N   UNL     1       0.313  12.167  19.441  0.00  0.00    +0.000 NA
ATOM     10  C   UNL     1       1.529  12.508  20.207  0.00  0.00    +0.000 C 
ATOM     11  C   UNL     1       1.257  13.746  21.068  0.00  0.00    +0.000 C 
ATOM     12  H   UNL     1       0.205  17.689  22.137  0.00  0.00    +0.000 HD
ENDROOT
BRANCH   9  13
ATOM     13  C   UNL     1      -0.863  11.353  20.005  0.00  0.00    +0.000 C 
ATOM     14  C   UNL     1      -0.342   9.984  20.594  0.00  0.00    +0.000 C 
ATOM     15  C   UNL     1       0.252  10.056  22.035  0.00  0.00    +0.000 C 
ATOM     16  C   UNL     1      -0.787  10.559  23.038  0.00  0.00    +0.000 C 
ATOM     17  C   UNL     1      -1.351  11.921  22.637  0.00  0.00    +0.000 C 
ATOM     18  C   UNL     1      -1.815  11.925  21.165  0.00  0.00    +0.000 C 
BRANCH  13  19
ATOM     19  C   UNL     1      -1.806  11.106  18.785  0.00  0.00    +0.000 A 
ATOM     20  C   UNL     1      -3.068  11.730  18.654  0.00  0.00    +0.000 A 
ATOM     21  C   UNL     1      -3.905  11.441  17.569  0.00  0.00    +0.000 A 
ATOM     22  C   UNL     1      -3.507  10.529  16.589  0.00  0.00    +0.000 A 
ATOM     23  C   UNL     1      -2.269   9.909  16.686  0.00  0.00    +0.000 A 
ATOM     24  C   UNL     1      -1.431  10.192  17.762  0.00  0.00    +0.000 A 
ENDBRANCH  13  19
ENDBRANCH   9  13
BRANCH   1  25
ATOM     25  C   UNL     1       3.125  15.383  19.327  0.00  0.00    +0.000 C 
BRANCH  25  27
ATOM     26  C   UNL     1       4.874  14.782  21.036  0.00  0.00    +0.000 C 
ATOM     27  C   UNL     1       4.246  15.911  20.228  0.00  0.00    +0.000 C 
ENDBRANCH  25  27
ENDBRANCH   1  25
TORSDOF 4
ENDMDL
