MODEL 1
REMARK VINA RESULT:      -6.0      0.000      0.000
REMARK  Name = 
REMARK  6 active torsions:
REMARK  status: ('A' for Active; 'I' for Inactive)
REMARK    1  A    between atoms: C_1  and  O_2
REMARK    2  A    between atoms: O_2  and  C_3
REMARK    3  A    between atoms: C_18  and  C_19
REMARK    4  A    between atoms: C_18  and  N_25
REMARK    5  A    between atoms: N_25  and  C_26
REMARK    6  A    between atoms: N_25  and  C_27
REMARK                            x       y       z     vdW  Elec       q    Type
REMARK                         _______ _______ _______ _____ _____    ______ ____
ROOT
ATOM      1  C   UNL     1      -4.829  11.660  17.409  0.00  0.00    +0.000 A 
ATOM      2  C   UNL     1      -4.005  11.363  16.318  0.00  0.00    +0.000 A 
ATOM      3  C   UNL     1      -2.632  11.130  16.472  0.00  0.00    +0.000 A 
ATOM      4  C   UNL     1      -2.092  11.252  17.760  0.00  0.00    +0.000 A 
ATOM      5  N   UNL     1      -0.783  11.162  18.206  0.00  0.00    +0.000 N 
ATOM      6  C   UNL     1      -0.669  11.833  19.414  0.00  0.00    +0.000 A 
ATOM      7  C   UNL     1      -1.973  11.864  19.929  0.00  0.00    +0.000 A 
ATOM      8  C   UNL     1      -2.877  11.586  18.859  0.00  0.00    +0.000 A 
ATOM      9  C   UNL     1      -4.268  11.781  18.682  0.00  0.00    +0.000 A 
ATOM     10  C   UNL     1      -2.327  12.628  21.160  0.00  0.00    +0.000 C 
ATOM     11  C   UNL     1      -1.094  13.404  21.635  0.00  0.00    +0.000 C 
ATOM     12  O   UNL     1      -0.370  13.867  20.480  0.00  0.00    +0.000 OA
ATOM     13  C   UNL     1       0.380  12.889  19.716  0.00  0.00    +0.000 C 
ATOM     14  C   UNL     1       0.860  13.500  18.203  0.00  0.00    +0.000 C 
ATOM     15  C   UNL     1       1.995  14.605  18.394  0.00  0.00    +0.000 C 
ATOM     16  C   UNL     1       2.073  15.658  19.577  0.00  0.00    +0.000 C 
ATOM     17  C   UNL     1       2.305  14.454  20.891  0.00  0.00    +0.000 C 
ATOM     18  C   UNL     1       1.710  12.836  20.559  0.00  0.00    +0.000 C 
ATOM     19  H   UNL     1      -0.013  11.002  17.573  0.00  0.00    +0.000 HD
ENDROOT
BRANCH  16  20
ATOM     20  C   UNL     1       0.638  16.359  19.354  0.00  0.00    +0.000 A 
ATOM     21  C   UNL     1       0.055  16.584  18.109  0.00  0.00    +0.000 A 
ATOM     22  C   UNL     1      -0.779  17.715  17.944  0.00  0.00    +0.000 A 
ATOM     23  C   UNL     1      -1.075  18.573  19.010  0.00  0.00    +0.000 A 
ATOM     24  C   UNL     1      -0.677  18.227  20.289  0.00  0.00    +0.000 A 
ATOM     25  C   UNL     1       0.107  17.089  20.464  0.00  0.00    +0.000 A 
ENDBRANCH  16  20
BRANCH  16  26
ATOM     26  N   UNL     1       3.142  16.709  19.599  0.00  0.00    +0.000 NA
ATOM     27  C   UNL     1       4.210  16.517  18.612  0.00  0.00    +0.000 C 
ATOM     28  C   UNL     1       3.758  16.983  20.893  0.00  0.00    +0.000 C 
ENDBRANCH  16  26
BRANCH   1  30
ATOM     29  C   UNL     1      -6.959  12.325  18.181  0.00  0.00    +0.000 C 
ATOM     30  O   UNL     1      -6.145  11.871  17.107  0.00  0.00    +0.000 OA
ENDBRANCH   1  30
TORSDOF 3
ENDMDL
MODEL 2
REMARK VINA RESULT:      -6.0      8.384     10.981
REMARK  Name = 
REMARK  6 active torsions:
REMARK  status: ('A' for Active; 'I' for Inactive)
REMARK    1  A    between atoms: C_1  and  O_2
REMARK    2  A    between atoms: O_2  and  C_3
REMARK    3  A    between atoms: C_18  and  C_19
REMARK    4  A    between atoms: C_18  and  N_25
REMARK    5  A    between atoms: N_25  and  C_26
REMARK    6  A    between atoms: N_25  and  C_27
REMARK                            x       y       z     vdW  Elec       q    Type
REMARK                         _______ _______ _______ _____ _____    ______ ____
ROOT
ATOM      1  C   UNL     1       6.328  11.915  25.776  0.00  0.00    +0.000 A 
ATOM      2  C   UNL     1       7.544  12.253  26.381  0.00  0.00    +0.000 A 
ATOM      3  C   UNL     1       8.261  13.397  26.009  0.00  0.00    +0.000 A 
ATOM      4  C   UNL     1       7.745  14.178  24.965  0.00  0.00    +0.000 A 
ATOM      5  N   UNL     1       8.258  15.299  24.333  0.00  0.00    +0.000 N 
ATOM      6  C   UNL     1       7.679  15.416  23.079  0.00  0.00    +0.000 A 
ATOM      7  C   UNL     1       6.479  14.698  23.171  0.00  0.00    +0.000 A 
ATOM      8  C   UNL     1       6.560  13.847  24.315  0.00  0.00    +0.000 A 
ATOM      9  C   UNL     1       5.836  12.706  24.735  0.00  0.00    +0.000 A 
ATOM     10  C   UNL     1       5.607  14.444  21.988  0.00  0.00    +0.000 C 
ATOM     11  C   UNL     1       6.301  14.986  20.734  0.00  0.00    +0.000 C 
ATOM     12  O   UNL     1       7.717  14.757  20.858  0.00  0.00    +0.000 OA
ATOM     13  C   UNL     1       8.457  15.592  21.785  0.00  0.00    +0.000 C 
ATOM     14  C   UNL     1      10.008  14.969  22.099  0.00  0.00    +0.000 C 
ATOM     15  C   UNL     1      10.934  15.131  20.810  0.00  0.00    +0.000 C 
ATOM     16  C   UNL     1      10.461  14.976  19.304  0.00  0.00    +0.000 C 
ATOM     17  C   UNL     1       9.340  16.381  19.309  0.00  0.00    +0.000 C 
ATOM     18  C   UNL     1       8.716  16.855  20.880  0.00  0.00    +0.000 C 
ATOM     19  H   UNL     1       9.156  15.687  24.581  0.00  0.00    +0.000 HD
ENDROOT
BRANCH  16  20
ATOM     20  C   UNL     1       9.887  13.471  19.399  0.00  0.00    +0.000 A 
ATOM     21  C   UNL     1      10.421  12.473  20.210  0.00  0.00    +0.000 A 
ATOM     22  C   UNL     1      10.341  11.129  19.775  0.00  0.00    +0.000 A 
ATOM     23  C   UNL     1       9.691  10.778  18.586  0.00  0.00    +0.000 A 
ATOM     24  C   UNL     1       8.974  11.739  17.897  0.00  0.00    +0.000 A 
ATOM     25  C   UNL     1       9.011  13.057  18.345  0.00  0.00    +0.000 A 
ENDBRANCH  16  20
BRANCH  16  26
ATOM     26  N   UNL     1      11.446  15.062  18.177  0.00  0.00    +0.000 NA
ATOM     27  C   UNL     1      10.865  15.438  16.883  0.00  0.00    +0.000 C 
ATOM     28  C   UNL     1      12.304  13.900  17.974  0.00  0.00    +0.000 C 
ENDBRANCH  16  26
BRANCH   1  30
ATOM     29  C   UNL     1       4.555  10.944  26.995  0.00  0.00    +0.000 C 
ATOM     30  O   UNL     1       5.745  10.768  26.235  0.00  0.00    +0.000 OA
ENDBRANCH   1  30
TORSDOF 3
ENDMDL
MODEL 3
REMARK VINA RESULT:      -6.0      3.490      6.830
REMARK  Name = 
REMARK  6 active torsions:
REMARK  status: ('A' for Active; 'I' for Inactive)
REMARK    1  A    between atoms: C_1  and  O_2
REMARK    2  A    between atoms: O_2  and  C_3
REMARK    3  A    between atoms: C_18  and  C_19
REMARK    4  A    between atoms: C_18  and  N_25
REMARK    5  A    between atoms: N_25  and  C_26
REMARK    6  A    between atoms: N_25  and  C_27
REMARK                            x       y       z     vdW  Elec       q    Type
REMARK                         _______ _______ _______ _____ _____    ______ ____
ROOT
ATOM      1  C   UNL     1       0.949  10.076  19.394  0.00  0.00    +0.000 A 
ATOM      2  C   UNL     1       1.176  11.218  18.619  0.00  0.00    +0.000 A 
ATOM      3  C   UNL     1       0.913  12.505  19.106  0.00  0.00    +0.000 A 
ATOM      4  C   UNL     1       0.363  12.614  20.390  0.00  0.00    +0.000 A 
ATOM      5  N   UNL     1      -0.071  13.723  21.099  0.00  0.00    +0.000 N 
ATOM      6  C   UNL     1      -0.972  13.315  22.071  0.00  0.00    +0.000 A 
ATOM      7  C   UNL     1      -0.681  11.960  22.282  0.00  0.00    +0.000 A 
ATOM      8  C   UNL     1       0.087  11.496  21.171  0.00  0.00    +0.000 A 
ATOM      9  C   UNL     1       0.397  10.209  20.669  0.00  0.00    +0.000 A 
ATOM     10  C   UNL     1      -1.521  11.089  23.153  0.00  0.00    +0.000 C 
ATOM     11  C   UNL     1      -2.735  11.890  23.634  0.00  0.00    +0.000 C 
ATOM     12  O   UNL     1      -3.165  12.757  22.567  0.00  0.00    +0.000 OA
ATOM     13  C   UNL     1      -2.351  13.921  22.274  0.00  0.00    +0.000 C 
ATOM     14  C   UNL     1      -2.764  14.622  20.780  0.00  0.00    +0.000 C 
ATOM     15  C   UNL     1      -4.193  15.325  20.883  0.00  0.00    +0.000 C 
ATOM     16  C   UNL     1      -5.431  14.789  21.717  0.00  0.00    +0.000 C 
ATOM     17  C   UNL     1      -4.661  14.958  23.332  0.00  0.00    +0.000 C 
ATOM     18  C   UNL     1      -2.906  14.929  23.349  0.00  0.00    +0.000 C 
ATOM     19  H   UNL     1      -0.045  14.652  20.705  0.00  0.00    +0.000 HD
ENDROOT
BRANCH  16  20
ATOM     20  C   UNL     1      -5.565  13.340  21.022  0.00  0.00    +0.000 A 
ATOM     21  C   UNL     1      -5.120  13.037  19.737  0.00  0.00    +0.000 A 
ATOM     22  C   UNL     1      -5.822  12.063  18.988  0.00  0.00    +0.000 A 
ATOM     23  C   UNL     1      -6.907  11.362  19.526  0.00  0.00    +0.000 A 
ATOM     24  C   UNL     1      -7.208  11.505  20.868  0.00  0.00    +0.000 A 
ATOM     25  C   UNL     1      -6.492  12.429  21.623  0.00  0.00    +0.000 A 
ENDBRANCH  16  20
BRANCH  16  26
ATOM     26  N   UNL     1      -6.754  15.492  21.662  0.00  0.00    +0.000 NA
ATOM     27  C   UNL     1      -7.324  15.620  20.316  0.00  0.00    +0.000 C 
ATOM     28  C   UNL     1      -6.827  16.793  22.317  0.00  0.00    +0.000 C 
ENDBRANCH  16  26
BRANCH   1  30
ATOM     29  C   UNL     1       2.304   8.930  17.836  0.00  0.00    +0.000 C 
ATOM     30  O   UNL     1       1.245   8.888  18.784  0.00  0.00    +0.000 OA
ENDBRANCH   1  30
TORSDOF 3
ENDMDL
MODEL 4
REMARK VINA RESULT:      -6.0      1.667      2.360
REMARK  Name = 
REMARK  6 active torsions:
REMARK  status: ('A' for Active; 'I' for Inactive)
REMARK    1  A    between atoms: C_1  and  O_2
REMARK    2  A    between atoms: O_2  and  C_3
REMARK    3  A    between atoms: C_18  and  C_19
REMARK    4  A    between atoms: C_18  and  N_25
REMARK    5  A    between atoms: N_25  and  C_26
REMARK    6  A    between atoms: N_25  and  C_27
REMARK                            x       y       z     vdW  Elec       q    Type
REMARK                         _______ _______ _______ _____ _____    ______ ____
ROOT
ATOM      1  C   UNL     1      -3.402  10.818  16.692  0.00  0.00    +0.000 A 
ATOM      2  C   UNL     1      -2.094  10.325  16.658  0.00  0.00    +0.000 A 
ATOM      3  C   UNL     1      -1.244  10.408  17.769  0.00  0.00    +0.000 A 
ATOM      4  C   UNL     1      -1.732  11.051  18.914  0.00  0.00    +0.000 A 
ATOM      5  N   UNL     1      -1.113  11.353  20.117  0.00  0.00    +0.000 N 
ATOM      6  C   UNL     1      -1.791  12.400  20.724  0.00  0.00    +0.000 A 
ATOM      7  C   UNL     1      -3.075  12.368  20.163  0.00  0.00    +0.000 A 
ATOM      8  C   UNL     1      -3.014  11.589  18.967  0.00  0.00    +0.000 A 
ATOM      9  C   UNL     1      -3.865  11.459  17.843  0.00  0.00    +0.000 A 
ATOM     10  C   UNL     1      -4.091  13.425  20.433  0.00  0.00    +0.000 C 
ATOM     11  C   UNL     1      -3.450  14.524  21.287  0.00  0.00    +0.000 C 
ATOM     12  O   UNL     1      -2.084  14.693  20.867  0.00  0.00    +0.000 OA
ATOM     13  C   UNL     1      -1.130  13.667  21.241  0.00  0.00    +0.000 C 
ATOM     14  C   UNL     1       0.326  13.808  20.373  0.00  0.00    +0.000 C 
ATOM     15  C   UNL     1       1.130  15.097  20.859  0.00  0.00    +0.000 C 
ATOM     16  C   UNL     1       0.488  16.483  21.286  0.00  0.00    +0.000 C 
ATOM     17  C   UNL     1      -0.388  15.854  22.724  0.00  0.00    +0.000 C 
ATOM     18  C   UNL     1      -0.766  14.140  22.699  0.00  0.00    +0.000 C 
ATOM     19  H   UNL     1      -0.144  11.130  20.290  0.00  0.00    +0.000 HD
ENDROOT
BRANCH  16  20
ATOM     20  C   UNL     1      -0.307  16.798  19.918  0.00  0.00    +0.000 A 
ATOM     21  C   UNL     1       0.139  16.440  18.647  0.00  0.00    +0.000 A 
ATOM     22  C   UNL     1      -0.196  17.271  17.551  0.00  0.00    +0.000 A 
ATOM     23  C   UNL     1      -1.006  18.401  17.706  0.00  0.00    +0.000 A 
ATOM     24  C   UNL     1      -1.625  18.631  18.921  0.00  0.00    +0.000 A 
ATOM     25  C   UNL     1      -1.335  17.791  19.993  0.00  0.00    +0.000 A 
ENDBRANCH  16  20
BRANCH  16  26
ATOM     26  N   UNL     1       1.355  17.654  21.638  0.00  0.00    +0.000 NA
ATOM     27  C   UNL     1       2.284  18.068  20.581  0.00  0.00    +0.000 C 
ATOM     28  C   UNL     1       2.098  17.559  22.890  0.00  0.00    +0.000 C 
ENDBRANCH  16  26
BRANCH   1  30
ATOM     29  C   UNL     1      -3.403  10.093  14.445  0.00  0.00    +0.000 C 
ATOM     30  O   UNL     1      -4.111  10.675  15.532  0.00  0.00    +0.000 OA
ENDBRANCH   1  30
TORSDOF 3
ENDMDL
MODEL 5
REMARK VINA RESULT:      -5.8      8.606     11.469
REMARK  Name = 
REMARK  6 active torsions:
REMARK  status: ('A' for Active; 'I' for Inactive)
REMARK    1  A    between atoms: C_1  and  O_2
REMARK    2  A    between atoms: O_2  and  C_3
REMARK    3  A    between atoms: C_18  and  C_19
REMARK    4  A    between atoms: C_18  and  N_25
REMARK    5  A    between atoms: N_25  and  C_26
REMARK    6  A    between atoms: N_25  and  C_27
REMARK                            x       y       z     vdW  Elec       q    Type
REMARK                         _______ _______ _______ _____ _____    ______ ____
ROOT
ATOM      1  C   UNL     1       7.522  13.472  26.091  0.00  0.00    +0.000 A 
ATOM      2  C   UNL     1       8.741  14.093  26.385  0.00  0.00    +0.000 A 
ATOM      3  C   UNL     1       9.231  15.158  25.619  0.00  0.00    +0.000 A 
ATOM      4  C   UNL     1       8.479  15.558  24.505  0.00  0.00    +0.000 A 
ATOM      5  N   UNL     1       8.739  16.508  23.530  0.00  0.00    +0.000 N 
ATOM      6  C   UNL     1       7.997  16.209  22.398  0.00  0.00    +0.000 A 
ATOM      7  C   UNL     1       6.936  15.420  22.864  0.00  0.00    +0.000 A 
ATOM      8  C   UNL     1       7.284  14.934  24.161  0.00  0.00    +0.000 A 
ATOM      9  C   UNL     1       6.793  13.884  24.973  0.00  0.00    +0.000 A 
ATOM     10  C   UNL     1       5.970  14.755  21.942  0.00  0.00    +0.000 C 
ATOM     11  C   UNL     1       6.416  14.997  20.496  0.00  0.00    +0.000 C 
ATOM     12  O   UNL     1       7.854  14.966  20.448  0.00  0.00    +0.000 OA
ATOM     13  C   UNL     1       8.573  16.100  20.996  0.00  0.00    +0.000 C 
ATOM     14  C   UNL     1      10.226  15.759  21.208  0.00  0.00    +0.000 C 
ATOM     15  C   UNL     1      10.950  15.655  19.790  0.00  0.00    +0.000 C 
ATOM     16  C   UNL     1      10.320  15.037  18.472  0.00  0.00    +0.000 C 
ATOM     17  C   UNL     1       9.015  16.260  18.291  0.00  0.00    +0.000 C 
ATOM     18  C   UNL     1       8.529  17.081  19.764  0.00  0.00    +0.000 C 
ATOM     19  H   UNL     1       9.594  17.044  23.522  0.00  0.00    +0.000 HD
ENDROOT
BRANCH  16  20
ATOM     20  C   UNL     1       9.990  13.566  19.044  0.00  0.00    +0.000 A 
ATOM     21  C   UNL     1      10.798  12.868  19.940  0.00  0.00    +0.000 A 
ATOM     22  C   UNL     1      10.829  11.455  19.866  0.00  0.00    +0.000 A 
ATOM     23  C   UNL     1      10.029  10.747  18.962  0.00  0.00    +0.000 A 
ATOM     24  C   UNL     1       9.071  11.425  18.231  0.00  0.00    +0.000 A 
ATOM     25  C   UNL     1       9.004  12.812  18.331  0.00  0.00    +0.000 A 
ENDBRANCH  16  20
BRANCH  16  26
ATOM     26  N   UNL     1      11.134  14.912  17.219  0.00  0.00    +0.000 NA
ATOM     27  C   UNL     1      11.647  13.563  16.954  0.00  0.00    +0.000 C 
ATOM     28  C   UNL     1      12.232  15.859  17.060  0.00  0.00    +0.000 C 
ENDBRANCH  16  26
BRANCH   1  30
ATOM     29  C   UNL     1       6.065  11.660  26.499  0.00  0.00    +0.000 C 
ATOM     30  O   UNL     1       7.176  12.442  26.920  0.00  0.00    +0.000 OA
ENDBRANCH   1  30
TORSDOF 3
ENDMDL
MODEL 6
REMARK VINA RESULT:      -5.7      4.106      6.172
REMARK  Name = 
REMARK  6 active torsions:
REMARK  status: ('A' for Active; 'I' for Inactive)
REMARK    1  A    between atoms: C_1  and  O_2
REMARK    2  A    between atoms: O_2  and  C_3
REMARK    3  A    between atoms: C_18  and  C_19
REMARK    4  A    between atoms: C_18  and  N_25
REMARK    5  A    between atoms: N_25  and  C_26
REMARK    6  A    between atoms: N_25  and  C_27
REMARK                            x       y       z     vdW  Elec       q    Type
REMARK                         _______ _______ _______ _____ _____    ______ ____
ROOT
ATOM      1  C   UNL     1      -3.406  10.661  15.920  0.00  0.00    +0.000 A 
ATOM      2  C   UNL     1      -3.103   9.901  17.054  0.00  0.00    +0.000 A 
ATOM      3  C   UNL     1      -3.904   9.936  18.203  0.00  0.00    +0.000 A 
ATOM      4  C   UNL     1      -5.005  10.803  18.201  0.00  0.00    +0.000 A 
ATOM      5  N   UNL     1      -5.917  11.111  19.198  0.00  0.00    +0.000 N 
ATOM      6  C   UNL     1      -6.489  12.345  18.922  0.00  0.00    +0.000 A 
ATOM      7  C   UNL     1      -6.317  12.518  17.542  0.00  0.00    +0.000 A 
ATOM      8  C   UNL     1      -5.310  11.603  17.105  0.00  0.00    +0.000 A 
ATOM      9  C   UNL     1      -4.506  11.521  15.943  0.00  0.00    +0.000 A 
ATOM     10  C   UNL     1      -6.662  13.792  16.848  0.00  0.00    +0.000 C 
ATOM     11  C   UNL     1      -7.096  14.825  17.892  0.00  0.00    +0.000 C 
ATOM     12  O   UNL     1      -6.294  14.648  19.074  0.00  0.00    +0.000 OA
ATOM     13  C   UNL     1      -6.569  13.496  19.911  0.00  0.00    +0.000 C 
ATOM     14  C   UNL     1      -5.323  13.217  21.036  0.00  0.00    +0.000 C 
ATOM     15  C   UNL     1      -5.331  14.356  22.153  0.00  0.00    +0.000 C 
ATOM     16  C   UNL     1      -5.663  15.888  21.912  0.00  0.00    +0.000 C 
ATOM     17  C   UNL     1      -7.374  15.640  21.424  0.00  0.00    +0.000 C 
ATOM     18  C   UNL     1      -7.761  14.055  20.775  0.00  0.00    +0.000 C 
ATOM     19  H   UNL     1      -5.854  10.710  20.122  0.00  0.00    +0.000 HD
ENDROOT
BRANCH  16  20
ATOM     20  C   UNL     1      -4.532  16.195  20.804  0.00  0.00    +0.000 A 
ATOM     21  C   UNL     1      -3.183  15.874  20.943  0.00  0.00    +0.000 A 
ATOM     22  C   UNL     1      -2.219  16.709  20.329  0.00  0.00    +0.000 A 
ATOM     23  C   UNL     1      -2.590  17.806  19.544  0.00  0.00    +0.000 A 
ATOM     24  C   UNL     1      -3.924  17.993  19.227  0.00  0.00    +0.000 A 
ATOM     25  C   UNL     1      -4.874  17.148  19.792  0.00  0.00    +0.000 A 
ENDBRANCH  16  20
BRANCH  16  26
ATOM     26  N   UNL     1      -5.547  16.882  23.029  0.00  0.00    +0.000 NA
ATOM     27  C   UNL     1      -5.136  18.227  22.610  0.00  0.00    +0.000 C 
ATOM     28  C   UNL     1      -4.729  16.487  24.169  0.00  0.00    +0.000 C 
ENDBRANCH  16  26
BRANCH   1  30
ATOM     29  C   UNL     1      -3.047   9.891  13.717  0.00  0.00    +0.000 C 
ATOM     30  O   UNL     1      -2.531  10.531  14.878  0.00  0.00    +0.000 OA
ENDBRANCH   1  30
TORSDOF 3
ENDMDL
MODEL 7
REMARK VINA RESULT:      -5.7      3.362      7.444
REMARK  Name = 
REMARK  6 active torsions:
REMARK  status: ('A' for Active; 'I' for Inactive)
REMARK    1  A    between atoms: C_1  and  O_2
REMARK    2  A    between atoms: O_2  and  C_3
REMARK    3  A    between atoms: C_18  and  C_19
REMARK    4  A    between atoms: C_18  and  N_25
REMARK    5  A    between atoms: N_25  and  C_26
REMARK    6  A    between atoms: N_25  and  C_27
REMARK                            x       y       z     vdW  Elec       q    Type
REMARK                         _______ _______ _______ _____ _____    ______ ____
ROOT
ATOM      1  C   UNL     1       1.483  17.793  17.852  0.00  0.00    +0.000 A 
ATOM      2  C   UNL     1       0.288  17.930  17.139  0.00  0.00    +0.000 A 
ATOM      3  C   UNL     1      -0.941  18.115  17.786  0.00  0.00    +0.000 A 
ATOM      4  C   UNL     1      -0.946  18.109  19.187  0.00  0.00    +0.000 A 
ATOM      5  N   UNL     1      -1.994  18.186  20.091  0.00  0.00    +0.000 N 
ATOM      6  C   UNL     1      -1.587  17.647  21.302  0.00  0.00    +0.000 A 
ATOM      7  C   UNL     1      -0.189  17.732  21.280  0.00  0.00    +0.000 A 
ATOM      8  C   UNL     1       0.220  17.933  19.926  0.00  0.00    +0.000 A 
ATOM      9  C   UNL     1       1.454  17.785  19.248  0.00  0.00    +0.000 A 
ATOM     10  C   UNL     1       0.665  17.123  22.340  0.00  0.00    +0.000 C 
ATOM     11  C   UNL     1      -0.228  16.348  23.314  0.00  0.00    +0.000 C 
ATOM     12  O   UNL     1      -1.291  15.728  22.566  0.00  0.00    +0.000 OA
ATOM     13  C   UNL     1      -2.354  16.582  22.069  0.00  0.00    +0.000 C 
ATOM     14  C   UNL     1      -3.314  15.788  20.911  0.00  0.00    +0.000 C 
ATOM     15  C   UNL     1      -4.196  14.659  21.612  0.00  0.00    +0.000 C 
ATOM     16  C   UNL     1      -3.735  13.739  22.819  0.00  0.00    +0.000 C 
ATOM     17  C   UNL     1      -3.556  15.067  24.016  0.00  0.00    +0.000 C 
ATOM     18  C   UNL     1      -3.269  16.664  23.348  0.00  0.00    +0.000 C 
ATOM     19  H   UNL     1      -2.955  18.241  19.789  0.00  0.00    +0.000 HD
ENDROOT
BRANCH  16  20
ATOM     20  C   UNL     1      -2.435  13.085  22.123  0.00  0.00    +0.000 A 
ATOM     21  C   UNL     1      -2.327  12.801  20.762  0.00  0.00    +0.000 A 
ATOM     22  C   UNL     1      -1.539  11.697  20.360  0.00  0.00    +0.000 A 
ATOM     23  C   UNL     1      -0.825  10.927  21.285  0.00  0.00    +0.000 A 
ATOM     24  C   UNL     1      -0.757  11.341  22.603  0.00  0.00    +0.000 A 
ATOM     25  C   UNL     1      -1.494  12.453  22.997  0.00  0.00    +0.000 A 
ENDBRANCH  16  20
BRANCH  16  26
ATOM     26  N   UNL     1      -4.624  12.648  23.335  0.00  0.00    +0.000 NA
ATOM     27  C   UNL     1      -6.037  12.784  22.966  0.00  0.00    +0.000 C 
ATOM     28  C   UNL     1      -4.548  12.370  24.765  0.00  0.00    +0.000 C 
ENDBRANCH  16  26
BRANCH   1  30
ATOM     29  C   UNL     1       3.468  16.563  17.504  0.00  0.00    +0.000 C 
ATOM     30  O   UNL     1       2.602  17.611  17.088  0.00  0.00    +0.000 OA
ENDBRANCH   1  30
TORSDOF 3
ENDMDL
MODEL 8
REMARK VINA RESULT:      -5.7      1.705      2.393
REMARK  Name = 
REMARK  6 active torsions:
REMARK  status: ('A' for Active; 'I' for Inactive)
REMARK    1  A    between atoms: C_1  and  O_2
REMARK    2  A    between atoms: O_2  and  C_3
REMARK    3  A    between atoms: C_18  and  C_19
REMARK    4  A    between atoms: C_18  and  N_25
REMARK    5  A    between atoms: N_25  and  C_26
REMARK    6  A    between atoms: N_25  and  C_27
REMARK                            x       y       z     vdW  Elec       q    Type
REMARK                         _______ _______ _______ _____ _____    ______ ____
ROOT
ATOM      1  C   UNL     1      -2.539  11.336  18.456  0.00  0.00    +0.000 A 
ATOM      2  C   UNL     1      -1.545  10.655  17.745  0.00  0.00    +0.000 A 
ATOM      3  C   UNL     1      -0.219  10.605  18.194  0.00  0.00    +0.000 A 
ATOM      4  C   UNL     1       0.099  11.307  19.365  0.00  0.00    +0.000 A 
ATOM      5  N   UNL     1       1.314  11.507  20.000  0.00  0.00    +0.000 N 
ATOM      6  C   UNL     1       1.226  12.639  20.796  0.00  0.00    +0.000 A 
ATOM      7  C   UNL     1      -0.145  12.800  21.040  0.00  0.00    +0.000 A 
ATOM      8  C   UNL     1      -0.858  12.027  20.073  0.00  0.00    +0.000 A 
ATOM      9  C   UNL     1      -2.199  12.031  19.618  0.00  0.00    +0.000 A 
ATOM     10  C   UNL     1      -0.696  13.995  21.742  0.00  0.00    +0.000 C 
ATOM     11  C   UNL     1       0.444  14.981  22.014  0.00  0.00    +0.000 C 
ATOM     12  O   UNL     1       1.354  14.950  20.899  0.00  0.00    +0.000 OA
ATOM     13  C   UNL     1       2.216  13.792  20.764  0.00  0.00    +0.000 C 
ATOM     14  C   UNL     1       2.947  13.721  19.229  0.00  0.00    +0.000 C 
ATOM     15  C   UNL     1       4.040  14.875  19.091  0.00  0.00    +0.000 C 
ATOM     16  C   UNL     1       3.924  16.338  19.692  0.00  0.00    +0.000 C 
ATOM     17  C   UNL     1       3.926  15.837  21.418  0.00  0.00    +0.000 C 
ATOM     18  C   UNL     1       3.386  14.198  21.738  0.00  0.00    +0.000 C 
ATOM     19  H   UNL     1       2.177  11.142  19.627  0.00  0.00    +0.000 HD
ENDROOT
BRANCH  16  20
ATOM     20  C   UNL     1       2.550  16.775  18.968  0.00  0.00    +0.000 A 
ATOM     21  C   UNL     1       2.333  16.725  17.592  0.00  0.00    +0.000 A 
ATOM     22  C   UNL     1       1.471  17.681  17.006  0.00  0.00    +0.000 A 
ATOM     23  C   UNL     1       0.792  18.631  17.778  0.00  0.00    +0.000 A 
ATOM     24  C   UNL     1       0.837  18.540  19.158  0.00  0.00    +0.000 A 
ATOM     25  C   UNL     1       1.648  17.572  19.742  0.00  0.00    +0.000 A 
ENDBRANCH  16  20
BRANCH  16  26
ATOM     26  N   UNL     1       4.980  17.366  19.416  0.00  0.00    +0.000 NA
ATOM     27  C   UNL     1       6.211  16.835  18.820  0.00  0.00    +0.000 C 
ATOM     28  C   UNL     1       5.347  18.235  20.529  0.00  0.00    +0.000 C 
ENDBRANCH  16  26
BRANCH   1  30
ATOM     29  C   UNL     1      -3.818  11.238  16.474  0.00  0.00    +0.000 C 
ATOM     30  O   UNL     1      -3.785  11.305  17.894  0.00  0.00    +0.000 OA
ENDBRANCH   1  30
TORSDOF 3
ENDMDL
MODEL 9
REMARK VINA RESULT:      -5.6      4.428      8.907
REMARK  Name = 
REMARK  6 active torsions:
REMARK  status: ('A' for Active; 'I' for Inactive)
REMARK    1  A    between atoms: C_1  and  O_2
REMARK    2  A    between atoms: O_2  and  C_3
REMARK    3  A    between atoms: C_18  and  C_19
REMARK    4  A    between atoms: C_18  and  N_25
REMARK    5  A    between atoms: N_25  and  C_26
REMARK    6  A    between atoms: N_25  and  C_27
REMARK                            x       y       z     vdW  Elec       q    Type
REMARK                         _______ _______ _______ _____ _____    ______ ____
ROOT
ATOM      1  C   UNL     1       9.593  11.776  19.242  0.00  0.00    +0.000 A 
ATOM      2  C   UNL     1       9.761  12.494  18.053  0.00  0.00    +0.000 A 
ATOM      3  C   UNL     1       9.395  13.842  17.946  0.00  0.00    +0.000 A 
ATOM      4  C   UNL     1       8.802  14.445  19.064  0.00  0.00    +0.000 A 
ATOM      5  N   UNL     1       8.272  15.714  19.235  0.00  0.00    +0.000 N 
ATOM      6  C   UNL     1       7.374  15.691  20.292  0.00  0.00    +0.000 A 
ATOM      7  C   UNL     1       7.754  14.581  21.059  0.00  0.00    +0.000 A 
ATOM      8  C   UNL     1       8.584  13.747  20.248  0.00  0.00    +0.000 A 
ATOM      9  C   UNL     1       8.996  12.397  20.341  0.00  0.00    +0.000 A 
ATOM     10  C   UNL     1       6.952  14.102  22.222  0.00  0.00    +0.000 C 
ATOM     11  C   UNL     1       5.672  14.937  22.320  0.00  0.00    +0.000 C 
ATOM     12  O   UNL     1       5.213  15.233  20.988  0.00  0.00    +0.000 OA
ATOM     13  C   UNL     1       5.951  16.220  20.223  0.00  0.00    +0.000 C 
ATOM     14  C   UNL     1       5.532  16.186  18.575  0.00  0.00    +0.000 C 
ATOM     15  C   UNL     1       4.055  16.756  18.374  0.00  0.00    +0.000 C 
ATOM     16  C   UNL     1       2.835  16.534  19.363  0.00  0.00    +0.000 C 
ATOM     17  C   UNL     1       3.545  17.431  20.749  0.00  0.00    +0.000 C 
ATOM     18  C   UNL     1       5.297  17.544  20.769  0.00  0.00    +0.000 C 
ATOM     19  H   UNL     1       8.244  16.386  18.483  0.00  0.00    +0.000 HD
ENDROOT
BRANCH  16  20
ATOM     20  C   UNL     1       2.822  14.921  19.352  0.00  0.00    +0.000 A 
ATOM     21  C   UNL     1       2.870  14.139  18.199  0.00  0.00    +0.000 A 
ATOM     22  C   UNL     1       2.209  12.888  18.200  0.00  0.00    +0.000 A 
ATOM     23  C   UNL     1       1.564  12.397  19.341  0.00  0.00    +0.000 A 
ATOM     24  C   UNL     1       1.705  13.070  20.541  0.00  0.00    +0.000 A 
ATOM     25  C   UNL     1       2.393  14.280  20.557  0.00  0.00    +0.000 A 
ENDBRANCH  16  20
BRANCH  16  26
ATOM     26  N   UNL     1       1.468  17.044  19.019  0.00  0.00    +0.000 NA
ATOM     27  C   UNL     1       0.370  16.131  19.359  0.00  0.00    +0.000 C 
ATOM     28  C   UNL     1       1.271  17.507  17.650  0.00  0.00    +0.000 C 
ENDBRANCH  16  26
BRANCH   1  30
ATOM     29  C   UNL     1       8.958   9.523  18.931  0.00  0.00    +0.000 C 
ATOM     30  O   UNL     1       9.988  10.468  19.195  0.00  0.00    +0.000 OA
ENDBRANCH   1  30
TORSDOF 3
ENDMDL
