MODEL 1
REMARK VINA RESULT:      -8.4      0.000      0.000
REMARK  Name = 
REMARK  10 active torsions:
REMARK  status: ('A' for Active; 'I' for Inactive)
REMARK    1  A    between atoms: C_1  and  O_2
REMARK    2  A    between atoms: O_2  and  C_3
REMARK    3  A    between atoms: C_6  and  C_7
REMARK    4  A    between atoms: C_9  and  C_10
REMARK    5  A    between atoms: C_10  and  C_11
REMARK    6  A    between atoms: C_11  and  C_12
REMARK    7  A    between atoms: C_12  and  C_14
REMARK    8  A    between atoms: C_17  and  C_18
REMARK    9  A    between atoms: C_18  and  C_19
REMARK   10  A    between atoms: C_28  and  C_29
REMARK                            x       y       z     vdW  Elec       q    Type
REMARK                         _______ _______ _______ _____ _____    ______ ____
ROOT
ATOM      1  C   UNL     1       0.989   9.037  20.404  0.00  0.00    +0.000 C 
ATOM      2  O   UNL     1       1.126   9.199  19.195  0.00  0.00    +0.000 OA
ENDROOT
BRANCH   1   3
ATOM      3  C   UNL     1       0.134   9.985  21.194  0.00  0.00    +0.000 A 
ATOM      4  C   UNL     1      -0.178   9.751  22.538  0.00  0.00    +0.000 A 
ATOM      5  C   UNL     1      -0.979  10.651  23.252  0.00  0.00    +0.000 A 
ATOM      6  C   UNL     1      -1.488  11.799  22.636  0.00  0.00    +0.000 A 
ATOM      7  C   UNL     1      -1.179  12.031  21.289  0.00  0.00    +0.000 A 
ATOM      8  C   UNL     1      -0.372  11.135  20.574  0.00  0.00    +0.000 A 
BRANCH   6   9
ATOM      9  C   UNL     1      -2.389  12.742  23.412  0.00  0.00    +0.000 C 
BRANCH   9  10
ATOM     10  C   UNL     1      -3.851  12.847  22.961  0.00  0.00    +0.000 C 
ATOM     11  S   UNL     1      -4.263  14.407  22.112  0.00  0.00    +0.000 S 
ATOM     12  C   UNL     1      -5.444  14.850  23.315  0.00  0.00    +0.000 C 
ATOM     13  O   UNL     1      -5.946  15.956  23.402  0.00  0.00    +0.000 OA
ATOM     14  N   UNL     1      -5.688  13.807  24.142  0.00  0.00    +0.000 N 
ATOM     15  C   UNL     1      -4.826  12.753  24.115  0.00  0.00    +0.000 C 
ATOM     16  O   UNL     1      -4.845  11.853  24.944  0.00  0.00    +0.000 OA
ATOM     17  H   UNL     1      -6.330  13.919  24.910  0.00  0.00    +0.000 HD
ENDBRANCH   9  10
ENDBRANCH   6   9
ENDBRANCH   1   3
BRANCH   1  18
ATOM     18  C   UNL     1       1.675   7.910  21.156  0.00  0.00    +0.000 C 
BRANCH  18  19
ATOM     19  C   UNL     1       1.152   6.520  20.798  0.00  0.00    +0.000 C 
BRANCH  19  22
ATOM     20  C   UNL     1       3.791   5.234  18.790  0.00  0.00    +0.000 A 
ATOM     21  N   UNL     1       2.981   6.216  19.133  0.00  0.00    +0.000 NA
ATOM     22  C   UNL     1       2.227   5.697  20.169  0.00  0.00    +0.000 A 
ATOM     23  C   UNL     1       2.631   4.400  20.416  0.00  0.00    +0.000 A 
ATOM     24  C   UNL     1       2.256   3.317  21.339  0.00  0.00    +0.000 C 
ATOM     25  O   UNL     1       3.630   4.100  19.536  0.00  0.00    +0.000 OA
BRANCH  20  29
ATOM     26  C   UNL     1       6.767   5.087  15.719  0.00  0.00    +0.000 A 
ATOM     27  C   UNL     1       6.790   6.095  16.685  0.00  0.00    +0.000 A 
ATOM     28  C   UNL     1       5.821   6.135  17.692  0.00  0.00    +0.000 A 
ATOM     29  C   UNL     1       4.802   5.176  17.739  0.00  0.00    +0.000 A 
ATOM     30  C   UNL     1       4.775   4.181  16.750  0.00  0.00    +0.000 A 
ATOM     31  C   UNL     1       5.748   4.137  15.744  0.00  0.00    +0.000 A 
BRANCH  26  33
ATOM     32  C   UNL     1       7.346   4.940  13.436  0.00  0.00    +0.000 C 
ATOM     33  O   UNL     1       7.760   5.152  14.781  0.00  0.00    +0.000 OA
ENDBRANCH  26  33
ENDBRANCH  20  29
ENDBRANCH  19  22
ENDBRANCH  18  19
ENDBRANCH   1  18
TORSDOF 8
ENDMDL
MODEL 2
REMARK VINA RESULT:      -8.3      4.464      6.464
REMARK  Name = 
REMARK  10 active torsions:
REMARK  status: ('A' for Active; 'I' for Inactive)
REMARK    1  A    between atoms: C_1  and  O_2
REMARK    2  A    between atoms: O_2  and  C_3
REMARK    3  A    between atoms: C_6  and  C_7
REMARK    4  A    between atoms: C_9  and  C_10
REMARK    5  A    between atoms: C_10  and  C_11
REMARK    6  A    between atoms: C_11  and  C_12
REMARK    7  A    between atoms: C_12  and  C_14
REMARK    8  A    between atoms: C_17  and  C_18
REMARK    9  A    between atoms: C_18  and  C_19
REMARK   10  A    between atoms: C_28  and  C_29
REMARK                            x       y       z     vdW  Elec       q    Type
REMARK                         _______ _______ _______ _____ _____    ______ ____
ROOT
ATOM      1  C   UNL     1       3.954   6.362  17.718  0.00  0.00    +0.000 C 
ATOM      2  O   UNL     1       4.113   5.233  18.172  0.00  0.00    +0.000 OA
ENDROOT
BRANCH   1   3
ATOM      3  C   UNL     1       2.960   7.290  18.353  0.00  0.00    +0.000 A 
ATOM      4  C   UNL     1       2.524   7.115  19.671  0.00  0.00    +0.000 A 
ATOM      5  C   UNL     1       1.595   7.996  20.239  0.00  0.00    +0.000 A 
ATOM      6  C   UNL     1       1.079   9.065  19.499  0.00  0.00    +0.000 A 
ATOM      7  C   UNL     1       1.513   9.239  18.178  0.00  0.00    +0.000 A 
ATOM      8  C   UNL     1       2.448   8.362  17.609  0.00  0.00    +0.000 A 
BRANCH   6   9
ATOM      9  C   UNL     1       0.041   9.985  20.115  0.00  0.00    +0.000 C 
BRANCH   9  10
ATOM     10  C   UNL     1       0.465  10.801  21.342  0.00  0.00    +0.000 C 
ATOM     11  S   UNL     1      -0.790  10.875  22.662  0.00  0.00    +0.000 S 
ATOM     12  C   UNL     1      -0.921  12.611  22.557  0.00  0.00    +0.000 C 
ATOM     13  O   UNL     1      -1.803  13.262  23.089  0.00  0.00    +0.000 OA
ATOM     14  N   UNL     1       0.066  13.112  21.780  0.00  0.00    +0.000 N 
ATOM     15  C   UNL     1       0.774  12.244  21.005  0.00  0.00    +0.000 C 
ATOM     16  O   UNL     1       1.554  12.608  20.134  0.00  0.00    +0.000 OA
ATOM     17  H   UNL     1       0.106  14.102  21.600  0.00  0.00    +0.000 HD
ENDBRANCH   9  10
ENDBRANCH   6   9
ENDBRANCH   1   3
BRANCH   1  18
ATOM     18  C   UNL     1       4.719   6.867  16.507  0.00  0.00    +0.000 C 
BRANCH  18  19
ATOM     19  C   UNL     1       6.146   6.331  16.410  0.00  0.00    +0.000 C 
BRANCH  19  22
ATOM     20  C   UNL     1       8.126   8.743  18.117  0.00  0.00    +0.000 A 
ATOM     21  N   UNL     1       7.260   8.424  17.175  0.00  0.00    +0.000 NA
ATOM     22  C   UNL     1       7.052   7.068  17.341  0.00  0.00    +0.000 A 
ATOM     23  C   UNL     1       7.811   6.621  18.404  0.00  0.00    +0.000 A 
ATOM     24  C   UNL     1       8.055   5.339  19.084  0.00  0.00    +0.000 C 
ATOM     25  O   UNL     1       8.500   7.688  18.902  0.00  0.00    +0.000 OA
BRANCH  20  29
ATOM     26  C   UNL     1       9.953  12.499  19.048  0.00  0.00    +0.000 A 
ATOM     27  C   UNL     1      10.087  11.409  19.909  0.00  0.00    +0.000 A 
ATOM     28  C   UNL     1       9.496  10.181  19.598  0.00  0.00    +0.000 A 
ATOM     29  C   UNL     1       8.746  10.028  18.426  0.00  0.00    +0.000 A 
ATOM     30  C   UNL     1       8.597  11.137  17.578  0.00  0.00    +0.000 A 
ATOM     31  C   UNL     1       9.194  12.365  17.886  0.00  0.00    +0.000 A 
BRANCH  26  33
ATOM     32  C   UNL     1       9.781  14.505  20.280  0.00  0.00    +0.000 C 
ATOM     33  O   UNL     1      10.567  13.650  19.458  0.00  0.00    +0.000 OA
ENDBRANCH  26  33
ENDBRANCH  20  29
ENDBRANCH  19  22
ENDBRANCH  18  19
ENDBRANCH   1  18
TORSDOF 8
ENDMDL
MODEL 3
REMARK VINA RESULT:      -8.3      2.060      3.065
REMARK  Name = 
REMARK  10 active torsions:
REMARK  status: ('A' for Active; 'I' for Inactive)
REMARK    1  A    between atoms: C_1  and  O_2
REMARK    2  A    between atoms: O_2  and  C_3
REMARK    3  A    between atoms: C_6  and  C_7
REMARK    4  A    between atoms: C_9  and  C_10
REMARK    5  A    between atoms: C_10  and  C_11
REMARK    6  A    between atoms: C_11  and  C_12
REMARK    7  A    between atoms: C_12  and  C_14
REMARK    8  A    between atoms: C_17  and  C_18
REMARK    9  A    between atoms: C_18  and  C_19
REMARK   10  A    between atoms: C_28  and  C_29
REMARK                            x       y       z     vdW  Elec       q    Type
REMARK                         _______ _______ _______ _____ _____    ______ ____
ROOT
ATOM      1  C   UNL     1      -0.408   9.988  22.615  0.00  0.00    +0.000 C 
ATOM      2  O   UNL     1       0.079   9.887  23.737  0.00  0.00    +0.000 OA
ENDROOT
BRANCH   1   3
ATOM      3  C   UNL     1      -1.334  11.129  22.302  0.00  0.00    +0.000 A 
ATOM      4  C   UNL     1      -2.179  11.679  23.270  0.00  0.00    +0.000 A 
ATOM      5  C   UNL     1      -3.034  12.742  22.951  0.00  0.00    +0.000 A 
ATOM      6  C   UNL     1      -3.063  13.272  21.656  0.00  0.00    +0.000 A 
ATOM      7  C   UNL     1      -2.218  12.717  20.685  0.00  0.00    +0.000 A 
ATOM      8  C   UNL     1      -1.357  11.657  21.005  0.00  0.00    +0.000 A 
BRANCH   6   9
ATOM      9  C   UNL     1      -4.025  14.394  21.316  0.00  0.00    +0.000 C 
BRANCH   9  10
ATOM     10  C   UNL     1      -5.524  14.074  21.360  0.00  0.00    +0.000 C 
ATOM     11  S   UNL     1      -6.267  14.196  23.020  0.00  0.00    +0.000 S 
ATOM     12  C   UNL     1      -6.728  12.514  23.031  0.00  0.00    +0.000 C 
ATOM     13  O   UNL     1      -7.112  11.919  24.022  0.00  0.00    +0.000 OA
ATOM     14  N   UNL     1      -6.565  11.973  21.802  0.00  0.00    +0.000 N 
ATOM     15  C   UNL     1      -5.835  12.669  20.887  0.00  0.00    +0.000 C 
ATOM     16  O   UNL     1      -5.470  12.193  19.820  0.00  0.00    +0.000 OA
ATOM     17  H   UNL     1      -6.763  10.996  21.657  0.00  0.00    +0.000 HD
ENDBRANCH   9  10
ENDBRANCH   6   9
ENDBRANCH   1   3
BRANCH   1  18
ATOM     18  C   UNL     1      -0.127   8.983  21.512  0.00  0.00    +0.000 C 
BRANCH  18  19
ATOM     19  C   UNL     1       1.298   8.431  21.528  0.00  0.00    +0.000 C 
BRANCH  19  22
ATOM     20  C   UNL     1       2.774   7.032  18.611  0.00  0.00    +0.000 A 
ATOM     21  N   UNL     1       2.501   6.980  19.899  0.00  0.00    +0.000 NA
ATOM     22  C   UNL     1       1.760   8.121  20.143  0.00  0.00    +0.000 A 
ATOM     23  C   UNL     1       1.609   8.822  18.963  0.00  0.00    +0.000 A 
ATOM     24  C   UNL     1       0.965  10.073  18.533  0.00  0.00    +0.000 C 
ATOM     25  O   UNL     1       2.257   8.130  17.981  0.00  0.00    +0.000 OA
BRANCH  20  29
ATOM     26  C   UNL     1       5.065   4.373  16.162  0.00  0.00    +0.000 A 
ATOM     27  C   UNL     1       5.411   5.721  16.265  0.00  0.00    +0.000 A 
ATOM     28  C   UNL     1       4.665   6.586  17.073  0.00  0.00    +0.000 A 
ATOM     29  C   UNL     1       3.550   6.118  17.778  0.00  0.00    +0.000 A 
ATOM     30  C   UNL     1       3.197   4.765  17.648  0.00  0.00    +0.000 A 
ATOM     31  C   UNL     1       3.946   3.898  16.844  0.00  0.00    +0.000 A 
BRANCH  26  33
ATOM     32  C   UNL     1       6.341   4.293  14.178  0.00  0.00    +0.000 C 
ATOM     33  O   UNL     1       5.860   3.625  15.339  0.00  0.00    +0.000 OA
ENDBRANCH  26  33
ENDBRANCH  20  29
ENDBRANCH  19  22
ENDBRANCH  18  19
ENDBRANCH   1  18
TORSDOF 8
ENDMDL
MODEL 4
REMARK VINA RESULT:      -8.2      3.945     10.872
REMARK  Name = 
REMARK  10 active torsions:
REMARK  status: ('A' for Active; 'I' for Inactive)
REMARK    1  A    between atoms: C_1  and  O_2
REMARK    2  A    between atoms: O_2  and  C_3
REMARK    3  A    between atoms: C_6  and  C_7
REMARK    4  A    between atoms: C_9  and  C_10
REMARK    5  A    between atoms: C_10  and  C_11
REMARK    6  A    between atoms: C_11  and  C_12
REMARK    7  A    between atoms: C_12  and  C_14
REMARK    8  A    between atoms: C_17  and  C_18
REMARK    9  A    between atoms: C_18  and  C_19
REMARK   10  A    between atoms: C_28  and  C_29
REMARK                            x       y       z     vdW  Elec       q    Type
REMARK                         _______ _______ _______ _____ _____    ______ ____
ROOT
ATOM      1  C   UNL     1       1.142   3.231  19.368  0.00  0.00    +0.000 C 
ATOM      2  O   UNL     1       0.305   2.372  19.112  0.00  0.00    +0.000 OA
ENDROOT
BRANCH   1   3
ATOM      3  C   UNL     1       2.336   3.403  18.473  0.00  0.00    +0.000 A 
ATOM      4  C   UNL     1       2.223   3.955  17.193  0.00  0.00    +0.000 A 
ATOM      5  C   UNL     1       3.352   4.105  16.378  0.00  0.00    +0.000 A 
ATOM      6  C   UNL     1       4.615   3.700  16.824  0.00  0.00    +0.000 A 
ATOM      7  C   UNL     1       4.727   3.143  18.105  0.00  0.00    +0.000 A 
ATOM      8  C   UNL     1       3.598   2.999  18.926  0.00  0.00    +0.000 A 
BRANCH   6   9
ATOM      9  C   UNL     1       5.821   3.829  15.913  0.00  0.00    +0.000 C 
BRANCH   9  10
ATOM     10  C   UNL     1       6.897   4.847  16.311  0.00  0.00    +0.000 C 
ATOM     11  S   UNL     1       7.843   4.393  17.801  0.00  0.00    +0.000 S 
ATOM     12  C   UNL     1       7.323   5.813  18.668  0.00  0.00    +0.000 C 
ATOM     13  O   UNL     1       7.479   5.976  19.866  0.00  0.00    +0.000 OA
ATOM     14  N   UNL     1       6.700   6.675  17.832  0.00  0.00    +0.000 N 
ATOM     15  C   UNL     1       6.323   6.217  16.606  0.00  0.00    +0.000 C 
ATOM     16  O   UNL     1       5.594   6.848  15.851  0.00  0.00    +0.000 OA
ATOM     17  H   UNL     1       6.315   7.532  18.194  0.00  0.00    +0.000 HD
ENDBRANCH   9  10
ENDBRANCH   6   9
ENDBRANCH   1   3
BRANCH   1  18
ATOM     18  C   UNL     1       1.036   4.134  20.585  0.00  0.00    +0.000 C 
BRANCH  18  19
ATOM     19  C   UNL     1       2.247   5.043  20.786  0.00  0.00    +0.000 C 
BRANCH  19  22
ATOM     20  C   UNL     1       0.906   8.335  20.892  0.00  0.00    +0.000 A 
ATOM     21  N   UNL     1       1.053   7.136  21.420  0.00  0.00    +0.000 NA
ATOM     22  C   UNL     1       1.884   6.470  20.538  0.00  0.00    +0.000 A 
ATOM     23  C   UNL     1       2.216   7.318  19.501  0.00  0.00    +0.000 A 
ATOM     24  C   UNL     1       3.024   7.247  18.273  0.00  0.00    +0.000 C 
ATOM     25  O   UNL     1       1.592   8.512  19.722  0.00  0.00    +0.000 OA
BRANCH  20  29
ATOM     26  C   UNL     1      -1.403  11.662  22.276  0.00  0.00    +0.000 A 
ATOM     27  C   UNL     1      -1.039  10.635  23.149  0.00  0.00    +0.000 A 
ATOM     28  C   UNL     1      -0.277   9.554  22.696  0.00  0.00    +0.000 A 
ATOM     29  C   UNL     1       0.118   9.474  21.356  0.00  0.00    +0.000 A 
ATOM     30  C   UNL     1      -0.273  10.500  20.481  0.00  0.00    +0.000 A 
ATOM     31  C   UNL     1      -1.031  11.586  20.936  0.00  0.00    +0.000 A 
BRANCH  26  33
ATOM     32  C   UNL     1      -1.788  13.984  22.447  0.00  0.00    +0.000 C 
ATOM     33  O   UNL     1      -2.153  12.663  22.829  0.00  0.00    +0.000 OA
ENDBRANCH  26  33
ENDBRANCH  20  29
ENDBRANCH  19  22
ENDBRANCH  18  19
ENDBRANCH   1  18
TORSDOF 8
ENDMDL
MODEL 5
REMARK VINA RESULT:      -8.2      3.688     11.225
REMARK  Name = 
REMARK  10 active torsions:
REMARK  status: ('A' for Active; 'I' for Inactive)
REMARK    1  A    between atoms: C_1  and  O_2
REMARK    2  A    between atoms: O_2  and  C_3
REMARK    3  A    between atoms: C_6  and  C_7
REMARK    4  A    between atoms: C_9  and  C_10
REMARK    5  A    between atoms: C_10  and  C_11
REMARK    6  A    between atoms: C_11  and  C_12
REMARK    7  A    between atoms: C_12  and  C_14
REMARK    8  A    between atoms: C_17  and  C_18
REMARK    9  A    between atoms: C_18  and  C_19
REMARK   10  A    between atoms: C_28  and  C_29
REMARK                            x       y       z     vdW  Elec       q    Type
REMARK                         _______ _______ _______ _____ _____    ______ ____
ROOT
ATOM      1  C   UNL     1       1.464   4.324  20.313  0.00  0.00    +0.000 C 
ATOM      2  O   UNL     1       0.804   3.366  20.700  0.00  0.00    +0.000 OA
ENDROOT
BRANCH   1   3
ATOM      3  C   UNL     1       2.475   4.143  19.218  0.00  0.00    +0.000 A 
ATOM      4  C   UNL     1       2.142   4.318  17.871  0.00  0.00    +0.000 A 
ATOM      5  C   UNL     1       3.105   4.143  16.869  0.00  0.00    +0.000 A 
ATOM      6  C   UNL     1       4.418   3.784  17.193  0.00  0.00    +0.000 A 
ATOM      7  C   UNL     1       4.750   3.605  18.543  0.00  0.00    +0.000 A 
ATOM      8  C   UNL     1       3.789   3.786  19.548  0.00  0.00    +0.000 A 
BRANCH   6   9
ATOM      9  C   UNL     1       5.438   3.556  16.094  0.00  0.00    +0.000 C 
BRANCH   9  10
ATOM     10  C   UNL     1       6.589   4.563  15.983  0.00  0.00    +0.000 C 
ATOM     11  S   UNL     1       7.750   4.531  17.388  0.00  0.00    +0.000 S 
ATOM     12  C   UNL     1       7.411   6.187  17.815  0.00  0.00    +0.000 C 
ATOM     13  O   UNL     1       7.761   6.707  18.860  0.00  0.00    +0.000 OA
ATOM     14  N   UNL     1       6.685   6.786  16.844  0.00  0.00    +0.000 N 
ATOM     15  C   UNL     1       6.105   5.995  15.899  0.00  0.00    +0.000 C 
ATOM     16  O   UNL     1       5.280   6.409  15.094  0.00  0.00    +0.000 OA
ATOM     17  H   UNL     1       6.385   7.740  16.961  0.00  0.00    +0.000 HD
ENDBRANCH   9  10
ENDBRANCH   6   9
ENDBRANCH   1   3
BRANCH   1  18
ATOM     18  C   UNL     1       1.316   5.711  20.916  0.00  0.00    +0.000 C 
BRANCH  18  19
ATOM     19  C   UNL     1       2.281   6.743  20.334  0.00  0.00    +0.000 C 
BRANCH  19  22
ATOM     20  C   UNL     1       0.355   9.713  20.679  0.00  0.00    +0.000 A 
ATOM     21  N   UNL     1       0.835   8.590  21.175  0.00  0.00    +0.000 NA
ATOM     22  C   UNL     1       1.600   8.059  20.153  0.00  0.00    +0.000 A 
ATOM     23  C   UNL     1       1.554   8.909  19.066  0.00  0.00    +0.000 A 
ATOM     24  C   UNL     1       2.113   8.942  17.705  0.00  0.00    +0.000 C 
ATOM     25  O   UNL     1       0.758   9.967  19.397  0.00  0.00    +0.000 OA
BRANCH  20  29
ATOM     26  C   UNL     1      -2.269  12.583  22.465  0.00  0.00    +0.000 A 
ATOM     27  C   UNL     1      -1.636  11.615  23.245  0.00  0.00    +0.000 A 
ATOM     28  C   UNL     1      -0.772  10.683  22.660  0.00  0.00    +0.000 A 
ATOM     29  C   UNL     1      -0.542  10.696  21.279  0.00  0.00    +0.000 A 
ATOM     30  C   UNL     1      -1.201  11.660  20.500  0.00  0.00    +0.000 A 
ATOM     31  C   UNL     1      -2.061  12.596  21.087  0.00  0.00    +0.000 A 
BRANCH  26  33
ATOM     32  C   UNL     1      -4.342  12.885  23.552  0.00  0.00    +0.000 C 
ATOM     33  O   UNL     1      -3.095  13.435  23.143  0.00  0.00    +0.000 OA
ENDBRANCH  26  33
ENDBRANCH  20  29
ENDBRANCH  19  22
ENDBRANCH  18  19
ENDBRANCH   1  18
TORSDOF 8
ENDMDL
MODEL 6
REMARK VINA RESULT:      -8.2      4.985     10.346
REMARK  Name = 
REMARK  10 active torsions:
REMARK  status: ('A' for Active; 'I' for Inactive)
REMARK    1  A    between atoms: C_1  and  O_2
REMARK    2  A    between atoms: O_2  and  C_3
REMARK    3  A    between atoms: C_6  and  C_7
REMARK    4  A    between atoms: C_9  and  C_10
REMARK    5  A    between atoms: C_10  and  C_11
REMARK    6  A    between atoms: C_11  and  C_12
REMARK    7  A    between atoms: C_12  and  C_14
REMARK    8  A    between atoms: C_17  and  C_18
REMARK    9  A    between atoms: C_18  and  C_19
REMARK   10  A    between atoms: C_28  and  C_29
REMARK                            x       y       z     vdW  Elec       q    Type
REMARK                         _______ _______ _______ _____ _____    ______ ____
ROOT
ATOM      1  C   UNL     1       6.780   5.125  16.981  0.00  0.00    +0.000 C 
ATOM      2  O   UNL     1       7.542   4.298  16.491  0.00  0.00    +0.000 OA
ENDROOT
BRANCH   1   3
ATOM      3  C   UNL     1       7.321   6.423  17.508  0.00  0.00    +0.000 A 
ATOM      4  C   UNL     1       7.081   7.638  16.860  0.00  0.00    +0.000 A 
ATOM      5  C   UNL     1       7.599   8.835  17.372  0.00  0.00    +0.000 A 
ATOM      6  C   UNL     1       8.371   8.838  18.539  0.00  0.00    +0.000 A 
ATOM      7  C   UNL     1       8.615   7.619  19.186  0.00  0.00    +0.000 A 
ATOM      8  C   UNL     1       8.092   6.421  18.678  0.00  0.00    +0.000 A 
BRANCH   6   9
ATOM      9  C   UNL     1       8.960  10.137  19.057  0.00  0.00    +0.000 C 
BRANCH   9  10
ATOM     10  C   UNL     1       9.745  11.000  18.061  0.00  0.00    +0.000 C 
ATOM     11  S   UNL     1      11.382  11.533  18.660  0.00  0.00    +0.000 S 
ATOM     12  C   UNL     1      10.964  13.222  18.558  0.00  0.00    +0.000 C 
ATOM     13  O   UNL     1      11.628  14.120  19.045  0.00  0.00    +0.000 OA
ATOM     14  N   UNL     1       9.794  13.379  17.897  0.00  0.00    +0.000 N 
ATOM     15  C   UNL     1       9.019  12.277  17.697  0.00  0.00    +0.000 C 
ATOM     16  O   UNL     1       7.868  12.334  17.283  0.00  0.00    +0.000 OA
ATOM     17  H   UNL     1       9.404  14.301  17.783  0.00  0.00    +0.000 HD
ENDBRANCH   9  10
ENDBRANCH   6   9
ENDBRANCH   1   3
BRANCH   1  18
ATOM     18  C   UNL     1       5.285   4.884  17.100  0.00  0.00    +0.000 C 
BRANCH  18  19
ATOM     19  C   UNL     1       4.866   4.241  18.421  0.00  0.00    +0.000 C 
BRANCH  19  22
ATOM     20  C   UNL     1       2.526   6.714  19.449  0.00  0.00    +0.000 A 
ATOM     21  N   UNL     1       3.520   6.322  18.678  0.00  0.00    +0.000 NA
ATOM     22  C   UNL     1       3.760   5.015  19.058  0.00  0.00    +0.000 A 
ATOM     23  C   UNL     1       2.874   4.666  20.058  0.00  0.00    +0.000 A 
ATOM     24  C   UNL     1       2.599   3.478  20.881  0.00  0.00    +0.000 C 
ATOM     25  O   UNL     1       2.084   5.750  20.312  0.00  0.00    +0.000 OA
BRANCH  20  29
ATOM     26  C   UNL     1       0.562  10.511  19.656  0.00  0.00    +0.000 A 
ATOM     27  C   UNL     1       1.181  10.092  18.477  0.00  0.00    +0.000 A 
ATOM     28  C   UNL     1       1.815   8.848  18.410  0.00  0.00    +0.000 A 
ATOM     29  C   UNL     1       1.854   8.008  19.529  0.00  0.00    +0.000 A 
ATOM     30  C   UNL     1       1.249   8.448  20.717  0.00  0.00    +0.000 A 
ATOM     31  C   UNL     1       0.610   9.692  20.783  0.00  0.00    +0.000 A 
BRANCH  26  33
ATOM     32  C   UNL     1      -0.990  12.009  20.613  0.00  0.00    +0.000 C 
ATOM     33  O   UNL     1      -0.019  11.748  19.607  0.00  0.00    +0.000 OA
ENDBRANCH  26  33
ENDBRANCH  20  29
ENDBRANCH  19  22
ENDBRANCH  18  19
ENDBRANCH   1  18
TORSDOF 8
ENDMDL
MODEL 7
REMARK VINA RESULT:      -8.1      5.037     10.181
REMARK  Name = 
REMARK  10 active torsions:
REMARK  status: ('A' for Active; 'I' for Inactive)
REMARK    1  A    between atoms: C_1  and  O_2
REMARK    2  A    between atoms: O_2  and  C_3
REMARK    3  A    between atoms: C_6  and  C_7
REMARK    4  A    between atoms: C_9  and  C_10
REMARK    5  A    between atoms: C_10  and  C_11
REMARK    6  A    between atoms: C_11  and  C_12
REMARK    7  A    between atoms: C_12  and  C_14
REMARK    8  A    between atoms: C_17  and  C_18
REMARK    9  A    between atoms: C_18  and  C_19
REMARK   10  A    between atoms: C_28  and  C_29
REMARK                            x       y       z     vdW  Elec       q    Type
REMARK                         _______ _______ _______ _____ _____    ______ ____
ROOT
ATOM      1  C   UNL     1       7.210   5.074  17.619  0.00  0.00    +0.000 C 
ATOM      2  O   UNL     1       7.513   4.193  18.418  0.00  0.00    +0.000 OA
ENDROOT
BRANCH   1   3
ATOM      3  C   UNL     1       7.635   6.492  17.871  0.00  0.00    +0.000 A 
ATOM      4  C   UNL     1       8.400   6.845  18.987  0.00  0.00    +0.000 A 
ATOM      5  C   UNL     1       8.782   8.176  19.199  0.00  0.00    +0.000 A 
ATOM      6  C   UNL     1       8.403   9.180  18.302  0.00  0.00    +0.000 A 
ATOM      7  C   UNL     1       7.634   8.827  17.185  0.00  0.00    +0.000 A 
ATOM      8  C   UNL     1       7.256   7.494  16.968  0.00  0.00    +0.000 A 
BRANCH   6   9
ATOM      9  C   UNL     1       8.790  10.623  18.568  0.00  0.00    +0.000 C 
BRANCH   9  10
ATOM     10  C   UNL     1       9.883  10.876  19.614  0.00  0.00    +0.000 C 
ATOM     11  S   UNL     1       9.294  11.709  21.125  0.00  0.00    +0.000 S 
ATOM     12  C   UNL     1      10.339  13.082  20.878  0.00  0.00    +0.000 C 
ATOM     13  O   UNL     1      10.248  14.129  21.495  0.00  0.00    +0.000 OA
ATOM     14  N   UNL     1      11.228  12.826  19.891  0.00  0.00    +0.000 N 
ATOM     15  C   UNL     1      11.002  11.749  19.089  0.00  0.00    +0.000 C 
ATOM     16  O   UNL     1      11.631  11.537  18.060  0.00  0.00    +0.000 OA
ATOM     17  H   UNL     1      11.883  13.539  19.612  0.00  0.00    +0.000 HD
ENDBRANCH   9  10
ENDBRANCH   6   9
ENDBRANCH   1   3
BRANCH   1  18
ATOM     18  C   UNL     1       6.392   4.793  16.370  0.00  0.00    +0.000 C 
BRANCH  18  19
ATOM     19  C   UNL     1       5.137   3.962  16.628  0.00  0.00    +0.000 C 
BRANCH  19  22
ATOM     20  C   UNL     1       3.075   6.234  18.426  0.00  0.00    +0.000 A 
ATOM     21  N   UNL     1       3.787   5.923  17.361  0.00  0.00    +0.000 NA
ATOM     22  C   UNL     1       4.244   4.643  17.612  0.00  0.00    +0.000 A 
ATOM     23  C   UNL     1       3.769   4.226  18.839  0.00  0.00    +0.000 A 
ATOM     24  C   UNL     1       3.879   3.023  19.680  0.00  0.00    +0.000 C 
ATOM     25  O   UNL     1       3.022   5.240  19.364  0.00  0.00    +0.000 OA
BRANCH  20  29
ATOM     26  C   UNL     1       0.986   9.837  19.409  0.00  0.00    +0.000 A 
ATOM     27  C   UNL     1       1.216   8.860  20.379  0.00  0.00    +0.000 A 
ATOM     28  C   UNL     1       1.906   7.687  20.057  0.00  0.00    +0.000 A 
ATOM     29  C   UNL     1       2.363   7.466  18.752  0.00  0.00    +0.000 A 
ATOM     30  C   UNL     1       2.107   8.445  17.779  0.00  0.00    +0.000 A 
ATOM     31  C   UNL     1       1.421   9.622  18.103  0.00  0.00    +0.000 A 
BRANCH  26  33
ATOM     32  C   UNL     1       0.684  12.172  19.247  0.00  0.00    +0.000 C 
ATOM     33  O   UNL     1       0.296  10.937  19.837  0.00  0.00    +0.000 OA
ENDBRANCH  26  33
ENDBRANCH  20  29
ENDBRANCH  19  22
ENDBRANCH  18  19
ENDBRANCH   1  18
TORSDOF 8
ENDMDL
MODEL 8
REMARK VINA RESULT:      -8.1      3.784     11.486
REMARK  Name = 
REMARK  10 active torsions:
REMARK  status: ('A' for Active; 'I' for Inactive)
REMARK    1  A    between atoms: C_1  and  O_2
REMARK    2  A    between atoms: O_2  and  C_3
REMARK    3  A    between atoms: C_6  and  C_7
REMARK    4  A    between atoms: C_9  and  C_10
REMARK    5  A    between atoms: C_10  and  C_11
REMARK    6  A    between atoms: C_11  and  C_12
REMARK    7  A    between atoms: C_12  and  C_14
REMARK    8  A    between atoms: C_17  and  C_18
REMARK    9  A    between atoms: C_18  and  C_19
REMARK   10  A    between atoms: C_28  and  C_29
REMARK                            x       y       z     vdW  Elec       q    Type
REMARK                         _______ _______ _______ _____ _____    ______ ____
ROOT
ATOM      1  C   UNL     1       2.056   8.779  18.158  0.00  0.00    +0.000 C 
ATOM      2  O   UNL     1       2.295   9.319  17.082  0.00  0.00    +0.000 OA
ENDROOT
BRANCH   1   3
ATOM      3  C   UNL     1       2.734   7.487  18.513  0.00  0.00    +0.000 A 
ATOM      4  C   UNL     1       3.703   6.910  17.686  0.00  0.00    +0.000 A 
ATOM      5  C   UNL     1       4.319   5.703  18.041  0.00  0.00    +0.000 A 
ATOM      6  C   UNL     1       3.974   5.047  19.227  0.00  0.00    +0.000 A 
ATOM      7  C   UNL     1       3.000   5.623  20.054  0.00  0.00    +0.000 A 
ATOM      8  C   UNL     1       2.387   6.834  19.704  0.00  0.00    +0.000 A 
BRANCH   6   9
ATOM      9  C   UNL     1       4.619   3.719  19.577  0.00  0.00    +0.000 C 
BRANCH   9  10
ATOM     10  C   UNL     1       3.723   2.474  19.554  0.00  0.00    +0.000 C 
ATOM     11  S   UNL     1       2.722   2.300  18.041  0.00  0.00    +0.000 S 
ATOM     12  C   UNL     1       1.220   2.376  18.923  0.00  0.00    +0.000 C 
ATOM     13  O   UNL     1       0.129   2.519  18.401  0.00  0.00    +0.000 OA
ATOM     14  N   UNL     1       1.450   2.287  20.253  0.00  0.00    +0.000 N 
ATOM     15  C   UNL     1       2.728   2.451  20.695  0.00  0.00    +0.000 C 
ATOM     16  O   UNL     1       3.017   2.577  21.878  0.00  0.00    +0.000 OA
ATOM     17  H   UNL     1       0.679   2.346  20.898  0.00  0.00    +0.000 HD
ENDBRANCH   9  10
ENDBRANCH   6   9
ENDBRANCH   1   3
BRANCH   1  18
ATOM     18  C   UNL     1       1.073   9.359  19.159  0.00  0.00    +0.000 C 
BRANCH  18  19
ATOM     19  C   UNL     1       0.370  10.625  18.671  0.00  0.00    +0.000 C 
BRANCH  19  22
ATOM     20  C   UNL     1      -1.630  12.089  21.222  0.00  0.00    +0.000 A 
ATOM     21  N   UNL     1      -1.474  11.232  20.233  0.00  0.00    +0.000 NA
ATOM     22  C   UNL     1      -0.166  11.409  19.823  0.00  0.00    +0.000 A 
ATOM     23  C   UNL     1       0.425  12.380  20.606  0.00  0.00    +0.000 A 
ATOM     24  C   UNL     1       1.741  13.032  20.696  0.00  0.00    +0.000 C 
ATOM     25  O   UNL     1      -0.507  12.819  21.501  0.00  0.00    +0.000 OA
BRANCH  20  29
ATOM     26  C   UNL     1      -5.094  12.954  23.580  0.00  0.00    +0.000 A 
ATOM     27  C   UNL     1      -5.115  13.126  22.195  0.00  0.00    +0.000 A 
ATOM     28  C   UNL     1      -3.984  12.835  21.426  0.00  0.00    +0.000 A 
ATOM     29  C   UNL     1      -2.807  12.382  22.034  0.00  0.00    +0.000 A 
ATOM     30  C   UNL     1      -2.790  12.234  23.430  0.00  0.00    +0.000 A 
ATOM     31  C   UNL     1      -3.924  12.521  24.200  0.00  0.00    +0.000 A 
BRANCH  26  33
ATOM     32  C   UNL     1      -7.440  12.713  23.681  0.00  0.00    +0.000 C 
ATOM     33  O   UNL     1      -6.254  13.277  24.228  0.00  0.00    +0.000 OA
ENDBRANCH  26  33
ENDBRANCH  20  29
ENDBRANCH  19  22
ENDBRANCH  18  19
ENDBRANCH   1  18
TORSDOF 8
ENDMDL
MODEL 9
REMARK VINA RESULT:      -8.1      3.670     11.188
REMARK  Name = 
REMARK  10 active torsions:
REMARK  status: ('A' for Active; 'I' for Inactive)
REMARK    1  A    between atoms: C_1  and  O_2
REMARK    2  A    between atoms: O_2  and  C_3
REMARK    3  A    between atoms: C_6  and  C_7
REMARK    4  A    between atoms: C_9  and  C_10
REMARK    5  A    between atoms: C_10  and  C_11
REMARK    6  A    between atoms: C_11  and  C_12
REMARK    7  A    between atoms: C_12  and  C_14
REMARK    8  A    between atoms: C_17  and  C_18
REMARK    9  A    between atoms: C_18  and  C_19
REMARK   10  A    between atoms: C_28  and  C_29
REMARK                            x       y       z     vdW  Elec       q    Type
REMARK                         _______ _______ _______ _____ _____    ______ ____
ROOT
ATOM      1  C   UNL     1       1.027   3.269  19.453  0.00  0.00    +0.000 C 
ATOM      2  O   UNL     1       0.257   2.315  19.391  0.00  0.00    +0.000 OA
ENDROOT
BRANCH   1   3
ATOM      3  C   UNL     1       2.205   3.342  18.524  0.00  0.00    +0.000 A 
ATOM      4  C   UNL     1       2.277   4.290  17.498  0.00  0.00    +0.000 A 
ATOM      5  C   UNL     1       3.387   4.336  16.645  0.00  0.00    +0.000 A 
ATOM      6  C   UNL     1       4.444   3.433  16.798  0.00  0.00    +0.000 A 
ATOM      7  C   UNL     1       4.370   2.481  17.823  0.00  0.00    +0.000 A 
ATOM      8  C   UNL     1       3.262   2.437  18.683  0.00  0.00    +0.000 A 
BRANCH   6   9
ATOM      9  C   UNL     1       5.619   3.469  15.839  0.00  0.00    +0.000 C 
BRANCH   9  10
ATOM     10  C   UNL     1       6.910   4.131  16.335  0.00  0.00    +0.000 C 
ATOM     11  S   UNL     1       6.783   4.869  17.997  0.00  0.00    +0.000 S 
ATOM     12  C   UNL     1       7.142   6.470  17.407  0.00  0.00    +0.000 C 
ATOM     13  O   UNL     1       6.997   7.486  18.062  0.00  0.00    +0.000 OA
ATOM     14  N   UNL     1       7.566   6.415  16.123  0.00  0.00    +0.000 N 
ATOM     15  C   UNL     1       7.372   5.257  15.434  0.00  0.00    +0.000 C 
ATOM     16  O   UNL     1       7.543   5.160  14.225  0.00  0.00    +0.000 OA
ATOM     17  H   UNL     1       7.784   7.267  15.633  0.00  0.00    +0.000 HD
ENDBRANCH   9  10
ENDBRANCH   6   9
ENDBRANCH   1   3
BRANCH   1  18
ATOM     18  C   UNL     1       0.851   4.392  20.459  0.00  0.00    +0.000 C 
BRANCH  18  19
ATOM     19  C   UNL     1       2.109   5.232  20.675  0.00  0.00    +0.000 C 
BRANCH  19  22
ATOM     20  C   UNL     1       0.961   8.583  20.988  0.00  0.00    +0.000 A 
ATOM     21  N   UNL     1       1.072   7.357  21.460  0.00  0.00    +0.000 NA
ATOM     22  C   UNL     1       1.812   6.685  20.504  0.00  0.00    +0.000 A 
ATOM     23  C   UNL     1       2.128   7.557  19.482  0.00  0.00    +0.000 A 
ATOM     24  C   UNL     1       2.857   7.494  18.205  0.00  0.00    +0.000 C 
ATOM     25  O   UNL     1       1.585   8.771  19.786  0.00  0.00    +0.000 OA
BRANCH  20  29
ATOM     26  C   UNL     1      -1.085  11.963  22.632  0.00  0.00    +0.000 A 
ATOM     27  C   UNL     1      -1.167  10.713  23.248  0.00  0.00    +0.000 A 
ATOM     28  C   UNL     1      -0.490   9.612  22.713  0.00  0.00    +0.000 A 
ATOM     29  C   UNL     1       0.266   9.742  21.542  0.00  0.00    +0.000 A 
ATOM     30  C   UNL     1       0.323  10.998  20.918  0.00  0.00    +0.000 A 
ATOM     31  C   UNL     1      -0.350  12.101  21.456  0.00  0.00    +0.000 A 
BRANCH  26  33
ATOM     32  C   UNL     1      -3.186  12.721  23.395  0.00  0.00    +0.000 C 
ATOM     33  O   UNL     1      -1.793  12.963  23.240  0.00  0.00    +0.000 OA
ENDBRANCH  26  33
ENDBRANCH  20  29
ENDBRANCH  19  22
ENDBRANCH  18  19
ENDBRANCH   1  18
TORSDOF 8
ENDMDL
