MODEL 1
REMARK VINA RESULT:      -7.8      0.000      0.000
REMARK  Name = 
REMARK  5 active torsions:
REMARK  status: ('A' for Active; 'I' for Inactive)
REMARK    1  A    between atoms: C_2  and  O_3
REMARK    2  A    between atoms: C_2  and  C_4
REMARK    3  A    between atoms: N_6  and  C_7
REMARK    4  A    between atoms: C_7  and  C_8
REMARK    5  A    between atoms: C_12  and  N_13
REMARK                            x       y       z     vdW  Elec       q    Type
REMARK                         _______ _______ _______ _____ _____    ______ ____
ROOT
ATOM      1  C   UNL     1       4.358   5.059  18.070  0.00  0.00    +0.000 A 
ATOM      2  C   UNL     1       3.766   4.597  19.181  0.00  0.00    +0.000 A 
ATOM      3  N   UNL     1       2.846   5.282  19.968  0.00  0.00    +0.000 N 
ATOM      4  C   UNL     1       2.478   6.594  19.600  0.00  0.00    +0.000 A 
ATOM      5  C   UNL     1       1.594   7.384  20.349  0.00  0.00    +0.000 A 
ATOM      6  C   UNL     1       1.195   8.683  19.970  0.00  0.00    +0.000 A 
ATOM      7  C   UNL     1       1.695   9.175  18.758  0.00  0.00    +0.000 A 
ATOM      8  F   UNL     1       1.343  10.393  18.316  0.00  0.00    +0.000 F 
ATOM      9  C   UNL     1       2.598   8.442  17.994  0.00  0.00    +0.000 A 
ATOM     10  C   UNL     1       2.997   7.173  18.428  0.00  0.00    +0.000 A 
ATOM     11  C   UNL     1       3.994   6.420  17.630  0.00  0.00    +0.000 A 
ATOM     12  O   UNL     1       4.522   6.906  16.632  0.00  0.00    +0.000 OA
ENDROOT
BRANCH   6  13
ATOM     13  N   UNL     1       0.306   9.352  20.787  0.00  0.00    +0.000 N 
ATOM     14  C   UNL     1      -0.262   8.767  22.008  0.00  0.00    +0.000 C 
ATOM     15  C   UNL     1      -0.403   9.902  23.059  0.00  0.00    +0.000 C 
ATOM     16  N   UNL     1      -1.165  11.081  22.589  0.00  0.00    +0.000 NA
ATOM     17  C   UNL     1      -0.623  11.559  21.301  0.00  0.00    +0.000 C 
ATOM     18  C   UNL     1      -0.511  10.447  20.237  0.00  0.00    +0.000 C 
ATOM     19  H   UNL     1      -1.075  11.825  23.279  0.00  0.00    +0.000 HD
ENDBRANCH   6  13
BRANCH   1  21
ATOM     20  O   UNL     1       5.103   3.700  16.264  0.00  0.00    +0.000 OA
ATOM     21  C   UNL     1       5.326   4.200  17.360  0.00  0.00    +0.000 C 
BRANCH  21  22
ATOM     22  O   UNL     1       6.486   3.995  18.021  0.00  0.00    +0.000 OA
ATOM     23  H   UNL     1       7.280   3.947  17.433  0.00  0.00    +0.000 HD
ENDBRANCH  21  22
ENDBRANCH   1  21
BRANCH   3  24
ATOM     24  C   UNL     1       2.240   4.643  21.154  0.00  0.00    +0.000 C 
BRANCH  24  25
ATOM     25  C   UNL     1       1.239   3.558  20.775  0.00  0.00    +0.000 C 
ATOM     26  F   UNL     1       1.088   2.709  21.830  0.00  0.00    +0.000 F 
ENDBRANCH  24  25
ENDBRANCH   3  24
TORSDOF 5
ENDMDL
MODEL 2
REMARK VINA RESULT:      -7.5      2.742      3.976
REMARK  Name = 
REMARK  5 active torsions:
REMARK  status: ('A' for Active; 'I' for Inactive)
REMARK    1  A    between atoms: C_2  and  O_3
REMARK    2  A    between atoms: C_2  and  C_4
REMARK    3  A    between atoms: N_6  and  C_7
REMARK    4  A    between atoms: C_7  and  C_8
REMARK    5  A    between atoms: C_12  and  N_13
REMARK                            x       y       z     vdW  Elec       q    Type
REMARK                         _______ _______ _______ _____ _____    ______ ____
ROOT
ATOM      1  C   UNL     1       3.897   3.852  19.240  0.00  0.00    +0.000 A 
ATOM      2  C   UNL     1       4.353   4.518  18.169  0.00  0.00    +0.000 A 
ATOM      3  N   UNL     1       4.004   5.812  17.796  0.00  0.00    +0.000 N 
ATOM      4  C   UNL     1       3.079   6.525  18.590  0.00  0.00    +0.000 A 
ATOM      5  C   UNL     1       2.629   7.815  18.276  0.00  0.00    +0.000 A 
ATOM      6  C   UNL     1       1.732   8.546  19.082  0.00  0.00    +0.000 A 
ATOM      7  C   UNL     1       1.309   7.943  20.273  0.00  0.00    +0.000 A 
ATOM      8  F   UNL     1       0.474   8.585  21.106  0.00  0.00    +0.000 F 
ATOM      9  C   UNL     1       1.703   6.653  20.613  0.00  0.00    +0.000 A 
ATOM     10  C   UNL     1       2.563   5.949  19.765  0.00  0.00    +0.000 A 
ATOM     11  C   UNL     1       2.941   4.559  20.115  0.00  0.00    +0.000 A 
ATOM     12  O   UNL     1       2.471   3.990  21.098  0.00  0.00    +0.000 OA
ENDROOT
BRANCH   6  13
ATOM     13  N   UNL     1       1.378   9.815  18.669  0.00  0.00    +0.000 N 
ATOM     14  C   UNL     1      -0.012  10.231  18.448  0.00  0.00    +0.000 C 
ATOM     15  C   UNL     1      -0.143  11.714  18.893  0.00  0.00    +0.000 C 
ATOM     16  N   UNL     1       0.831  12.631  18.257  0.00  0.00    +0.000 NA
ATOM     17  C   UNL     1       2.203  12.107  18.412  0.00  0.00    +0.000 C 
ATOM     18  C   UNL     1       2.353  10.646  17.941  0.00  0.00    +0.000 C 
ATOM     19  H   UNL     1       0.773  13.539  18.717  0.00  0.00    +0.000 HD
ENDBRANCH   6  13
BRANCH   1  21
ATOM     20  O   UNL     1       5.034   2.151  20.456  0.00  0.00    +0.000 OA
ATOM     21  C   UNL     1       4.363   2.472  19.481  0.00  0.00    +0.000 C 
BRANCH  21  22
ATOM     22  O   UNL     1       4.002   1.582  18.532  0.00  0.00    +0.000 OA
ATOM     23  H   UNL     1       3.273   1.897  17.943  0.00  0.00    +0.000 HD
ENDBRANCH  21  22
ENDBRANCH   1  21
BRANCH   3  24
ATOM     24  C   UNL     1       4.607   6.446  16.605  0.00  0.00    +0.000 C 
BRANCH  24  25
ATOM     25  C   UNL     1       5.885   5.741  16.164  0.00  0.00    +0.000 C 
ATOM     26  F   UNL     1       6.946   6.315  16.798  0.00  0.00    +0.000 F 
ENDBRANCH  24  25
ENDBRANCH   3  24
TORSDOF 5
ENDMDL
MODEL 3
REMARK VINA RESULT:      -7.4      2.709      3.909
REMARK  Name = 
REMARK  5 active torsions:
REMARK  status: ('A' for Active; 'I' for Inactive)
REMARK    1  A    between atoms: C_2  and  O_3
REMARK    2  A    between atoms: C_2  and  C_4
REMARK    3  A    between atoms: N_6  and  C_7
REMARK    4  A    between atoms: C_7  and  C_8
REMARK    5  A    between atoms: C_12  and  N_13
REMARK                            x       y       z     vdW  Elec       q    Type
REMARK                         _______ _______ _______ _____ _____    ______ ____
ROOT
ATOM      1  C   UNL     1       3.760   3.430  19.137  0.00  0.00    +0.000 A 
ATOM      2  C   UNL     1       4.199   4.179  18.116  0.00  0.00    +0.000 A 
ATOM      3  N   UNL     1       3.879   5.512  17.875  0.00  0.00    +0.000 N 
ATOM      4  C   UNL     1       3.005   6.174  18.765  0.00  0.00    +0.000 A 
ATOM      5  C   UNL     1       2.586   7.500  18.587  0.00  0.00    +0.000 A 
ATOM      6  C   UNL     1       1.741   8.179  19.489  0.00  0.00    +0.000 A 
ATOM      7  C   UNL     1       1.340   7.481  20.635  0.00  0.00    +0.000 A 
ATOM      8  F   UNL     1       0.555   8.067  21.554  0.00  0.00    +0.000 F 
ATOM      9  C   UNL     1       1.705   6.154  20.842  0.00  0.00    +0.000 A 
ATOM     10  C   UNL     1       2.513   5.507  19.901  0.00  0.00    +0.000 A 
ATOM     11  C   UNL     1       2.858   4.081  20.108  0.00  0.00    +0.000 A 
ATOM     12  O   UNL     1       2.404   3.437  21.053  0.00  0.00    +0.000 OA
ENDROOT
BRANCH   6  13
ATOM     13  N   UNL     1       1.413   9.490  19.208  0.00  0.00    +0.000 N 
ATOM     14  C   UNL     1       0.241  10.167  19.775  0.00  0.00    +0.000 C 
ATOM     15  C   UNL     1       0.626  11.649  20.036  0.00  0.00    +0.000 C 
ATOM     16  N   UNL     1       1.171  12.357  18.854  0.00  0.00    +0.000 NA
ATOM     17  C   UNL     1       2.273  11.577  18.256  0.00  0.00    +0.000 C 
ATOM     18  C   UNL     1       1.892  10.112  17.960  0.00  0.00    +0.000 C 
ATOM     19  H   UNL     1       1.534  13.261  19.153  0.00  0.00    +0.000 HD
ENDBRANCH   6  13
BRANCH   1  21
ATOM     20  O   UNL     1       3.778   1.141  18.489  0.00  0.00    +0.000 OA
ATOM     21  C   UNL     1       4.190   2.022  19.234  0.00  0.00    +0.000 C 
BRANCH  21  22
ATOM     22  O   UNL     1       5.074   1.771  20.224  0.00  0.00    +0.000 OA
ATOM     23  H   UNL     1       5.792   2.447  20.302  0.00  0.00    +0.000 HD
ENDBRANCH  21  22
ENDBRANCH   1  21
BRANCH   3  24
ATOM     24  C   UNL     1       4.461   6.235  16.725  0.00  0.00    +0.000 C 
BRANCH  24  25
ATOM     25  C   UNL     1       5.608   5.465  16.082  0.00  0.00    +0.000 C 
ATOM     26  F   UNL     1       5.489   5.547  14.727  0.00  0.00    +0.000 F 
ENDBRANCH  24  25
ENDBRANCH   3  24
TORSDOF 5
ENDMDL
MODEL 4
REMARK VINA RESULT:      -7.2      0.846      1.334
REMARK  Name = 
REMARK  5 active torsions:
REMARK  status: ('A' for Active; 'I' for Inactive)
REMARK    1  A    between atoms: C_2  and  O_3
REMARK    2  A    between atoms: C_2  and  C_4
REMARK    3  A    between atoms: N_6  and  C_7
REMARK    4  A    between atoms: C_7  and  C_8
REMARK    5  A    between atoms: C_12  and  N_13
REMARK                            x       y       z     vdW  Elec       q    Type
REMARK                         _______ _______ _______ _____ _____    ______ ____
ROOT
ATOM      1  C   UNL     1       3.828   4.353  18.049  0.00  0.00    +0.000 A 
ATOM      2  C   UNL     1       3.221   4.059  19.208  0.00  0.00    +0.000 A 
ATOM      3  N   UNL     1       2.512   4.946  20.013  0.00  0.00    +0.000 N 
ATOM      4  C   UNL     1       2.404   6.295  19.610  0.00  0.00    +0.000 A 
ATOM      5  C   UNL     1       1.750   7.275  20.370  0.00  0.00    +0.000 A 
ATOM      6  C   UNL     1       1.608   8.617  19.958  0.00  0.00    +0.000 A 
ATOM      7  C   UNL     1       2.126   8.955  18.702  0.00  0.00    +0.000 A 
ATOM      8  F   UNL     1       2.009  10.206  18.228  0.00  0.00    +0.000 F 
ATOM      9  C   UNL     1       2.809   8.026  17.924  0.00  0.00    +0.000 A 
ATOM     10  C   UNL     1       2.961   6.716  18.389  0.00  0.00    +0.000 A 
ATOM     11  C   UNL     1       3.729   5.746  17.572  0.00  0.00    +0.000 A 
ATOM     12  O   UNL     1       4.285   6.080  16.528  0.00  0.00    +0.000 OA
ENDROOT
BRANCH   6  13
ATOM     13  N   UNL     1       0.929   9.482  20.793  0.00  0.00    +0.000 N 
ATOM     14  C   UNL     1       0.512  10.829  20.389  0.00  0.00    +0.000 C 
ATOM     15  C   UNL     1      -0.859  11.125  21.056  0.00  0.00    +0.000 C 
ATOM     16  N   UNL     1      -0.875  10.944  22.526  0.00  0.00    +0.000 NA
ATOM     17  C   UNL     1      -0.341   9.615  22.883  0.00  0.00    +0.000 C 
ATOM     18  C   UNL     1       1.037   9.324  22.254  0.00  0.00    +0.000 C 
ATOM     19  H   UNL     1      -1.839  11.009  22.853  0.00  0.00    +0.000 HD
ENDBRANCH   6  13
BRANCH   1  21
ATOM     20  O   UNL     1       4.174   2.123  17.293  0.00  0.00    +0.000 OA
ATOM     21  C   UNL     1       4.551   3.289  17.326  0.00  0.00    +0.000 C 
BRANCH  21  22
ATOM     22  O   UNL     1       5.679   3.697  16.706  0.00  0.00    +0.000 OA
ATOM     23  H   UNL     1       6.512   3.420  17.164  0.00  0.00    +0.000 HD
ENDBRANCH  21  22
ENDBRANCH   1  21
BRANCH   3  24
ATOM     24  C   UNL     1       1.859   4.485  21.256  0.00  0.00    +0.000 C 
BRANCH  24  25
ATOM     25  C   UNL     1       2.223   3.045  21.596  0.00  0.00    +0.000 C 
ATOM     26  F   UNL     1       1.123   2.419  22.101  0.00  0.00    +0.000 F 
ENDBRANCH  24  25
ENDBRANCH   3  24
TORSDOF 5
ENDMDL
MODEL 5
REMARK VINA RESULT:      -7.2      4.417      6.396
REMARK  Name = 
REMARK  5 active torsions:
REMARK  status: ('A' for Active; 'I' for Inactive)
REMARK    1  A    between atoms: C_2  and  O_3
REMARK    2  A    between atoms: C_2  and  C_4
REMARK    3  A    between atoms: N_6  and  C_7
REMARK    4  A    between atoms: C_7  and  C_8
REMARK    5  A    between atoms: C_12  and  N_13
REMARK                            x       y       z     vdW  Elec       q    Type
REMARK                         _______ _______ _______ _____ _____    ______ ____
ROOT
ATOM      1  C   UNL     1       7.057   4.956  14.449  0.00  0.00    +0.000 A 
ATOM      2  C   UNL     1       7.563   5.445  15.590  0.00  0.00    +0.000 A 
ATOM      3  N   UNL     1       7.001   5.326  16.857  0.00  0.00    +0.000 N 
ATOM      4  C   UNL     1       5.776   4.638  16.998  0.00  0.00    +0.000 A 
ATOM      5  C   UNL     1       5.105   4.501  18.221  0.00  0.00    +0.000 A 
ATOM      6  C   UNL     1       3.900   3.786  18.376  0.00  0.00    +0.000 A 
ATOM      7  C   UNL     1       3.382   3.158  17.236  0.00  0.00    +0.000 A 
ATOM      8  F   UNL     1       2.251   2.438  17.306  0.00  0.00    +0.000 F 
ATOM      9  C   UNL     1       3.994   3.289  15.993  0.00  0.00    +0.000 A 
ATOM     10  C   UNL     1       5.168   4.040  15.879  0.00  0.00    +0.000 A 
ATOM     11  C   UNL     1       5.786   4.210  14.543  0.00  0.00    +0.000 A 
ATOM     12  O   UNL     1       5.262   3.759  13.526  0.00  0.00    +0.000 OA
ENDROOT
BRANCH   6  13
ATOM     13  N   UNL     1       3.347   3.713  19.638  0.00  0.00    +0.000 N 
ATOM     14  C   UNL     1       2.750   4.865  20.324  0.00  0.00    +0.000 C 
ATOM     15  C   UNL     1       1.532   4.355  21.142  0.00  0.00    +0.000 C 
ATOM     16  N   UNL     1       1.841   3.243  22.070  0.00  0.00    +0.000 NA
ATOM     17  C   UNL     1       2.542   2.159  21.352  0.00  0.00    +0.000 C 
ATOM     18  C   UNL     1       3.774   2.649  20.563  0.00  0.00    +0.000 C 
ATOM     19  H   UNL     1       0.967   2.876  22.443  0.00  0.00    +0.000 HD
ENDBRANCH   6  13
BRANCH   1  21
ATOM     20  O   UNL     1       8.701   5.989  13.073  0.00  0.00    +0.000 OA
ATOM     21  C   UNL     1       7.781   5.186  13.184  0.00  0.00    +0.000 C 
BRANCH  21  22
ATOM     22  O   UNL     1       7.343   4.447  12.143  0.00  0.00    +0.000 OA
ATOM     23  H   UNL     1       6.367   4.281  12.150  0.00  0.00    +0.000 HD
ENDBRANCH  21  22
ENDBRANCH   1  21
BRANCH   3  24
ATOM     24  C   UNL     1       7.681   5.886  18.044  0.00  0.00    +0.000 C 
BRANCH  24  25
ATOM     25  C   UNL     1       7.814   7.402  17.968  0.00  0.00    +0.000 C 
ATOM     26  F   UNL     1       6.652   7.923  17.484  0.00  0.00    +0.000 F 
ENDBRANCH  24  25
ENDBRANCH   3  24
TORSDOF 5
ENDMDL
MODEL 6
REMARK VINA RESULT:      -7.2      0.979      1.199
REMARK  Name = 
REMARK  5 active torsions:
REMARK  status: ('A' for Active; 'I' for Inactive)
REMARK    1  A    between atoms: C_2  and  O_3
REMARK    2  A    between atoms: C_2  and  C_4
REMARK    3  A    between atoms: N_6  and  C_7
REMARK    4  A    between atoms: C_7  and  C_8
REMARK    5  A    between atoms: C_12  and  N_13
REMARK                            x       y       z     vdW  Elec       q    Type
REMARK                         _______ _______ _______ _____ _____    ______ ____
ROOT
ATOM      1  C   UNL     1       5.232   5.021  17.396  0.00  0.00    +0.000 A 
ATOM      2  C   UNL     1       4.653   4.498  18.486  0.00  0.00    +0.000 A 
ATOM      3  N   UNL     1       3.681   5.105  19.274  0.00  0.00    +0.000 N 
ATOM      4  C   UNL     1       3.238   6.402  18.931  0.00  0.00    +0.000 A 
ATOM      5  C   UNL     1       2.296   7.118  19.683  0.00  0.00    +0.000 A 
ATOM      6  C   UNL     1       1.824   8.398  19.328  0.00  0.00    +0.000 A 
ATOM      7  C   UNL     1       2.311   8.949  18.136  0.00  0.00    +0.000 A 
ATOM      8  F   UNL     1       1.891  10.154  17.718  0.00  0.00    +0.000 F 
ATOM      9  C   UNL     1       3.269   8.292  17.371  0.00  0.00    +0.000 A 
ATOM     10  C   UNL     1       3.738   7.040  17.781  0.00  0.00    +0.000 A 
ATOM     11  C   UNL     1       4.791   6.368  16.982  0.00  0.00    +0.000 A 
ATOM     12  O   UNL     1       5.303   6.910  16.004  0.00  0.00    +0.000 OA
ENDROOT
BRANCH   6  13
ATOM     13  N   UNL     1       0.884   8.991  20.147  0.00  0.00    +0.000 N 
ATOM     14  C   UNL     1       0.517   8.464  21.466  0.00  0.00    +0.000 C 
ATOM     15  C   UNL     1       0.240   9.672  22.403  0.00  0.00    +0.000 C 
ATOM     16  N   UNL     1      -0.757  10.634  21.881  0.00  0.00    +0.000 NA
ATOM     17  C   UNL     1      -0.401  11.045  20.509  0.00  0.00    +0.000 C 
ATOM     18  C   UNL     1      -0.157   9.854  19.560  0.00  0.00    +0.000 C 
ATOM     19  H   UNL     1      -0.760  11.459  22.480  0.00  0.00    +0.000 HD
ENDBRANCH   6  13
BRANCH   1  21
ATOM     20  O   UNL     1       7.453   4.526  16.700  0.00  0.00    +0.000 OA
ATOM     21  C   UNL     1       6.261   4.241  16.682  0.00  0.00    +0.000 C 
BRANCH  21  22
ATOM     22  O   UNL     1       5.786   3.184  15.990  0.00  0.00    +0.000 OA
ATOM     23  H   UNL     1       6.255   3.020  15.134  0.00  0.00    +0.000 HD
ENDBRANCH  21  22
ENDBRANCH   1  21
BRANCH   3  24
ATOM     24  C   UNL     1       3.098   4.403  20.435  0.00  0.00    +0.000 C 
BRANCH  24  25
ATOM     25  C   UNL     1       1.919   3.520  20.041  0.00  0.00    +0.000 C 
ATOM     26  F   UNL     1       1.862   2.456  20.890  0.00  0.00    +0.000 F 
ENDBRANCH  24  25
ENDBRANCH   3  24
TORSDOF 5
ENDMDL
MODEL 7
REMARK VINA RESULT:      -7.1      2.522      3.733
REMARK  Name = 
REMARK  5 active torsions:
REMARK  status: ('A' for Active; 'I' for Inactive)
REMARK    1  A    between atoms: C_2  and  O_3
REMARK    2  A    between atoms: C_2  and  C_4
REMARK    3  A    between atoms: N_6  and  C_7
REMARK    4  A    between atoms: C_7  and  C_8
REMARK    5  A    between atoms: C_12  and  N_13
REMARK                            x       y       z     vdW  Elec       q    Type
REMARK                         _______ _______ _______ _____ _____    ______ ____
ROOT
ATOM      1  C   UNL     1       3.586   3.932  19.143  0.00  0.00    +0.000 A 
ATOM      2  C   UNL     1       4.003   4.806  18.215  0.00  0.00    +0.000 A 
ATOM      3  N   UNL     1       3.618   6.138  18.107  0.00  0.00    +0.000 N 
ATOM      4  C   UNL     1       2.694   6.658  19.040  0.00  0.00    +0.000 A 
ATOM      5  C   UNL     1       2.208   7.973  18.992  0.00  0.00    +0.000 A 
ATOM      6  C   UNL     1       1.313   8.510  19.940  0.00  0.00    +0.000 A 
ATOM      7  C   UNL     1       0.929   7.676  20.997  0.00  0.00    +0.000 A 
ATOM      8  F   UNL     1       0.099   8.121  21.954  0.00  0.00    +0.000 F 
ATOM      9  C   UNL     1       1.360   6.355  21.073  0.00  0.00    +0.000 A 
ATOM     10  C   UNL     1       2.217   5.852  20.090  0.00  0.00    +0.000 A 
ATOM     11  C   UNL     1       2.634   4.431  20.156  0.00  0.00    +0.000 A 
ATOM     12  O   UNL     1       2.198   3.669  21.017  0.00  0.00    +0.000 OA
ENDROOT
BRANCH   6  13
ATOM     13  N   UNL     1       0.921   9.825  19.788  0.00  0.00    +0.000 N 
ATOM     14  C   UNL     1       0.763  10.472  18.481  0.00  0.00    +0.000 C 
ATOM     15  C   UNL     1      -0.439  11.451  18.575  0.00  0.00    +0.000 C 
ATOM     16  N   UNL     1      -0.347  12.429  19.684  0.00  0.00    +0.000 NA
ATOM     17  C   UNL     1      -0.074  11.733  20.957  0.00  0.00    +0.000 C 
ATOM     18  C   UNL     1       1.139  10.783  20.885  0.00  0.00    +0.000 C 
ATOM     19  H   UNL     1      -1.236  12.920  19.762  0.00  0.00    +0.000 HD
ENDBRANCH   6  13
BRANCH   1  21
ATOM     20  O   UNL     1       3.699   1.713  18.293  0.00  0.00    +0.000 OA
ATOM     21  C   UNL     1       4.089   2.545  19.104  0.00  0.00    +0.000 C 
BRANCH  21  22
ATOM     22  O   UNL     1       5.012   2.255  20.045  0.00  0.00    +0.000 OA
ATOM     23  H   UNL     1       4.628   1.983  20.915  0.00  0.00    +0.000 HD
ENDBRANCH  21  22
ENDBRANCH   1  21
BRANCH   3  24
ATOM     24  C   UNL     1       4.180   7.007  17.053  0.00  0.00    +0.000 C 
BRANCH  24  25
ATOM     25  C   UNL     1       5.433   6.409  16.424  0.00  0.00    +0.000 C 
ATOM     26  F   UNL     1       5.206   6.204  15.096  0.00  0.00    +0.000 F 
ENDBRANCH  24  25
ENDBRANCH   3  24
TORSDOF 5
ENDMDL
MODEL 8
REMARK VINA RESULT:      -7.0      2.694      3.893
REMARK  Name = 
REMARK  5 active torsions:
REMARK  status: ('A' for Active; 'I' for Inactive)
REMARK    1  A    between atoms: C_2  and  O_3
REMARK    2  A    between atoms: C_2  and  C_4
REMARK    3  A    between atoms: N_6  and  C_7
REMARK    4  A    between atoms: C_7  and  C_8
REMARK    5  A    between atoms: C_12  and  N_13
REMARK                            x       y       z     vdW  Elec       q    Type
REMARK                         _______ _______ _______ _____ _____    ______ ____
ROOT
ATOM      1  C   UNL     1       3.475   4.583  19.503  0.00  0.00    +0.000 A 
ATOM      2  C   UNL     1       3.832   5.326  18.445  0.00  0.00    +0.000 A 
ATOM      3  N   UNL     1       3.397   6.616  18.161  0.00  0.00    +0.000 N 
ATOM      4  C   UNL     1       2.485   7.238  19.043  0.00  0.00    +0.000 A 
ATOM      5  C   UNL     1       1.953   8.516  18.824  0.00  0.00    +0.000 A 
ATOM      6  C   UNL     1       1.069   9.157  19.717  0.00  0.00    +0.000 A 
ATOM      7  C   UNL     1       0.748   8.473  20.896  0.00  0.00    +0.000 A 
ATOM      8  F   UNL     1      -0.068   9.027  21.808  0.00  0.00    +0.000 F 
ATOM      9  C   UNL     1       1.226   7.190  21.145  0.00  0.00    +0.000 A 
ATOM     10  C   UNL     1       2.070   6.577  20.213  0.00  0.00    +0.000 A 
ATOM     11  C   UNL     1       2.537   5.193  20.467  0.00  0.00    +0.000 A 
ATOM     12  O   UNL     1       2.156   4.551  21.443  0.00  0.00    +0.000 OA
ENDROOT
BRANCH   6  13
ATOM     13  N   UNL     1       0.627  10.424  19.393  0.00  0.00    +0.000 N 
ATOM     14  C   UNL     1       1.372  11.645  19.721  0.00  0.00    +0.000 C 
ATOM     15  C   UNL     1       1.171  12.654  18.557  0.00  0.00    +0.000 C 
ATOM     16  N   UNL     1      -0.245  12.928  18.222  0.00  0.00    +0.000 NA
ATOM     17  C   UNL     1      -0.975  11.661  18.013  0.00  0.00    +0.000 C 
ATOM     18  C   UNL     1      -0.811  10.664  19.179  0.00  0.00    +0.000 C 
ATOM     19  H   UNL     1      -0.278  13.471  17.360  0.00  0.00    +0.000 HD
ENDBRANCH   6  13
BRANCH   1  21
ATOM     20  O   UNL     1       5.224   2.985  19.727  0.00  0.00    +0.000 OA
ATOM     21  C   UNL     1       4.024   3.221  19.644  0.00  0.00    +0.000 C 
BRANCH  21  22
ATOM     22  O   UNL     1       3.096   2.240  19.663  0.00  0.00    +0.000 OA
ATOM     23  H   UNL     1       3.391   1.400  19.231  0.00  0.00    +0.000 HD
ENDBRANCH  21  22
ENDBRANCH   1  21
BRANCH   3  24
ATOM     24  C   UNL     1       3.896   7.341  16.974  0.00  0.00    +0.000 C 
BRANCH  24  25
ATOM     25  C   UNL     1       5.204   6.758  16.453  0.00  0.00    +0.000 C 
ATOM     26  F   UNL     1       4.954   6.066  15.307  0.00  0.00    +0.000 F 
ENDBRANCH  24  25
ENDBRANCH   3  24
TORSDOF 5
ENDMDL
MODEL 9
REMARK VINA RESULT:      -6.8      3.221      6.667
REMARK  Name = 
REMARK  5 active torsions:
REMARK  status: ('A' for Active; 'I' for Inactive)
REMARK    1  A    between atoms: C_2  and  O_3
REMARK    2  A    between atoms: C_2  and  C_4
REMARK    3  A    between atoms: N_6  and  C_7
REMARK    4  A    between atoms: C_7  and  C_8
REMARK    5  A    between atoms: C_12  and  N_13
REMARK                            x       y       z     vdW  Elec       q    Type
REMARK                         _______ _______ _______ _____ _____    ______ ____
ROOT
ATOM      1  C   UNL     1       0.916  11.181  19.288  0.00  0.00    +0.000 A 
ATOM      2  C   UNL     1       0.473  10.530  20.373  0.00  0.00    +0.000 A 
ATOM      3  N   UNL     1       0.712   9.196  20.687  0.00  0.00    +0.000 N 
ATOM      4  C   UNL     1       1.485   8.415  19.800  0.00  0.00    +0.000 A 
ATOM      5  C   UNL     1       1.747   7.052  20.002  0.00  0.00    +0.000 A 
ATOM      6  C   UNL     1       2.546   6.274  19.139  0.00  0.00    +0.000 A 
ATOM      7  C   UNL     1       3.128   6.929  18.047  0.00  0.00    +0.000 A 
ATOM      8  F   UNL     1       3.922   6.263  17.193  0.00  0.00    +0.000 F 
ATOM      9  C   UNL     1       2.875   8.273  17.787  0.00  0.00    +0.000 A 
ATOM     10  C   UNL     1       2.045   8.997  18.648  0.00  0.00    +0.000 A 
ATOM     11  C   UNL     1       1.746  10.415  18.337  0.00  0.00    +0.000 A 
ATOM     12  O   UNL     1       2.160  10.952  17.311  0.00  0.00    +0.000 OA
ENDROOT
BRANCH   6  13
ATOM     13  N   UNL     1       2.739   4.945  19.458  0.00  0.00    +0.000 N 
ATOM     14  C   UNL     1       1.728   4.124  20.134  0.00  0.00    +0.000 C 
ATOM     15  C   UNL     1       1.814   2.686  19.554  0.00  0.00    +0.000 C 
ATOM     16  N   UNL     1       3.166   2.083  19.614  0.00  0.00    +0.000 NA
ATOM     17  C   UNL     1       4.161   2.999  19.022  0.00  0.00    +0.000 C 
ATOM     18  C   UNL     1       4.107   4.422  19.615  0.00  0.00    +0.000 C 
ATOM     19  H   UNL     1       3.160   1.215  19.079  0.00  0.00    +0.000 HD
ENDBRANCH   6  13
BRANCH   1  21
ATOM     20  O   UNL     1       0.806  13.470  19.928  0.00  0.00    +0.000 OA
ATOM     21  C   UNL     1       0.555  12.600  19.103  0.00  0.00    +0.000 C 
BRANCH  21  22
ATOM     22  O   UNL     1      -0.089  12.870  17.948  0.00  0.00    +0.000 OA
ATOM     23  H   UNL     1       0.458  13.365  17.288  0.00  0.00    +0.000 HD
ENDBRANCH  21  22
ENDBRANCH   1  21
BRANCH   3  24
ATOM     24  C   UNL     1       0.192   8.606  21.938  0.00  0.00    +0.000 C 
BRANCH  24  25
ATOM     25  C   UNL     1      -0.290   9.670  22.918  0.00  0.00    +0.000 C 
ATOM     26  F   UNL     1       0.150   9.350  24.167  0.00  0.00    +0.000 F 
ENDBRANCH  24  25
ENDBRANCH   3  24
TORSDOF 5
ENDMDL
