MODEL 1
REMARK VINA RESULT:      -5.7      0.000      0.000
REMARK  Name = 
REMARK  3 active torsions:
REMARK  status: ('A' for Active; 'I' for Inactive)
REMARK    1  A    between atoms: C_1  and  C_2
REMARK    2  A    between atoms: C_2  and  C_3
REMARK    3  A    between atoms: C_9  and  O_10
REMARK                            x       y       z     vdW  Elec       q    Type
REMARK                         _______ _______ _______ _____ _____    ______ ____
ROOT
ATOM      1  C   UNL     1       3.608   3.720  17.967  0.00  0.00    +0.000 A 
ATOM      2  C   UNL     1       2.340   4.151  18.043  0.00  0.00    +0.000 A 
ATOM      3  C   UNL     1       1.375   4.001  19.095  0.00  0.00    +0.000 A 
ATOM      4  C   UNL     1       1.512   3.470  20.311  0.00  0.00    +0.000 A 
ATOM      5  C   UNL     1       2.688   2.847  20.936  0.00  0.00    +0.000 A 
ATOM      6  O   UNL     1       2.614   2.467  22.109  0.00  0.00    +0.000 OA
ATOM      7  C   UNL     1       3.971   2.604  20.221  0.00  0.00    +0.000 A 
ATOM      8  C   UNL     1       4.318   2.965  18.981  0.00  0.00    +0.000 A 
ENDROOT
BRANCH   1  10
ATOM      9  C   UNL     1       4.847   5.443  16.532  0.00  0.00    +0.000 C 
ATOM     10  C   UNL     1       4.401   3.992  16.693  0.00  0.00    +0.000 C 
ENDBRANCH   1  10
BRANCH   7  11
ATOM     11  O   UNL     1       4.920   1.905  20.973  0.00  0.00    +0.000 OA
ATOM     12  H   UNL     1       5.755   2.003  20.465  0.00  0.00    +0.000 HD
ENDBRANCH   7  11
TORSDOF 2
ENDMDL
MODEL 2
REMARK VINA RESULT:      -5.6      1.981      2.713
REMARK  Name = 
REMARK  3 active torsions:
REMARK  status: ('A' for Active; 'I' for Inactive)
REMARK    1  A    between atoms: C_1  and  C_2
REMARK    2  A    between atoms: C_2  and  C_3
REMARK    3  A    between atoms: C_9  and  O_10
REMARK                            x       y       z     vdW  Elec       q    Type
REMARK                         _______ _______ _______ _____ _____    ______ ____
ROOT
ATOM      1  C   UNL     1       2.727   5.658  19.774  0.00  0.00    +0.000 A 
ATOM      2  C   UNL     1       1.860   5.008  20.564  0.00  0.00    +0.000 A 
ATOM      3  C   UNL     1       1.888   3.658  21.054  0.00  0.00    +0.000 A 
ATOM      4  C   UNL     1       2.831   2.723  20.926  0.00  0.00    +0.000 A 
ATOM      5  C   UNL     1       4.118   2.777  20.216  0.00  0.00    +0.000 A 
ATOM      6  O   UNL     1       4.876   1.804  20.272  0.00  0.00    +0.000 OA
ATOM      7  C   UNL     1       4.553   3.934  19.386  0.00  0.00    +0.000 A 
ATOM      8  C   UNL     1       3.946   5.112  19.210  0.00  0.00    +0.000 A 
ENDROOT
BRANCH   1  10
ATOM      9  C   UNL     1       2.950   7.488  17.997  0.00  0.00    +0.000 C 
ATOM     10  C   UNL     1       2.420   7.097  19.374  0.00  0.00    +0.000 C 
ENDBRANCH   1  10
BRANCH   7  11
ATOM     11  O   UNL     1       5.764   3.731  18.716  0.00  0.00    +0.000 OA
ATOM     12  H   UNL     1       5.637   4.166  17.844  0.00  0.00    +0.000 HD
ENDBRANCH   7  11
TORSDOF 2
ENDMDL
MODEL 3
REMARK VINA RESULT:      -5.5      2.926      4.579
REMARK  Name = 
REMARK  3 active torsions:
REMARK  status: ('A' for Active; 'I' for Inactive)
REMARK    1  A    between atoms: C_1  and  C_2
REMARK    2  A    between atoms: C_2  and  C_3
REMARK    3  A    between atoms: C_9  and  O_10
REMARK                            x       y       z     vdW  Elec       q    Type
REMARK                         _______ _______ _______ _____ _____    ______ ____
ROOT
ATOM      1  C   UNL     1       2.544   4.430  17.895  0.00  0.00    +0.000 A 
ATOM      2  C   UNL     1       2.390   5.736  18.161  0.00  0.00    +0.000 A 
ATOM      3  C   UNL     1       3.267   6.842  17.898  0.00  0.00    +0.000 A 
ATOM      4  C   UNL     1       4.428   6.875  17.240  0.00  0.00    +0.000 A 
ATOM      5  C   UNL     1       5.180   5.781  16.608  0.00  0.00    +0.000 A 
ATOM      6  O   UNL     1       6.218   6.044  15.993  0.00  0.00    +0.000 OA
ATOM      7  C   UNL     1       4.785   4.349  16.699  0.00  0.00    +0.000 A 
ATOM      8  C   UNL     1       3.691   3.817  17.253  0.00  0.00    +0.000 A 
ENDROOT
BRANCH   1  10
ATOM      9  C   UNL     1       1.029   3.605  19.787  0.00  0.00    +0.000 C 
ATOM     10  C   UNL     1       1.451   3.458  18.328  0.00  0.00    +0.000 C 
ENDBRANCH   1  10
BRANCH   7  11
ATOM     11  O   UNL     1       5.699   3.467  16.114  0.00  0.00    +0.000 OA
ATOM     12  H   UNL     1       6.339   3.266  16.831  0.00  0.00    +0.000 HD
ENDBRANCH   7  11
TORSDOF 2
ENDMDL
MODEL 4
REMARK VINA RESULT:      -5.5      3.895      4.629
REMARK  Name = 
REMARK  3 active torsions:
REMARK  status: ('A' for Active; 'I' for Inactive)
REMARK    1  A    between atoms: C_1  and  C_2
REMARK    2  A    between atoms: C_2  and  C_3
REMARK    3  A    between atoms: C_9  and  O_10
REMARK                            x       y       z     vdW  Elec       q    Type
REMARK                         _______ _______ _______ _____ _____    ______ ____
ROOT
ATOM      1  C   UNL     1       6.395   5.061  15.216  0.00  0.00    +0.000 A 
ATOM      2  C   UNL     1       5.275   5.743  15.501  0.00  0.00    +0.000 A 
ATOM      3  C   UNL     1       4.710   6.103  16.770  0.00  0.00    +0.000 A 
ATOM      4  C   UNL     1       5.196   5.931  18.001  0.00  0.00    +0.000 A 
ATOM      5  C   UNL     1       6.447   5.292  18.436  0.00  0.00    +0.000 A 
ATOM      6  O   UNL     1       6.735   5.291  19.637  0.00  0.00    +0.000 OA
ATOM      7  C   UNL     1       7.384   4.597  17.511  0.00  0.00    +0.000 A 
ATOM      8  C   UNL     1       7.327   4.506  16.178  0.00  0.00    +0.000 A 
ENDROOT
BRANCH   1  10
ATOM      9  C   UNL     1       5.918   3.661  13.125  0.00  0.00    +0.000 C 
ATOM     10  C   UNL     1       6.736   4.785  13.755  0.00  0.00    +0.000 C 
ENDBRANCH   1  10
BRANCH   7  11
ATOM     11  O   UNL     1       8.457   3.970  18.150  0.00  0.00    +0.000 OA
ATOM     12  H   UNL     1       8.847   4.670  18.719  0.00  0.00    +0.000 HD
ENDBRANCH   7  11
TORSDOF 2
ENDMDL
MODEL 5
REMARK VINA RESULT:      -5.5      3.337      4.741
REMARK  Name = 
REMARK  3 active torsions:
REMARK  status: ('A' for Active; 'I' for Inactive)
REMARK    1  A    between atoms: C_1  and  C_2
REMARK    2  A    between atoms: C_2  and  C_3
REMARK    3  A    between atoms: C_9  and  O_10
REMARK                            x       y       z     vdW  Elec       q    Type
REMARK                         _______ _______ _______ _____ _____    ______ ____
ROOT
ATOM      1  C   UNL     1       3.686   4.453  17.718  0.00  0.00    +0.000 A 
ATOM      2  C   UNL     1       4.207   5.015  18.819  0.00  0.00    +0.000 A 
ATOM      3  C   UNL     1       5.577   5.268  19.168  0.00  0.00    +0.000 A 
ATOM      4  C   UNL     1       6.688   5.091  18.450  0.00  0.00    +0.000 A 
ATOM      5  C   UNL     1       6.852   4.554  17.091  0.00  0.00    +0.000 A 
ATOM      6  O   UNL     1       7.980   4.531  16.587  0.00  0.00    +0.000 OA
ATOM      7  C   UNL     1       5.734   3.989  16.287  0.00  0.00    +0.000 A 
ATOM      8  C   UNL     1       4.430   3.948  16.581  0.00  0.00    +0.000 A 
ENDROOT
BRANCH   1  10
ATOM      9  C   UNL     1       1.499   4.014  18.975  0.00  0.00    +0.000 C 
ATOM     10  C   UNL     1       2.174   4.271  17.631  0.00  0.00    +0.000 C 
ENDBRANCH   1  10
BRANCH   7  11
ATOM     11  O   UNL     1       6.132   3.438  15.064  0.00  0.00    +0.000 OA
ATOM     12  H   UNL     1       6.570   4.180  14.592  0.00  0.00    +0.000 HD
ENDBRANCH   7  11
TORSDOF 2
ENDMDL
MODEL 6
REMARK VINA RESULT:      -5.4      3.497      4.133
REMARK  Name = 
REMARK  3 active torsions:
REMARK  status: ('A' for Active; 'I' for Inactive)
REMARK    1  A    between atoms: C_1  and  C_2
REMARK    2  A    between atoms: C_2  and  C_3
REMARK    3  A    between atoms: C_9  and  O_10
REMARK                            x       y       z     vdW  Elec       q    Type
REMARK                         _______ _______ _______ _____ _____    ______ ____
ROOT
ATOM      1  C   UNL     1       5.397   4.890  15.977  0.00  0.00    +0.000 A 
ATOM      2  C   UNL     1       4.396   5.442  16.679  0.00  0.00    +0.000 A 
ATOM      3  C   UNL     1       4.309   5.750  18.078  0.00  0.00    +0.000 A 
ATOM      4  C   UNL     1       5.235   5.649  19.034  0.00  0.00    +0.000 A 
ATOM      5  C   UNL     1       6.620   5.162  18.953  0.00  0.00    +0.000 A 
ATOM      6  O   UNL     1       7.333   5.209  19.960  0.00  0.00    +0.000 OA
ATOM      7  C   UNL     1       7.214   4.569  17.724  0.00  0.00    +0.000 A 
ATOM      8  C   UNL     1       6.676   4.456  16.505  0.00  0.00    +0.000 A 
ENDROOT
BRANCH   1  10
ATOM      9  C   UNL     1       6.335   3.864  13.826  0.00  0.00    +0.000 C 
ATOM     10  C   UNL     1       5.197   4.638  14.486  0.00  0.00    +0.000 C 
ENDBRANCH   1  10
BRANCH   7  11
ATOM     11  O   UNL     1       8.511   4.075  17.898  0.00  0.00    +0.000 OA
ATOM     12  H   UNL     1       8.762   3.728  17.014  0.00  0.00    +0.000 HD
ENDBRANCH   7  11
TORSDOF 2
ENDMDL
MODEL 7
REMARK VINA RESULT:      -5.4      3.910      5.391
REMARK  Name = 
REMARK  3 active torsions:
REMARK  status: ('A' for Active; 'I' for Inactive)
REMARK    1  A    between atoms: C_1  and  C_2
REMARK    2  A    between atoms: C_2  and  C_3
REMARK    3  A    between atoms: C_9  and  O_10
REMARK                            x       y       z     vdW  Elec       q    Type
REMARK                         _______ _______ _______ _____ _____    ______ ____
ROOT
ATOM      1  C   UNL     1       3.938   5.456  18.395  0.00  0.00    +0.000 A 
ATOM      2  C   UNL     1       4.838   5.149  19.341  0.00  0.00    +0.000 A 
ATOM      3  C   UNL     1       6.271   5.233  19.316  0.00  0.00    +0.000 A 
ATOM      4  C   UNL     1       7.082   5.723  18.376  0.00  0.00    +0.000 A 
ATOM      5  C   UNL     1       6.756   6.300  17.064  0.00  0.00    +0.000 A 
ATOM      6  O   UNL     1       7.668   6.753  16.364  0.00  0.00    +0.000 OA
ATOM      7  C   UNL     1       5.381   6.336  16.496  0.00  0.00    +0.000 A 
ATOM      8  C   UNL     1       4.231   5.963  17.068  0.00  0.00    +0.000 A 
ENDROOT
BRANCH   1  10
ATOM      9  C   UNL     1       1.756   4.331  17.667  0.00  0.00    +0.000 C 
ATOM     10  C   UNL     1       2.459   5.225  18.685  0.00  0.00    +0.000 C 
ENDBRANCH   1  10
BRANCH   7  11
ATOM     11  O   UNL     1       5.314   6.833  15.191  0.00  0.00    +0.000 OA
ATOM     12  H   UNL     1       4.798   7.665  15.272  0.00  0.00    +0.000 HD
ENDBRANCH   7  11
TORSDOF 2
ENDMDL
MODEL 8
REMARK VINA RESULT:      -5.4      2.681      3.182
REMARK  Name = 
REMARK  3 active torsions:
REMARK  status: ('A' for Active; 'I' for Inactive)
REMARK    1  A    between atoms: C_1  and  C_2
REMARK    2  A    between atoms: C_2  and  C_3
REMARK    3  A    between atoms: C_9  and  O_10
REMARK                            x       y       z     vdW  Elec       q    Type
REMARK                         _______ _______ _______ _____ _____    ______ ____
ROOT
ATOM      1  C   UNL     1       2.570   6.264  18.613  0.00  0.00    +0.000 A 
ATOM      2  C   UNL     1       2.210   6.367  19.901  0.00  0.00    +0.000 A 
ATOM      3  C   UNL     1       1.660   5.381  20.788  0.00  0.00    +0.000 A 
ATOM      4  C   UNL     1       1.445   4.079  20.590  0.00  0.00    +0.000 A 
ATOM      5  C   UNL     1       1.678   3.260  19.391  0.00  0.00    +0.000 A 
ATOM      6  O   UNL     1       1.460   2.045  19.442  0.00  0.00    +0.000 OA
ATOM      7  C   UNL     1       2.125   3.819  18.086  0.00  0.00    +0.000 A 
ATOM      8  C   UNL     1       2.475   5.075  17.789  0.00  0.00    +0.000 A 
ENDROOT
BRANCH   1  10
ATOM      9  C   UNL     1       2.087   8.646  17.804  0.00  0.00    +0.000 C 
ATOM     10  C   UNL     1       3.095   7.504  17.896  0.00  0.00    +0.000 C 
ENDBRANCH   1  10
BRANCH   7  11
ATOM     11  O   UNL     1       2.181   2.878  17.052  0.00  0.00    +0.000 OA
ATOM     12  H   UNL     1       2.092   3.411  16.231  0.00  0.00    +0.000 HD
ENDBRANCH   7  11
TORSDOF 2
ENDMDL
MODEL 9
REMARK VINA RESULT:      -5.4      2.679      4.470
REMARK  Name = 
REMARK  3 active torsions:
REMARK  status: ('A' for Active; 'I' for Inactive)
REMARK    1  A    between atoms: C_1  and  C_2
REMARK    2  A    between atoms: C_2  and  C_3
REMARK    3  A    between atoms: C_9  and  O_10
REMARK                            x       y       z     vdW  Elec       q    Type
REMARK                         _______ _______ _______ _____ _____    ______ ____
ROOT
ATOM      1  C   UNL     1       3.813   5.113  18.458  0.00  0.00    +0.000 A 
ATOM      2  C   UNL     1       3.728   4.673  17.193  0.00  0.00    +0.000 A 
ATOM      3  C   UNL     1       4.766   4.324  16.265  0.00  0.00    +0.000 A 
ATOM      4  C   UNL     1       6.087   4.259  16.446  0.00  0.00    +0.000 A 
ATOM      5  C   UNL     1       6.887   4.555  17.643  0.00  0.00    +0.000 A 
ATOM      6  O   UNL     1       8.108   4.372  17.610  0.00  0.00    +0.000 OA
ATOM      7  C   UNL     1       6.316   5.113  18.900  0.00  0.00    +0.000 A 
ATOM      8  C   UNL     1       5.035   5.347  19.203  0.00  0.00    +0.000 A 
ENDROOT
BRANCH   1  10
ATOM      9  C   UNL     1       2.110   4.402  20.233  0.00  0.00    +0.000 C 
ATOM     10  C   UNL     1       2.527   5.451  19.206  0.00  0.00    +0.000 C 
ENDBRANCH   1  10
BRANCH   7  11
ATOM     11  O   UNL     1       7.270   5.417  19.875  0.00  0.00    +0.000 OA
ATOM     12  H   UNL     1       8.033   4.836  19.661  0.00  0.00    +0.000 HD
ENDBRANCH   7  11
TORSDOF 2
ENDMDL
