MODEL 1
REMARK VINA RESULT:      -7.5      0.000      0.000
REMARK  Name = 
REMARK  8 active torsions:
REMARK  status: ('A' for Active; 'I' for Inactive)
REMARK    1  A    between atoms: C_1  and  C_2
REMARK    2  A    between atoms: C_2  and  N_3
REMARK    3  A    between atoms: N_3  and  C_4
REMARK    4  A    between atoms: C_4  and  C_5
REMARK    5  A    between atoms: C_5  and  C_6
REMARK    6  A    between atoms: C_6  and  N_7
REMARK    7  A    between atoms: N_18  and  C_19
REMARK    8  A    between atoms: C_19  and  C_20
REMARK                            x       y       z     vdW  Elec       q    Type
REMARK                         _______ _______ _______ _____ _____    ______ ____
ROOT
ATOM      1  C   UNL     1       3.534   7.351  16.788  0.00  0.00    +0.000 C 
ATOM      2  C   UNL     1       3.888   6.403  17.917  0.00  0.00    +0.000 C 
ATOM      3  C   UNL     1       5.181   6.080  18.165  0.00  0.00    +0.000 C 
ATOM      4  C   UNL     1       5.601   5.097  19.189  0.00  0.00    +0.000 C 
ATOM      5  O   UNL     1       4.905   4.737  20.132  0.00  0.00    +0.000 OA
ATOM      6  N   UNL     1       6.853   4.589  18.973  0.00  0.00    +0.000 N 
ATOM      7  C   UNL     1       7.535   4.649  17.784  0.00  0.00    +0.000 C 
ATOM      8  O   UNL     1       8.522   3.934  17.620  0.00  0.00    +0.000 OA
ATOM      9  N   UNL     1       7.060   5.544  16.852  0.00  0.00    +0.000 N 
ATOM     10  C   UNL     1       6.246   6.571  17.260  0.00  0.00    +0.000 C 
ATOM     11  O   UNL     1       6.357   7.741  16.920  0.00  0.00    +0.000 OA
ATOM     12  H   UNL     1       7.171   3.885  19.625  0.00  0.00    +0.000 HD
ENDROOT
BRANCH   2  13
ATOM     13  N   UNL     1       2.787   5.780  18.527  0.00  0.00    +0.000 N 
ATOM     14  H   UNL     1       2.111   6.505  18.800  0.00  0.00    +0.000 HD
BRANCH  13  15
ATOM     15  C   UNL     1       2.002   4.770  17.806  0.00  0.00    +0.000 C 
BRANCH  15  16
ATOM     16  C   UNL     1       2.829   3.532  17.494  0.00  0.00    +0.000 C 
BRANCH  16  17
ATOM     17  C   UNL     1       2.265   2.295  18.187  0.00  0.00    +0.000 C 
BRANCH  17  18
ATOM     18  N   UNL     1       2.199   2.453  19.625  0.00  0.00    +0.000 N 
ATOM     19  C   UNL     1       1.114   2.854  20.350  0.00  0.00    +0.000 A 
ATOM     20  C   UNL     1       1.558   2.896  21.650  0.00  0.00    +0.000 A 
ATOM     21  N   UNL     1       2.878   2.530  21.729  0.00  0.00    +0.000 NA
ATOM     22  C   UNL     1       3.238   2.273  20.491  0.00  0.00    +0.000 A 
ENDBRANCH  17  18
ENDBRANCH  16  17
ENDBRANCH  15  16
ENDBRANCH  13  15
ENDBRANCH   2  13
BRANCH   9  23
ATOM     23  C   UNL     1       7.715   5.661  15.558  0.00  0.00    +0.000 C 
BRANCH  23  24
ATOM     24  C   UNL     1       6.959   4.908  14.477  0.00  0.00    +0.000 A 
ATOM     25  C   UNL     1       7.506   4.707  13.198  0.00  0.00    +0.000 A 
ATOM     26  C   UNL     1       6.805   3.976  12.234  0.00  0.00    +0.000 A 
ATOM     27  C   UNL     1       5.554   3.447  12.520  0.00  0.00    +0.000 A 
ATOM     28  C   UNL     1       4.987   3.665  13.775  0.00  0.00    +0.000 A 
ATOM     29  C   UNL     1       5.682   4.390  14.743  0.00  0.00    +0.000 A 
ENDBRANCH  23  24
ENDBRANCH   9  23
TORSDOF 7
ENDMDL
MODEL 2
REMARK VINA RESULT:      -7.3      3.709      7.668
REMARK  Name = 
REMARK  8 active torsions:
REMARK  status: ('A' for Active; 'I' for Inactive)
REMARK    1  A    between atoms: C_1  and  C_2
REMARK    2  A    between atoms: C_2  and  N_3
REMARK    3  A    between atoms: N_3  and  C_4
REMARK    4  A    between atoms: C_4  and  C_5
REMARK    5  A    between atoms: C_5  and  C_6
REMARK    6  A    between atoms: C_6  and  N_7
REMARK    7  A    between atoms: N_18  and  C_19
REMARK    8  A    between atoms: C_19  and  C_20
REMARK                            x       y       z     vdW  Elec       q    Type
REMARK                         _______ _______ _______ _____ _____    ______ ____
ROOT
ATOM      1  C   UNL     1       5.323   6.877  15.625  0.00  0.00    +0.000 C 
ATOM      2  C   UNL     1       6.275   6.151  16.553  0.00  0.00    +0.000 C 
ATOM      3  C   UNL     1       5.869   5.051  17.235  0.00  0.00    +0.000 C 
ATOM      4  C   UNL     1       6.709   4.340  18.224  0.00  0.00    +0.000 C 
ATOM      5  O   UNL     1       7.930   4.429  18.289  0.00  0.00    +0.000 OA
ATOM      6  N   UNL     1       5.988   3.578  19.103  0.00  0.00    +0.000 N 
ATOM      7  C   UNL     1       4.641   3.705  19.335  0.00  0.00    +0.000 C 
ATOM      8  O   UNL     1       4.150   3.166  20.326  0.00  0.00    +0.000 OA
ATOM      9  N   UNL     1       3.925   4.425  18.407  0.00  0.00    +0.000 N 
ATOM     10  C   UNL     1       4.454   4.621  17.155  0.00  0.00    +0.000 C 
ATOM     11  O   UNL     1       3.849   4.481  16.101  0.00  0.00    +0.000 OA
ATOM     12  H   UNL     1       6.514   3.102  19.822  0.00  0.00    +0.000 HD
ENDROOT
BRANCH   2  13
ATOM     13  N   UNL     1       7.499   6.806  16.768  0.00  0.00    +0.000 N 
ATOM     14  H   UNL     1       7.699   7.400  15.954  0.00  0.00    +0.000 HD
BRANCH  13  15
ATOM     15  C   UNL     1       7.690   7.675  17.938  0.00  0.00    +0.000 C 
BRANCH  15  16
ATOM     16  C   UNL     1       8.129   9.073  17.534  0.00  0.00    +0.000 C 
BRANCH  16  17
ATOM     17  C   UNL     1       8.899   9.762  18.657  0.00  0.00    +0.000 C 
BRANCH  17  18
ATOM     18  N   UNL     1       9.421  11.052  18.255  0.00  0.00    +0.000 N 
ATOM     19  C   UNL     1      10.727  11.448  18.291  0.00  0.00    +0.000 A 
ATOM     20  C   UNL     1      10.708  12.754  17.863  0.00  0.00    +0.000 A 
ATOM     21  N   UNL     1       9.430  13.155  17.570  0.00  0.00    +0.000 NA
ATOM     22  C   UNL     1       8.674  12.109  17.821  0.00  0.00    +0.000 A 
ENDBRANCH  17  18
ENDBRANCH  16  17
ENDBRANCH  15  16
ENDBRANCH  13  15
ENDBRANCH   2  13
BRANCH   9  23
ATOM     23  C   UNL     1       2.495   4.621  18.585  0.00  0.00    +0.000 C 
BRANCH  23  24
ATOM     24  C   UNL     1       2.177   6.026  19.067  0.00  0.00    +0.000 A 
ATOM     25  C   UNL     1       2.309   7.143  18.224  0.00  0.00    +0.000 A 
ATOM     26  C   UNL     1       1.972   8.420  18.681  0.00  0.00    +0.000 A 
ATOM     27  C   UNL     1       1.512   8.608  19.978  0.00  0.00    +0.000 A 
ATOM     28  C   UNL     1       1.406   7.513  20.833  0.00  0.00    +0.000 A 
ATOM     29  C   UNL     1       1.736   6.235  20.383  0.00  0.00    +0.000 A 
ENDBRANCH  23  24
ENDBRANCH   9  23
TORSDOF 7
ENDMDL
MODEL 3
REMARK VINA RESULT:      -7.1      3.705      7.621
REMARK  Name = 
REMARK  8 active torsions:
REMARK  status: ('A' for Active; 'I' for Inactive)
REMARK    1  A    between atoms: C_1  and  C_2
REMARK    2  A    between atoms: C_2  and  N_3
REMARK    3  A    between atoms: N_3  and  C_4
REMARK    4  A    between atoms: C_4  and  C_5
REMARK    5  A    between atoms: C_5  and  C_6
REMARK    6  A    between atoms: C_6  and  N_7
REMARK    7  A    between atoms: N_18  and  C_19
REMARK    8  A    between atoms: C_19  and  C_20
REMARK                            x       y       z     vdW  Elec       q    Type
REMARK                         _______ _______ _______ _____ _____    ______ ____
ROOT
ATOM      1  C   UNL     1       5.375   6.892  15.586  0.00  0.00    +0.000 C 
ATOM      2  C   UNL     1       6.336   6.184  16.521  0.00  0.00    +0.000 C 
ATOM      3  C   UNL     1       5.958   5.057  17.173  0.00  0.00    +0.000 C 
ATOM      4  C   UNL     1       6.804   4.359  18.166  0.00  0.00    +0.000 C 
ATOM      5  O   UNL     1       8.019   4.493  18.259  0.00  0.00    +0.000 OA
ATOM      6  N   UNL     1       6.095   3.553  19.015  0.00  0.00    +0.000 N 
ATOM      7  C   UNL     1       4.740   3.624  19.221  0.00  0.00    +0.000 C 
ATOM      8  O   UNL     1       4.249   3.048  20.191  0.00  0.00    +0.000 OA
ATOM      9  N   UNL     1       4.016   4.335  18.291  0.00  0.00    +0.000 N 
ATOM     10  C   UNL     1       4.563   4.575  17.055  0.00  0.00    +0.000 C 
ATOM     11  O   UNL     1       3.986   4.432  15.986  0.00  0.00    +0.000 OA
ATOM     12  H   UNL     1       6.624   3.083  19.737  0.00  0.00    +0.000 HD
ENDROOT
BRANCH   2  13
ATOM     13  N   UNL     1       7.528   6.881  16.774  0.00  0.00    +0.000 N 
ATOM     14  H   UNL     1       7.688   7.547  16.007  0.00  0.00    +0.000 HD
BRANCH  13  15
ATOM     15  C   UNL     1       7.693   7.664  18.006  0.00  0.00    +0.000 C 
BRANCH  15  16
ATOM     16  C   UNL     1       8.325   9.020  17.731  0.00  0.00    +0.000 C 
BRANCH  16  17
ATOM     17  C   UNL     1       8.952   9.609  18.991  0.00  0.00    +0.000 C 
BRANCH  17  18
ATOM     18  N   UNL     1       9.460  10.948  18.778  0.00  0.00    +0.000 N 
ATOM     19  C   UNL     1       9.254  12.034  19.581  0.00  0.00    +0.000 A 
ATOM     20  C   UNL     1       9.888  13.070  18.937  0.00  0.00    +0.000 A 
ATOM     21  N   UNL     1      10.470  12.640  17.772  0.00  0.00    +0.000 NA
ATOM     22  C   UNL     1      10.191  11.357  17.700  0.00  0.00    +0.000 A 
ENDBRANCH  17  18
ENDBRANCH  16  17
ENDBRANCH  15  16
ENDBRANCH  13  15
ENDBRANCH   2  13
BRANCH   9  23
ATOM     23  C   UNL     1       2.576   4.472  18.442  0.00  0.00    +0.000 C 
BRANCH  23  24
ATOM     24  C   UNL     1       2.200   5.822  19.028  0.00  0.00    +0.000 A 
ATOM     25  C   UNL     1       1.733   5.951  20.348  0.00  0.00    +0.000 A 
ATOM     26  C   UNL     1       1.431   7.210  20.874  0.00  0.00    +0.000 A 
ATOM     27  C   UNL     1       1.577   8.353  20.099  0.00  0.00    +0.000 A 
ATOM     28  C   UNL     1       2.009   8.237  18.779  0.00  0.00    +0.000 A 
ATOM     29  C   UNL     1       2.316   6.984  18.248  0.00  0.00    +0.000 A 
ENDBRANCH  23  24
ENDBRANCH   9  23
TORSDOF 7
ENDMDL
MODEL 4
REMARK VINA RESULT:      -6.8      0.598      1.344
REMARK  Name = 
REMARK  8 active torsions:
REMARK  status: ('A' for Active; 'I' for Inactive)
REMARK    1  A    between atoms: C_1  and  C_2
REMARK    2  A    between atoms: C_2  and  N_3
REMARK    3  A    between atoms: N_3  and  C_4
REMARK    4  A    between atoms: C_4  and  C_5
REMARK    5  A    between atoms: C_5  and  C_6
REMARK    6  A    between atoms: C_6  and  N_7
REMARK    7  A    between atoms: N_18  and  C_19
REMARK    8  A    between atoms: C_19  and  C_20
REMARK                            x       y       z     vdW  Elec       q    Type
REMARK                         _______ _______ _______ _____ _____    ______ ____
ROOT
ATOM      1  C   UNL     1       3.589   7.439  16.736  0.00  0.00    +0.000 C 
ATOM      2  C   UNL     1       3.954   6.535  17.896  0.00  0.00    +0.000 C 
ATOM      3  C   UNL     1       5.248   6.196  18.125  0.00  0.00    +0.000 C 
ATOM      4  C   UNL     1       5.674   5.250  19.180  0.00  0.00    +0.000 C 
ATOM      5  O   UNL     1       4.997   4.946  20.156  0.00  0.00    +0.000 OA
ATOM      6  N   UNL     1       6.910   4.706  18.955  0.00  0.00    +0.000 N 
ATOM      7  C   UNL     1       7.561   4.700  17.747  0.00  0.00    +0.000 C 
ATOM      8  O   UNL     1       8.529   3.958  17.590  0.00  0.00    +0.000 OA
ATOM      9  N   UNL     1       7.080   5.563  16.789  0.00  0.00    +0.000 N 
ATOM     10  C   UNL     1       6.297   6.624  17.173  0.00  0.00    +0.000 C 
ATOM     11  O   UNL     1       6.422   7.775  16.779  0.00  0.00    +0.000 OA
ATOM     12  H   UNL     1       7.231   4.025  19.629  0.00  0.00    +0.000 HD
ENDROOT
BRANCH   2  13
ATOM     13  N   UNL     1       2.858   5.962  18.561  0.00  0.00    +0.000 N 
ATOM     14  H   UNL     1       2.441   6.672  19.175  0.00  0.00    +0.000 HD
BRANCH  13  15
ATOM     15  C   UNL     1       1.734   5.395  17.805  0.00  0.00    +0.000 C 
BRANCH  15  16
ATOM     16  C   UNL     1       1.880   3.893  17.621  0.00  0.00    +0.000 C 
BRANCH  16  17
ATOM     17  C   UNL     1       1.428   3.132  18.864  0.00  0.00    +0.000 C 
BRANCH  17  18
ATOM     18  N   UNL     1       2.545   2.646  19.648  0.00  0.00    +0.000 N 
ATOM     19  C   UNL     1       3.684   2.067  19.167  0.00  0.00    +0.000 A 
ATOM     20  C   UNL     1       4.407   1.735  20.289  0.00  0.00    +0.000 A 
ATOM     21  N   UNL     1       3.737   2.098  21.429  0.00  0.00    +0.000 NA
ATOM     22  C   UNL     1       2.615   2.640  21.011  0.00  0.00    +0.000 A 
ENDBRANCH  17  18
ENDBRANCH  16  17
ENDBRANCH  15  16
ENDBRANCH  13  15
ENDBRANCH   2  13
BRANCH   9  23
ATOM     23  C   UNL     1       7.702   5.610  15.476  0.00  0.00    +0.000 C 
BRANCH  23  24
ATOM     24  C   UNL     1       6.897   4.837  14.446  0.00  0.00    +0.000 A 
ATOM     25  C   UNL     1       5.603   4.364  14.724  0.00  0.00    +0.000 A 
ATOM     26  C   UNL     1       4.869   3.689  13.744  0.00  0.00    +0.000 A 
ATOM     27  C   UNL     1       5.409   3.466  12.485  0.00  0.00    +0.000 A 
ATOM     28  C   UNL     1       6.703   3.903  12.206  0.00  0.00    +0.000 A 
ATOM     29  C   UNL     1       7.440   4.580  13.177  0.00  0.00    +0.000 A 
ENDBRANCH  23  24
ENDBRANCH   9  23
TORSDOF 7
ENDMDL
MODEL 5
REMARK VINA RESULT:      -6.8      0.906      1.811
REMARK  Name = 
REMARK  8 active torsions:
REMARK  status: ('A' for Active; 'I' for Inactive)
REMARK    1  A    between atoms: C_1  and  C_2
REMARK    2  A    between atoms: C_2  and  N_3
REMARK    3  A    between atoms: N_3  and  C_4
REMARK    4  A    between atoms: C_4  and  C_5
REMARK    5  A    between atoms: C_5  and  C_6
REMARK    6  A    between atoms: C_6  and  N_7
REMARK    7  A    between atoms: N_18  and  C_19
REMARK    8  A    between atoms: C_19  and  C_20
REMARK                            x       y       z     vdW  Elec       q    Type
REMARK                         _______ _______ _______ _____ _____    ______ ____
ROOT
ATOM      1  C   UNL     1       3.335   7.494  17.240  0.00  0.00    +0.000 C 
ATOM      2  C   UNL     1       3.777   6.389  18.177  0.00  0.00    +0.000 C 
ATOM      3  C   UNL     1       5.083   6.028  18.252  0.00  0.00    +0.000 C 
ATOM      4  C   UNL     1       5.579   4.903  19.075  0.00  0.00    +0.000 C 
ATOM      5  O   UNL     1       4.968   4.409  20.016  0.00  0.00    +0.000 OA
ATOM      6  N   UNL     1       6.797   4.429  18.669  0.00  0.00    +0.000 N 
ATOM      7  C   UNL     1       7.365   4.663  17.442  0.00  0.00    +0.000 C 
ATOM      8  O   UNL     1       8.321   3.978  17.082  0.00  0.00    +0.000 OA
ATOM      9  N   UNL     1       6.822   5.688  16.702  0.00  0.00    +0.000 N 
ATOM     10  C   UNL     1       6.066   6.645  17.333  0.00  0.00    +0.000 C 
ATOM     11  O   UNL     1       6.165   7.852  17.160  0.00  0.00    +0.000 OA
ATOM     12  H   UNL     1       7.162   3.635  19.177  0.00  0.00    +0.000 HD
ENDROOT
BRANCH   2  13
ATOM     13  N   UNL     1       2.727   5.685  18.790  0.00  0.00    +0.000 N 
ATOM     14  H   UNL     1       3.022   4.710  18.926  0.00  0.00    +0.000 HD
BRANCH  13  15
ATOM     15  C   UNL     1       2.196   6.113  20.091  0.00  0.00    +0.000 C 
BRANCH  15  16
ATOM     16  C   UNL     1       1.619   4.945  20.875  0.00  0.00    +0.000 C 
BRANCH  16  17
ATOM     17  C   UNL     1       0.914   3.950  19.957  0.00  0.00    +0.000 C 
BRANCH  17  18
ATOM     18  N   UNL     1       1.845   3.062  19.291  0.00  0.00    +0.000 N 
ATOM     19  C   UNL     1       1.940   2.843  17.947  0.00  0.00    +0.000 A 
ATOM     20  C   UNL     1       2.925   1.892  17.817  0.00  0.00    +0.000 A 
ATOM     21  N   UNL     1       3.425   1.534  19.042  0.00  0.00    +0.000 NA
ATOM     22  C   UNL     1       2.751   2.253  19.913  0.00  0.00    +0.000 A 
ENDBRANCH  17  18
ENDBRANCH  16  17
ENDBRANCH  15  16
ENDBRANCH  13  15
ENDBRANCH   2  13
BRANCH   9  23
ATOM     23  C   UNL     1       7.355   5.994  15.384  0.00  0.00    +0.000 C 
BRANCH  23  24
ATOM     24  C   UNL     1       6.814   5.048  14.326  0.00  0.00    +0.000 A 
ATOM     25  C   UNL     1       5.571   4.408  14.475  0.00  0.00    +0.000 A 
ATOM     26  C   UNL     1       5.079   3.572  13.468  0.00  0.00    +0.000 A 
ATOM     27  C   UNL     1       5.814   3.353  12.310  0.00  0.00    +0.000 A 
ATOM     28  C   UNL     1       7.061   3.957  12.164  0.00  0.00    +0.000 A 
ATOM     29  C   UNL     1       7.557   4.795  13.162  0.00  0.00    +0.000 A 
ENDBRANCH  23  24
ENDBRANCH   9  23
TORSDOF 7
ENDMDL
MODEL 6
REMARK VINA RESULT:      -6.7      4.122      8.011
REMARK  Name = 
REMARK  8 active torsions:
REMARK  status: ('A' for Active; 'I' for Inactive)
REMARK    1  A    between atoms: C_1  and  C_2
REMARK    2  A    between atoms: C_2  and  N_3
REMARK    3  A    between atoms: N_3  and  C_4
REMARK    4  A    between atoms: C_4  and  C_5
REMARK    5  A    between atoms: C_5  and  C_6
REMARK    6  A    between atoms: C_6  and  N_7
REMARK    7  A    between atoms: N_18  and  C_19
REMARK    8  A    between atoms: C_19  and  C_20
REMARK                            x       y       z     vdW  Elec       q    Type
REMARK                         _______ _______ _______ _____ _____    ______ ____
ROOT
ATOM      1  C   UNL     1       6.325   8.340  16.789  0.00  0.00    +0.000 C 
ATOM      2  C   UNL     1       7.065   7.329  17.641  0.00  0.00    +0.000 C 
ATOM      3  C   UNL     1       6.592   6.065  17.778  0.00  0.00    +0.000 C 
ATOM      4  C   UNL     1       7.207   5.048  18.660  0.00  0.00    +0.000 C 
ATOM      5  O   UNL     1       8.358   5.097  19.078  0.00  0.00    +0.000 OA
ATOM      6  N   UNL     1       6.351   4.036  19.003  0.00  0.00    +0.000 N 
ATOM      7  C   UNL     1       4.984   4.088  18.892  0.00  0.00    +0.000 C 
ATOM      8  O   UNL     1       4.302   3.245  19.472  0.00  0.00    +0.000 OA
ATOM      9  N   UNL     1       4.472   5.092  18.101  0.00  0.00    +0.000 N 
ATOM     10  C   UNL     1       5.287   5.703  17.180  0.00  0.00    +0.000 C 
ATOM     11  O   UNL     1       4.987   5.941  16.018  0.00  0.00    +0.000 OA
ATOM     12  H   UNL     1       6.713   3.336  19.635  0.00  0.00    +0.000 HD
ENDROOT
BRANCH   2  13
ATOM     13  N   UNL     1       8.132   7.858  18.385  0.00  0.00    +0.000 N 
ATOM     14  H   UNL     1       8.969   7.289  18.207  0.00  0.00    +0.000 HD
BRANCH  13  15
ATOM     15  C   UNL     1       8.563   9.249  18.196  0.00  0.00    +0.000 C 
BRANCH  15  16
ATOM     16  C   UNL     1       9.327   9.771  19.403  0.00  0.00    +0.000 C 
BRANCH  16  17
ATOM     17  C   UNL     1       9.206  11.287  19.527  0.00  0.00    +0.000 C 
BRANCH  17  18
ATOM     18  N   UNL     1      10.091  11.985  18.617  0.00  0.00    +0.000 N 
ATOM     19  C   UNL     1       9.729  12.903  17.674  0.00  0.00    +0.000 A 
ATOM     20  C   UNL     1      10.903  13.236  17.041  0.00  0.00    +0.000 A 
ATOM     21  N   UNL     1      11.961  12.547  17.576  0.00  0.00    +0.000 NA
ATOM     22  C   UNL     1      11.440  11.797  18.522  0.00  0.00    +0.000 A 
ENDBRANCH  17  18
ENDBRANCH  16  17
ENDBRANCH  15  16
ENDBRANCH  13  15
ENDBRANCH   2  13
BRANCH   9  23
ATOM     23  C   UNL     1       3.033   5.228  17.941  0.00  0.00    +0.000 C 
BRANCH  23  24
ATOM     24  C   UNL     1       2.521   6.521  18.551  0.00  0.00    +0.000 A 
ATOM     25  C   UNL     1       2.364   7.688  17.782  0.00  0.00    +0.000 A 
ATOM     26  C   UNL     1       1.854   8.854  18.360  0.00  0.00    +0.000 A 
ATOM     27  C   UNL     1       1.503   8.882  19.704  0.00  0.00    +0.000 A 
ATOM     28  C   UNL     1       1.683   7.741  20.484  0.00  0.00    +0.000 A 
ATOM     29  C   UNL     1       2.188   6.573  19.914  0.00  0.00    +0.000 A 
ENDBRANCH  23  24
ENDBRANCH   9  23
TORSDOF 7
ENDMDL
MODEL 7
REMARK VINA RESULT:      -6.7      7.526     10.042
REMARK  Name = 
REMARK  8 active torsions:
REMARK  status: ('A' for Active; 'I' for Inactive)
REMARK    1  A    between atoms: C_1  and  C_2
REMARK    2  A    between atoms: C_2  and  N_3
REMARK    3  A    between atoms: N_3  and  C_4
REMARK    4  A    between atoms: C_4  and  C_5
REMARK    5  A    between atoms: C_5  and  C_6
REMARK    6  A    between atoms: C_6  and  N_7
REMARK    7  A    between atoms: N_18  and  C_19
REMARK    8  A    between atoms: C_19  and  C_20
REMARK                            x       y       z     vdW  Elec       q    Type
REMARK                         _______ _______ _______ _____ _____    ______ ____
ROOT
ATOM      1  C   UNL     1       9.079  12.087  21.101  0.00  0.00    +0.000 C 
ATOM      2  C   UNL     1       9.935  12.055  19.850  0.00  0.00    +0.000 C 
ATOM      3  C   UNL     1      10.428  13.204  19.324  0.00  0.00    +0.000 C 
ATOM      4  C   UNL     1      11.196  13.266  18.061  0.00  0.00    +0.000 C 
ATOM      5  O   UNL     1      11.759  12.308  17.543  0.00  0.00    +0.000 OA
ATOM      6  N   UNL     1      11.199  14.508  17.487  0.00  0.00    +0.000 N 
ATOM      7  C   UNL     1      10.318  15.517  17.786  0.00  0.00    +0.000 C 
ATOM      8  O   UNL     1      10.236  16.485  17.031  0.00  0.00    +0.000 OA
ATOM      9  N   UNL     1       9.594  15.373  18.947  0.00  0.00    +0.000 N 
ATOM     10  C   UNL     1      10.040  14.506  19.913  0.00  0.00    +0.000 C 
ATOM     11  O   UNL     1      10.101  14.751  21.111  0.00  0.00    +0.000 OA
ATOM     12  H   UNL     1      11.679  14.593  16.601  0.00  0.00    +0.000 HD
ENDROOT
BRANCH   2  13
ATOM     13  N   UNL     1      10.004  10.803  19.218  0.00  0.00    +0.000 N 
ATOM     14  H   UNL     1      10.161  10.084  19.935  0.00  0.00    +0.000 HD
BRANCH  13  15
ATOM     15  C   UNL     1       8.883  10.307  18.409  0.00  0.00    +0.000 C 
BRANCH  15  16
ATOM     16  C   UNL     1       8.621   8.830  18.656  0.00  0.00    +0.000 C 
BRANCH  16  17
ATOM     17  C   UNL     1       7.748   8.227  17.560  0.00  0.00    +0.000 C 
BRANCH  17  18
ATOM     18  N   UNL     1       7.590   6.795  17.708  0.00  0.00    +0.000 N 
ATOM     19  C   UNL     1       7.166   5.920  16.749  0.00  0.00    +0.000 A 
ATOM     20  C   UNL     1       7.134   4.699  17.381  0.00  0.00    +0.000 A 
ATOM     21  N   UNL     1       7.526   4.813  18.690  0.00  0.00    +0.000 NA
ATOM     22  C   UNL     1       7.790   6.090  18.860  0.00  0.00    +0.000 A 
ENDBRANCH  17  18
ENDBRANCH  16  17
ENDBRANCH  15  16
ENDBRANCH  13  15
ENDBRANCH   2  13
BRANCH   9  23
ATOM     23  C   UNL     1       8.627  16.389  19.331  0.00  0.00    +0.000 C 
BRANCH  23  24
ATOM     24  C   UNL     1       7.231  16.050  18.839  0.00  0.00    +0.000 A 
ATOM     25  C   UNL     1       6.943  14.816  18.228  0.00  0.00    +0.000 A 
ATOM     26  C   UNL     1       5.641  14.514  17.820  0.00  0.00    +0.000 A 
ATOM     27  C   UNL     1       4.613  15.431  18.001  0.00  0.00    +0.000 A 
ATOM     28  C   UNL     1       4.891  16.669  18.577  0.00  0.00    +0.000 A 
ATOM     29  C   UNL     1       6.188  16.976  18.991  0.00  0.00    +0.000 A 
ENDBRANCH  23  24
ENDBRANCH   9  23
TORSDOF 7
ENDMDL
MODEL 8
REMARK VINA RESULT:      -6.7      2.424      7.021
REMARK  Name = 
REMARK  8 active torsions:
REMARK  status: ('A' for Active; 'I' for Inactive)
REMARK    1  A    between atoms: C_1  and  C_2
REMARK    2  A    between atoms: C_2  and  N_3
REMARK    3  A    between atoms: N_3  and  C_4
REMARK    4  A    between atoms: C_4  and  C_5
REMARK    5  A    between atoms: C_5  and  C_6
REMARK    6  A    between atoms: C_6  and  N_7
REMARK    7  A    between atoms: N_18  and  C_19
REMARK    8  A    between atoms: C_19  and  C_20
REMARK                            x       y       z     vdW  Elec       q    Type
REMARK                         _______ _______ _______ _____ _____    ______ ____
ROOT
ATOM      1  C   UNL     1       5.138   3.307  17.813  0.00  0.00    +0.000 C 
ATOM      2  C   UNL     1       5.058   4.523  16.912  0.00  0.00    +0.000 C 
ATOM      3  C   UNL     1       4.692   5.729  17.413  0.00  0.00    +0.000 C 
ATOM      4  C   UNL     1       4.506   6.940  16.584  0.00  0.00    +0.000 C 
ATOM      5  O   UNL     1       4.976   7.093  15.462  0.00  0.00    +0.000 OA
ATOM      6  N   UNL     1       3.719   7.890  17.178  0.00  0.00    +0.000 N 
ATOM      7  C   UNL     1       2.872   7.664  18.234  0.00  0.00    +0.000 C 
ATOM      8  O   UNL     1       2.021   8.507  18.512  0.00  0.00    +0.000 OA
ATOM      9  N   UNL     1       3.062   6.492  18.930  0.00  0.00    +0.000 N 
ATOM     10  C   UNL     1       4.263   5.836  18.826  0.00  0.00    +0.000 C 
ATOM     11  O   UNL     1       4.902   5.377  19.762  0.00  0.00    +0.000 OA
ATOM     12  H   UNL     1       3.531   8.722  16.635  0.00  0.00    +0.000 HD
ENDROOT
BRANCH   2  13
ATOM     13  N   UNL     1       5.211   4.249  15.543  0.00  0.00    +0.000 N 
ATOM     14  H   UNL     1       4.853   5.050  15.007  0.00  0.00    +0.000 HD
BRANCH  13  15
ATOM     15  C   UNL     1       6.537   3.968  14.978  0.00  0.00    +0.000 C 
BRANCH  15  16
ATOM     16  C   UNL     1       6.926   4.988  13.919  0.00  0.00    +0.000 C 
BRANCH  16  17
ATOM     17  C   UNL     1       7.437   4.309  12.652  0.00  0.00    +0.000 C 
BRANCH  17  18
ATOM     18  N   UNL     1       6.476   3.376  12.102  0.00  0.00    +0.000 N 
ATOM     19  C   UNL     1       6.737   2.119  11.638  0.00  0.00    +0.000 A 
ATOM     20  C   UNL     1       5.526   1.657  11.179  0.00  0.00    +0.000 A 
ATOM     21  N   UNL     1       4.544   2.599  11.354  0.00  0.00    +0.000 NA
ATOM     22  C   UNL     1       5.148   3.626  11.908  0.00  0.00    +0.000 A 
ENDBRANCH  17  18
ENDBRANCH  16  17
ENDBRANCH  15  16
ENDBRANCH  13  15
ENDBRANCH   2  13
BRANCH   9  23
ATOM     23  C   UNL     1       2.198   6.168  20.055  0.00  0.00    +0.000 C 
BRANCH  23  24
ATOM     24  C   UNL     1       1.795   4.704  20.047  0.00  0.00    +0.000 A 
ATOM     25  C   UNL     1       1.355   4.064  18.875  0.00  0.00    +0.000 A 
ATOM     26  C   UNL     1       1.027   2.705  18.888  0.00  0.00    +0.000 A 
ATOM     27  C   UNL     1       1.119   1.968  20.061  0.00  0.00    +0.000 A 
ATOM     28  C   UNL     1       1.524   2.597  21.237  0.00  0.00    +0.000 A 
ATOM     29  C   UNL     1       1.857   3.951  21.231  0.00  0.00    +0.000 A 
ENDBRANCH  23  24
ENDBRANCH   9  23
TORSDOF 7
ENDMDL
MODEL 9
REMARK VINA RESULT:      -6.6      7.575     10.014
REMARK  Name = 
REMARK  8 active torsions:
REMARK  status: ('A' for Active; 'I' for Inactive)
REMARK    1  A    between atoms: C_1  and  C_2
REMARK    2  A    between atoms: C_2  and  N_3
REMARK    3  A    between atoms: N_3  and  C_4
REMARK    4  A    between atoms: C_4  and  C_5
REMARK    5  A    between atoms: C_5  and  C_6
REMARK    6  A    between atoms: C_6  and  N_7
REMARK    7  A    between atoms: N_18  and  C_19
REMARK    8  A    between atoms: C_19  and  C_20
REMARK                            x       y       z     vdW  Elec       q    Type
REMARK                         _______ _______ _______ _____ _____    ______ ____
ROOT
ATOM      1  C   UNL     1       8.962  12.517  20.959  0.00  0.00    +0.000 C 
ATOM      2  C   UNL     1       9.938  12.228  19.835  0.00  0.00    +0.000 C 
ATOM      3  C   UNL     1      10.590  13.241  19.212  0.00  0.00    +0.000 C 
ATOM      4  C   UNL     1      11.488  13.049  18.052  0.00  0.00    +0.000 C 
ATOM      5  O   UNL     1      12.011  11.982  17.748  0.00  0.00    +0.000 OA
ATOM      6  N   UNL     1      11.668  14.185  17.310  0.00  0.00    +0.000 N 
ATOM      7  C   UNL     1      10.859  15.292  17.354  0.00  0.00    +0.000 C 
ATOM      8  O   UNL     1      10.948  16.136  16.464  0.00  0.00    +0.000 OA
ATOM      9  N   UNL     1      10.007  15.384  18.430  0.00  0.00    +0.000 N 
ATOM     10  C   UNL     1      10.265  14.644  19.557  0.00  0.00    +0.000 C 
ATOM     11  O   UNL     1      10.222  15.064  20.706  0.00  0.00    +0.000 OA
ATOM     12  H   UNL     1      12.245  14.096  16.484  0.00  0.00    +0.000 HD
ENDROOT
BRANCH   2  13
ATOM     13  N   UNL     1       9.956  10.892  19.403  0.00  0.00    +0.000 N 
ATOM     14  H   UNL     1       9.908  10.281  20.227  0.00  0.00    +0.000 HD
BRANCH  13  15
ATOM     15  C   UNL     1       8.926  10.386  18.486  0.00  0.00    +0.000 C 
BRANCH  15  16
ATOM     16  C   UNL     1       8.658   8.905  18.703  0.00  0.00    +0.000 C 
BRANCH  16  17
ATOM     17  C   UNL     1       7.807   8.322  17.579  0.00  0.00    +0.000 C 
BRANCH  17  18
ATOM     18  N   UNL     1       7.372   6.970  17.864  0.00  0.00    +0.000 N 
ATOM     19  C   UNL     1       6.346   6.302  17.260  0.00  0.00    +0.000 A 
ATOM     20  C   UNL     1       6.294   5.087  17.902  0.00  0.00    +0.000 A 
ATOM     21  N   UNL     1       7.258   5.005  18.874  0.00  0.00    +0.000 NA
ATOM     22  C   UNL     1       7.890   6.157  18.831  0.00  0.00    +0.000 A 
ENDBRANCH  17  18
ENDBRANCH  16  17
ENDBRANCH  15  16
ENDBRANCH  13  15
ENDBRANCH   2  13
BRANCH   9  23
ATOM     23  C   UNL     1       9.104  16.519  18.548  0.00  0.00    +0.000 C 
BRANCH  23  24
ATOM     24  C   UNL     1       7.650  16.083  18.525  0.00  0.00    +0.000 A 
ATOM     25  C   UNL     1       6.653  16.800  19.210  0.00  0.00    +0.000 A 
ATOM     26  C   UNL     1       5.316  16.398  19.140  0.00  0.00    +0.000 A 
ATOM     27  C   UNL     1       4.951  15.280  18.402  0.00  0.00    +0.000 A 
ATOM     28  C   UNL     1       5.934  14.543  17.743  0.00  0.00    +0.000 A 
ATOM     29  C   UNL     1       7.270  14.939  17.805  0.00  0.00    +0.000 A 
ENDBRANCH  23  24
ENDBRANCH   9  23
TORSDOF 7
ENDMDL
