MODEL 1
REMARK VINA RESULT:      -7.5      0.000      0.000
REMARK  Name = 
REMARK  5 active torsions:
REMARK  status: ('A' for Active; 'I' for Inactive)
REMARK    1  A    between atoms: C_1  and  O_2
REMARK    2  A    between atoms: O_2  and  C_3
REMARK    3  A    between atoms: C_7  and  C_8
REMARK    4  A    between atoms: C_8  and  C_9
REMARK    5  A    between atoms: C_9  and  C_10
REMARK                            x       y       z     vdW  Elec       q    Type
REMARK                         _______ _______ _______ _____ _____    ______ ____
ROOT
ATOM      1  C   UNL     1       5.288   3.937  16.971  0.00  0.00    +0.000 A 
ATOM      2  C   UNL     1       6.083   4.833  17.682  0.00  0.00    +0.000 A 
ATOM      3  C   UNL     1       7.084   5.509  17.002  0.00  0.00    +0.000 A 
ATOM      4  N   UNL     1       7.339   5.363  15.681  0.00  0.00    +0.000 NA
ATOM      5  C   UNL     1       6.545   4.516  14.991  0.00  0.00    +0.000 A 
ATOM      6  N   UNL     1       6.701   4.353  13.609  0.00  0.00    +0.000 N 
ATOM      7  C   UNL     1       7.561   4.950  12.754  0.00  0.00    +0.000 C 
ATOM      8  N   UNL     1       8.462   5.815  13.245  0.00  0.00    +0.000 N 
ATOM      9  O   UNL     1       7.509   4.710  11.550  0.00  0.00    +0.000 OA
ATOM     10  C   UNL     1       5.527   3.783  15.600  0.00  0.00    +0.000 A 
ATOM     11  H   UNL     1       6.068   3.726  13.135  0.00  0.00    +0.000 HD
ATOM     12  H   UNL     1       8.633   5.811  14.246  0.00  0.00    +0.000 HD
ATOM     13  H   UNL     1       9.162   6.178  12.619  0.00  0.00    +0.000 HD
ENDROOT
BRANCH   1  14
ATOM     14  C   UNL     1       4.166   3.188  17.650  0.00  0.00    +0.000 C 
BRANCH  14  15
ATOM     15  C   UNL     1       2.809   3.850  17.394  0.00  0.00    +0.000 C 
BRANCH  15  20
ATOM     16  C   UNL     1       2.124   7.120  19.239  0.00  0.00    +0.000 A 
ATOM     17  C   UNL     1       1.770   6.644  20.502  0.00  0.00    +0.000 A 
ATOM     18  C   UNL     1       1.722   5.274  20.757  0.00  0.00    +0.000 A 
ATOM     19  C   UNL     1       2.042   4.367  19.746  0.00  0.00    +0.000 A 
ATOM     20  C   UNL     1       2.415   4.825  18.477  0.00  0.00    +0.000 A 
ATOM     21  C   UNL     1       2.435   6.209  18.227  0.00  0.00    +0.000 A 
BRANCH  16  23
ATOM     22  C   UNL     1       1.958   9.025  17.825  0.00  0.00    +0.000 C 
ATOM     23  O   UNL     1       2.144   8.484  19.126  0.00  0.00    +0.000 OA
ENDBRANCH  16  23
ENDBRANCH  15  20
ENDBRANCH  14  15
ENDBRANCH   1  14
TORSDOF 4
ENDMDL
MODEL 2
REMARK VINA RESULT:      -7.4      4.481      7.955
REMARK  Name = 
REMARK  5 active torsions:
REMARK  status: ('A' for Active; 'I' for Inactive)
REMARK    1  A    between atoms: C_1  and  O_2
REMARK    2  A    between atoms: O_2  and  C_3
REMARK    3  A    between atoms: C_7  and  C_8
REMARK    4  A    between atoms: C_8  and  C_9
REMARK    5  A    between atoms: C_9  and  C_10
REMARK                            x       y       z     vdW  Elec       q    Type
REMARK                         _______ _______ _______ _____ _____    ______ ____
ROOT
ATOM      1  C   UNL     1       2.378   7.299  19.277  0.00  0.00    +0.000 A 
ATOM      2  C   UNL     1       2.202   8.114  18.160  0.00  0.00    +0.000 A 
ATOM      3  C   UNL     1       1.464   9.278  18.304  0.00  0.00    +0.000 A 
ATOM      4  N   UNL     1       0.905   9.685  19.467  0.00  0.00    +0.000 NA
ATOM      5  C   UNL     1       1.105   8.908  20.552  0.00  0.00    +0.000 A 
ATOM      6  N   UNL     1       0.614   9.288  21.807  0.00  0.00    +0.000 N 
ATOM      7  C   UNL     1      -0.069  10.395  22.175  0.00  0.00    +0.000 C 
ATOM      8  N   UNL     1      -0.398  11.293  21.234  0.00  0.00    +0.000 N 
ATOM      9  O   UNL     1      -0.373  10.576  23.352  0.00  0.00    +0.000 OA
ATOM     10  C   UNL     1       1.820   7.712  20.493  0.00  0.00    +0.000 A 
ATOM     11  H   UNL     1       0.811   8.684  22.592  0.00  0.00    +0.000 HD
ATOM     12  H   UNL     1      -0.344  11.007  20.261  0.00  0.00    +0.000 HD
ATOM     13  H   UNL     1      -0.991  12.062  21.497  0.00  0.00    +0.000 HD
ENDROOT
BRANCH   1  14
ATOM     14  C   UNL     1       3.192   6.030  19.191  0.00  0.00    +0.000 C 
BRANCH  14  15
ATOM     15  C   UNL     1       3.075   5.376  17.811  0.00  0.00    +0.000 C 
BRANCH  15  20
ATOM     16  C   UNL     1       6.631   6.001  16.575  0.00  0.00    +0.000 A 
ATOM     17  C   UNL     1       6.860   4.846  15.827  0.00  0.00    +0.000 A 
ATOM     18  C   UNL     1       5.887   3.851  15.741  0.00  0.00    +0.000 A 
ATOM     19  C   UNL     1       4.667   4.013  16.398  0.00  0.00    +0.000 A 
ATOM     20  C   UNL     1       4.412   5.173  17.139  0.00  0.00    +0.000 A 
ATOM     21  C   UNL     1       5.411   6.157  17.238  0.00  0.00    +0.000 A 
BRANCH  16  23
ATOM     22  C   UNL     1       7.709   7.835  17.638  0.00  0.00    +0.000 C 
ATOM     23  O   UNL     1       7.662   6.902  16.567  0.00  0.00    +0.000 OA
ENDBRANCH  16  23
ENDBRANCH  15  20
ENDBRANCH  14  15
ENDBRANCH   1  14
TORSDOF 4
ENDMDL
MODEL 3
REMARK VINA RESULT:      -7.4      4.307      7.444
REMARK  Name = 
REMARK  5 active torsions:
REMARK  status: ('A' for Active; 'I' for Inactive)
REMARK    1  A    between atoms: C_1  and  O_2
REMARK    2  A    between atoms: O_2  and  C_3
REMARK    3  A    between atoms: C_7  and  C_8
REMARK    4  A    between atoms: C_8  and  C_9
REMARK    5  A    between atoms: C_9  and  C_10
REMARK                            x       y       z     vdW  Elec       q    Type
REMARK                         _______ _______ _______ _____ _____    ______ ____
ROOT
ATOM      1  C   UNL     1       2.489   6.430  18.836  0.00  0.00    +0.000 A 
ATOM      2  C   UNL     1       2.373   7.383  17.826  0.00  0.00    +0.000 A 
ATOM      3  C   UNL     1       1.863   8.630  18.152  0.00  0.00    +0.000 A 
ATOM      4  N   UNL     1       1.475   8.991  19.397  0.00  0.00    +0.000 NA
ATOM      5  C   UNL     1       1.620   8.074  20.378  0.00  0.00    +0.000 A 
ATOM      6  N   UNL     1       1.301   8.386  21.705  0.00  0.00    +0.000 N 
ATOM      7  C   UNL     1       0.852   9.542  22.243  0.00  0.00    +0.000 C 
ATOM      8  N   UNL     1       0.614  10.583  21.429  0.00  0.00    +0.000 N 
ATOM      9  O   UNL     1       0.676   9.638  23.455  0.00  0.00    +0.000 OA
ATOM     10  C   UNL     1       2.107   6.790  20.134  0.00  0.00    +0.000 A 
ATOM     11  H   UNL     1       1.448   7.674  22.404  0.00  0.00    +0.000 HD
ATOM     12  H   UNL     1       0.542  10.403  20.432  0.00  0.00    +0.000 HD
ATOM     13  H   UNL     1       0.186  11.405  21.822  0.00  0.00    +0.000 HD
ENDROOT
BRANCH   1  14
ATOM     14  C   UNL     1       3.059   5.061  18.549  0.00  0.00    +0.000 C 
BRANCH  14  15
ATOM     15  C   UNL     1       4.103   5.108  17.430  0.00  0.00    +0.000 C 
BRANCH  15  20
ATOM     16  C   UNL     1       7.268   7.231  17.636  0.00  0.00    +0.000 A 
ATOM     17  C   UNL     1       7.948   6.595  18.675  0.00  0.00    +0.000 A 
ATOM     18  C   UNL     1       7.381   5.503  19.332  0.00  0.00    +0.000 A 
ATOM     19  C   UNL     1       6.128   5.031  18.941  0.00  0.00    +0.000 A 
ATOM     20  C   UNL     1       5.438   5.645  17.889  0.00  0.00    +0.000 A 
ATOM     21  C   UNL     1       6.009   6.760  17.253  0.00  0.00    +0.000 A 
BRANCH  16  23
ATOM     22  C   UNL     1       8.212   9.397  17.907  0.00  0.00    +0.000 C 
ATOM     23  O   UNL     1       7.940   8.280  17.070  0.00  0.00    +0.000 OA
ENDBRANCH  16  23
ENDBRANCH  15  20
ENDBRANCH  14  15
ENDBRANCH   1  14
TORSDOF 4
ENDMDL
MODEL 4
REMARK VINA RESULT:      -7.4      5.657      7.757
REMARK  Name = 
REMARK  5 active torsions:
REMARK  status: ('A' for Active; 'I' for Inactive)
REMARK    1  A    between atoms: C_1  and  O_2
REMARK    2  A    between atoms: O_2  and  C_3
REMARK    3  A    between atoms: C_7  and  C_8
REMARK    4  A    between atoms: C_8  and  C_9
REMARK    5  A    between atoms: C_9  and  C_10
REMARK                            x       y       z     vdW  Elec       q    Type
REMARK                         _______ _______ _______ _____ _____    ______ ____
ROOT
ATOM      1  C   UNL     1       7.276   6.988  18.061  0.00  0.00    +0.000 A 
ATOM      2  C   UNL     1       6.368   7.338  17.063  0.00  0.00    +0.000 A 
ATOM      3  C   UNL     1       5.294   6.495  16.824  0.00  0.00    +0.000 A 
ATOM      4  N   UNL     1       5.060   5.350  17.506  0.00  0.00    +0.000 NA
ATOM      5  C   UNL     1       5.925   5.032  18.492  0.00  0.00    +0.000 A 
ATOM      6  N   UNL     1       5.722   3.897  19.286  0.00  0.00    +0.000 N 
ATOM      7  C   UNL     1       4.724   2.986  19.263  0.00  0.00    +0.000 C 
ATOM      8  N   UNL     1       3.765   3.104  18.332  0.00  0.00    +0.000 N 
ATOM      9  O   UNL     1       4.693   2.075  20.087  0.00  0.00    +0.000 OA
ATOM     10  C   UNL     1       7.042   5.814  18.787  0.00  0.00    +0.000 A 
ATOM     11  H   UNL     1       6.385   3.716  20.026  0.00  0.00    +0.000 HD
ATOM     12  H   UNL     1       3.942   3.711  17.537  0.00  0.00    +0.000 HD
ATOM     13  H   UNL     1       3.082   2.368  18.257  0.00  0.00    +0.000 HD
ENDROOT
BRANCH   1  14
ATOM     14  C   UNL     1       8.453   7.877  18.385  0.00  0.00    +0.000 C 
BRANCH  14  15
ATOM     15  C   UNL     1       8.203   9.325  17.954  0.00  0.00    +0.000 C 
BRANCH  15  20
ATOM     16  C   UNL     1      11.013  11.885  18.298  0.00  0.00    +0.000 A 
ATOM     17  C   UNL     1      11.062  12.042  19.683  0.00  0.00    +0.000 A 
ATOM     18  C   UNL     1      10.176  11.350  20.509  0.00  0.00    +0.000 A 
ATOM     19  C   UNL     1       9.237  10.483  19.949  0.00  0.00    +0.000 A 
ATOM     20  C   UNL     1       9.183  10.299  18.562  0.00  0.00    +0.000 A 
ATOM     21  C   UNL     1      10.066  11.022  17.740  0.00  0.00    +0.000 A 
BRANCH  16  23
ATOM     22  C   UNL     1      11.703  14.006  17.472  0.00  0.00    +0.000 C 
ATOM     23  O   UNL     1      11.944  12.611  17.606  0.00  0.00    +0.000 OA
ENDBRANCH  16  23
ENDBRANCH  15  20
ENDBRANCH  14  15
ENDBRANCH   1  14
TORSDOF 4
ENDMDL
MODEL 5
REMARK VINA RESULT:      -7.4      5.798      7.680
REMARK  Name = 
REMARK  5 active torsions:
REMARK  status: ('A' for Active; 'I' for Inactive)
REMARK    1  A    between atoms: C_1  and  O_2
REMARK    2  A    between atoms: O_2  and  C_3
REMARK    3  A    between atoms: C_7  and  C_8
REMARK    4  A    between atoms: C_8  and  C_9
REMARK    5  A    between atoms: C_9  and  C_10
REMARK                            x       y       z     vdW  Elec       q    Type
REMARK                         _______ _______ _______ _____ _____    ______ ____
ROOT
ATOM      1  C   UNL     1       7.869   7.923  17.826  0.00  0.00    +0.000 A 
ATOM      2  C   UNL     1       8.179   7.043  18.861  0.00  0.00    +0.000 A 
ATOM      3  C   UNL     1       7.779   5.720  18.744  0.00  0.00    +0.000 A 
ATOM      4  N   UNL     1       7.108   5.220  17.681  0.00  0.00    +0.000 NA
ATOM      5  C   UNL     1       6.838   6.070  16.667  0.00  0.00    +0.000 A 
ATOM      6  N   UNL     1       6.203   5.620  15.504  0.00  0.00    +0.000 N 
ATOM      7  C   UNL     1       5.788   4.380  15.163  0.00  0.00    +0.000 C 
ATOM      8  N   UNL     1       5.940   3.383  16.049  0.00  0.00    +0.000 N 
ATOM      9  O   UNL     1       5.290   4.171  14.060  0.00  0.00    +0.000 OA
ATOM     10  C   UNL     1       7.188   7.420  16.710  0.00  0.00    +0.000 A 
ATOM     11  H   UNL     1       6.044   6.290  14.766  0.00  0.00    +0.000 HD
ATOM     12  H   UNL     1       6.128   3.628  17.017  0.00  0.00    +0.000 HD
ATOM     13  H   UNL     1       5.538   2.486  15.829  0.00  0.00    +0.000 HD
ENDROOT
BRANCH   1  14
ATOM     14  C   UNL     1       8.298   9.369  17.883  0.00  0.00    +0.000 C 
BRANCH  14  15
ATOM     15  C   UNL     1       8.966   9.708  19.218  0.00  0.00    +0.000 C 
BRANCH  15  20
ATOM     16  C   UNL     1      11.005  12.602  17.791  0.00  0.00    +0.000 A 
ATOM     17  C   UNL     1      11.777  12.955  18.898  0.00  0.00    +0.000 A 
ATOM     18  C   UNL     1      11.625  12.287  20.113  0.00  0.00    +0.000 A 
ATOM     19  C   UNL     1      10.702  11.246  20.223  0.00  0.00    +0.000 A 
ATOM     20  C   UNL     1       9.931  10.865  19.119  0.00  0.00    +0.000 A 
ATOM     21  C   UNL     1      10.076  11.564  17.907  0.00  0.00    +0.000 A 
BRANCH  16  23
ATOM     22  C   UNL     1      11.315  14.741  16.799  0.00  0.00    +0.000 C 
ATOM     23  O   UNL     1      11.261  13.328  16.659  0.00  0.00    +0.000 OA
ENDBRANCH  16  23
ENDBRANCH  15  20
ENDBRANCH  14  15
ENDBRANCH   1  14
TORSDOF 4
ENDMDL
MODEL 6
REMARK VINA RESULT:      -7.3      3.935      7.341
REMARK  Name = 
REMARK  5 active torsions:
REMARK  status: ('A' for Active; 'I' for Inactive)
REMARK    1  A    between atoms: C_1  and  O_2
REMARK    2  A    between atoms: O_2  and  C_3
REMARK    3  A    between atoms: C_7  and  C_8
REMARK    4  A    between atoms: C_8  and  C_9
REMARK    5  A    between atoms: C_9  and  C_10
REMARK                            x       y       z     vdW  Elec       q    Type
REMARK                         _______ _______ _______ _____ _____    ______ ____
ROOT
ATOM      1  C   UNL     1       2.418   5.884  19.034  0.00  0.00    +0.000 A 
ATOM      2  C   UNL     1       2.476   6.757  17.949  0.00  0.00    +0.000 A 
ATOM      3  C   UNL     1       2.126   8.083  18.150  0.00  0.00    +0.000 A 
ATOM      4  N   UNL     1       1.737   8.594  19.341  0.00  0.00    +0.000 NA
ATOM      5  C   UNL     1       1.713   7.752  20.396  0.00  0.00    +0.000 A 
ATOM      6  N   UNL     1       1.382   8.213  21.675  0.00  0.00    +0.000 N 
ATOM      7  C   UNL     1       1.072   9.459  22.097  0.00  0.00    +0.000 C 
ATOM      8  N   UNL     1       1.013  10.450  21.194  0.00  0.00    +0.000 N 
ATOM      9  O   UNL     1       0.858   9.678  23.287  0.00  0.00    +0.000 OA
ATOM     10  C   UNL     1       2.032   6.399  20.278  0.00  0.00    +0.000 A 
ATOM     11  H   UNL     1       1.401   7.548  22.434  0.00  0.00    +0.000 HD
ATOM     12  H   UNL     1       0.960  10.199  20.212  0.00  0.00    +0.000 HD
ATOM     13  H   UNL     1       0.684  11.352  21.499  0.00  0.00    +0.000 HD
ENDROOT
BRANCH   1  14
ATOM     14  C   UNL     1       2.809   4.434  18.885  0.00  0.00    +0.000 C 
BRANCH  14  15
ATOM     15  C   UNL     1       4.314   4.232  19.079  0.00  0.00    +0.000 C 
BRANCH  15  20
ATOM     16  C   UNL     1       6.817   5.887  16.720  0.00  0.00    +0.000 A 
ATOM     17  C   UNL     1       6.550   5.209  15.530  0.00  0.00    +0.000 A 
ATOM     18  C   UNL     1       5.588   4.201  15.488  0.00  0.00    +0.000 A 
ATOM     19  C   UNL     1       4.875   3.871  16.640  0.00  0.00    +0.000 A 
ATOM     20  C   UNL     1       5.116   4.551  17.840  0.00  0.00    +0.000 A 
ATOM     21  C   UNL     1       6.107   5.548  17.875  0.00  0.00    +0.000 A 
BRANCH  16  23
ATOM     22  C   UNL     1       7.694   7.937  17.547  0.00  0.00    +0.000 C 
ATOM     23  O   UNL     1       7.774   6.860  16.622  0.00  0.00    +0.000 OA
ENDBRANCH  16  23
ENDBRANCH  15  20
ENDBRANCH  14  15
ENDBRANCH   1  14
TORSDOF 4
ENDMDL
MODEL 7
REMARK VINA RESULT:      -7.3      5.313      7.297
REMARK  Name = 
REMARK  5 active torsions:
REMARK  status: ('A' for Active; 'I' for Inactive)
REMARK    1  A    between atoms: C_1  and  O_2
REMARK    2  A    between atoms: O_2  and  C_3
REMARK    3  A    between atoms: C_7  and  C_8
REMARK    4  A    between atoms: C_8  and  C_9
REMARK    5  A    between atoms: C_9  and  C_10
REMARK                            x       y       z     vdW  Elec       q    Type
REMARK                         _______ _______ _______ _____ _____    ______ ____
ROOT
ATOM      1  C   UNL     1       7.418   6.512  18.011  0.00  0.00    +0.000 A 
ATOM      2  C   UNL     1       7.142   6.370  16.653  0.00  0.00    +0.000 A 
ATOM      3  C   UNL     1       6.317   5.330  16.253  0.00  0.00    +0.000 A 
ATOM      4  N   UNL     1       5.750   4.440  17.101  0.00  0.00    +0.000 NA
ATOM      5  C   UNL     1       5.996   4.602  18.419  0.00  0.00    +0.000 A 
ATOM      6  N   UNL     1       5.399   3.763  19.368  0.00  0.00    +0.000 N 
ATOM      7  C   UNL     1       4.531   2.741  19.202  0.00  0.00    +0.000 C 
ATOM      8  N   UNL     1       4.172   2.395  17.955  0.00  0.00    +0.000 N 
ATOM      9  O   UNL     1       4.072   2.149  20.176  0.00  0.00    +0.000 OA
ATOM     10  C   UNL     1       6.828   5.610  18.905  0.00  0.00    +0.000 A 
ATOM     11  H   UNL     1       5.597   3.940  20.342  0.00  0.00    +0.000 HD
ATOM     12  H   UNL     1       4.737   2.736  17.184  0.00  0.00    +0.000 HD
ATOM     13  H   UNL     1       3.606   1.572  17.836  0.00  0.00    +0.000 HD
ENDROOT
BRANCH   1  14
ATOM     14  C   UNL     1       8.290   7.639  18.512  0.00  0.00    +0.000 C 
BRANCH  14  15
ATOM     15  C   UNL     1       8.050   8.931  17.725  0.00  0.00    +0.000 C 
BRANCH  15  20
ATOM     16  C   UNL     1       9.273  12.502  18.287  0.00  0.00    +0.000 A 
ATOM     17  C   UNL     1       9.943  12.366  19.503  0.00  0.00    +0.000 A 
ATOM     18  C   UNL     1       9.980  11.136  20.160  0.00  0.00    +0.000 A 
ATOM     19  C   UNL     1       9.352  10.026  19.594  0.00  0.00    +0.000 A 
ATOM     20  C   UNL     1       8.689  10.139  18.367  0.00  0.00    +0.000 A 
ATOM     21  C   UNL     1       8.638  11.390  17.727  0.00  0.00    +0.000 A 
BRANCH  16  23
ATOM     22  C   UNL     1      10.385  14.601  18.168  0.00  0.00    +0.000 C 
ATOM     23  O   UNL     1       9.323  13.757  17.743  0.00  0.00    +0.000 OA
ENDBRANCH  16  23
ENDBRANCH  15  20
ENDBRANCH  14  15
ENDBRANCH   1  14
TORSDOF 4
ENDMDL
MODEL 8
REMARK VINA RESULT:      -7.3      3.734      4.694
REMARK  Name = 
REMARK  5 active torsions:
REMARK  status: ('A' for Active; 'I' for Inactive)
REMARK    1  A    between atoms: C_1  and  O_2
REMARK    2  A    between atoms: O_2  and  C_3
REMARK    3  A    between atoms: C_7  and  C_8
REMARK    4  A    between atoms: C_8  and  C_9
REMARK    5  A    between atoms: C_9  and  C_10
REMARK                            x       y       z     vdW  Elec       q    Type
REMARK                         _______ _______ _______ _____ _____    ______ ____
ROOT
ATOM      1  C   UNL     1       6.358   5.565  17.044  0.00  0.00    +0.000 A 
ATOM      2  C   UNL     1       6.968   4.892  18.100  0.00  0.00    +0.000 A 
ATOM      3  C   UNL     1       7.853   5.593  18.904  0.00  0.00    +0.000 A 
ATOM      4  N   UNL     1       8.162   6.900  18.737  0.00  0.00    +0.000 NA
ATOM      5  C   UNL     1       7.543   7.555  17.730  0.00  0.00    +0.000 A 
ATOM      6  N   UNL     1       7.759   8.923  17.526  0.00  0.00    +0.000 N 
ATOM      7  C   UNL     1       8.523   9.796  18.218  0.00  0.00    +0.000 C 
ATOM      8  N   UNL     1       9.249   9.340  19.252  0.00  0.00    +0.000 N 
ATOM      9  O   UNL     1       8.544  10.986  17.912  0.00  0.00    +0.000 OA
ATOM     10  C   UNL     1       6.653   6.922  16.864  0.00  0.00    +0.000 A 
ATOM     11  H   UNL     1       7.255   9.371  16.775  0.00  0.00    +0.000 HD
ATOM     12  H   UNL     1       9.394   8.338  19.329  0.00  0.00    +0.000 HD
ATOM     13  H   UNL     1       9.891   9.974  19.698  0.00  0.00    +0.000 HD
ENDROOT
BRANCH   1  14
ATOM     14  C   UNL     1       5.366   4.864  16.147  0.00  0.00    +0.000 C 
BRANCH  14  15
ATOM     15  C   UNL     1       4.976   3.490  16.701  0.00  0.00    +0.000 C 
BRANCH  15  20
ATOM     16  C   UNL     1       2.812   3.095  19.820  0.00  0.00    +0.000 A 
ATOM     17  C   UNL     1       1.583   3.563  19.352  0.00  0.00    +0.000 A 
ATOM     18  C   UNL     1       1.453   4.033  18.046  0.00  0.00    +0.000 A 
ATOM     19  C   UNL     1       2.555   4.027  17.191  0.00  0.00    +0.000 A 
ATOM     20  C   UNL     1       3.792   3.546  17.636  0.00  0.00    +0.000 A 
ATOM     21  C   UNL     1       3.916   3.098  18.963  0.00  0.00    +0.000 A 
BRANCH  16  23
ATOM     22  C   UNL     1       1.543   2.632  21.777  0.00  0.00    +0.000 C 
ATOM     23  O   UNL     1       2.801   2.652  21.114  0.00  0.00    +0.000 OA
ENDBRANCH  16  23
ENDBRANCH  15  20
ENDBRANCH  14  15
ENDBRANCH   1  14
TORSDOF 4
ENDMDL
MODEL 9
REMARK VINA RESULT:      -7.3      4.188      7.645
REMARK  Name = 
REMARK  5 active torsions:
REMARK  status: ('A' for Active; 'I' for Inactive)
REMARK    1  A    between atoms: C_1  and  O_2
REMARK    2  A    between atoms: O_2  and  C_3
REMARK    3  A    between atoms: C_7  and  C_8
REMARK    4  A    between atoms: C_8  and  C_9
REMARK    5  A    between atoms: C_9  and  C_10
REMARK                            x       y       z     vdW  Elec       q    Type
REMARK                         _______ _______ _______ _____ _____    ______ ____
ROOT
ATOM      1  C   UNL     1       2.447   6.215  19.166  0.00  0.00    +0.000 A 
ATOM      2  C   UNL     1       2.480   7.126  18.113  0.00  0.00    +0.000 A 
ATOM      3  C   UNL     1       2.043   8.421  18.348  0.00  0.00    +0.000 A 
ATOM      4  N   UNL     1       1.590   8.865  19.543  0.00  0.00    +0.000 NA
ATOM      5  C   UNL     1       1.590   7.986  20.568  0.00  0.00    +0.000 A 
ATOM      6  N   UNL     1       1.196   8.382  21.851  0.00  0.00    +0.000 N 
ATOM      7  C   UNL     1       0.797   9.590  22.306  0.00  0.00    +0.000 C 
ATOM      8  N   UNL     1       0.701  10.608  21.435  0.00  0.00    +0.000 N 
ATOM      9  O   UNL     1       0.538   9.754  23.495  0.00  0.00    +0.000 OA
ATOM     10  C   UNL     1       1.996   6.661  20.415  0.00  0.00    +0.000 A 
ATOM     11  H   UNL     1       1.236   7.693  22.588  0.00  0.00    +0.000 HD
ATOM     12  H   UNL     1       0.691  10.388  20.443  0.00  0.00    +0.000 HD
ATOM     13  H   UNL     1       0.309  11.476  21.759  0.00  0.00    +0.000 HD
ENDROOT
BRANCH   1  14
ATOM     14  C   UNL     1       2.932   4.797  18.980  0.00  0.00    +0.000 C 
BRANCH  14  15
ATOM     15  C   UNL     1       3.118   4.453  17.500  0.00  0.00    +0.000 C 
BRANCH  15  20
ATOM     16  C   UNL     1       6.930   4.559  17.649  0.00  0.00    +0.000 A 
ATOM     17  C   UNL     1       7.251   4.520  16.292  0.00  0.00    +0.000 A 
ATOM     18  C   UNL     1       6.248   4.429  15.327  0.00  0.00    +0.000 A 
ATOM     19  C   UNL     1       4.909   4.390  15.718  0.00  0.00    +0.000 A 
ATOM     20  C   UNL     1       4.566   4.446  17.074  0.00  0.00    +0.000 A 
ATOM     21  C   UNL     1       5.589   4.511  18.037  0.00  0.00    +0.000 A 
BRANCH  16  23
ATOM     22  C   UNL     1       8.024   5.766  19.382  0.00  0.00    +0.000 C 
ATOM     23  O   UNL     1       8.006   4.660  18.489  0.00  0.00    +0.000 OA
ENDBRANCH  16  23
ENDBRANCH  15  20
ENDBRANCH  14  15
ENDBRANCH   1  14
TORSDOF 4
ENDMDL
