MODEL 1
REMARK VINA RESULT:      -7.6      0.000      0.000
REMARK  Name = 
REMARK  8 active torsions:
REMARK  status: ('A' for Active; 'I' for Inactive)
REMARK    1  A    between atoms: C_1  and  C_2
REMARK    2  A    between atoms: C_5  and  N_6
REMARK    3  A    between atoms: C_10  and  N_11
REMARK    4  A    between atoms: C_10  and  C_18
REMARK    5  A    between atoms: C_12  and  C_14
REMARK    6  A    between atoms: C_14  and  C_15
REMARK    7  A    between atoms: C_14  and  C_16
REMARK    8  A    between atoms: C_14  and  C_17
REMARK                            x       y       z     vdW  Elec       q    Type
REMARK                         _______ _______ _______ _____ _____    ______ ____
ROOT
ATOM      1  N   UNL     1       3.116   4.729  18.270  0.00  0.00    +0.000 N 
ATOM      2  C   UNL     1       1.782   4.486  18.062  0.00  0.00    +0.000 C 
ATOM      3  O   UNL     1       1.182   4.224  17.031  0.00  0.00    +0.000 OA
ATOM      4  N   UNL     1       1.129   4.549  19.262  0.00  0.00    +0.000 N 
ATOM      5  C   UNL     1       2.000   4.810  20.376  0.00  0.00    +0.000 C 
ATOM      6  C   UNL     1       3.329   4.971  19.612  0.00  0.00    +0.000 C 
ATOM      7  O   UNL     1       4.359   5.371  20.152  0.00  0.00    +0.000 OA
ATOM      8  H   UNL     1       0.137   4.367  19.356  0.00  0.00    +0.000 HD
ENDROOT
BRANCH   1  13
ATOM      9  C   UNL     1       7.095   4.988  14.120  0.00  0.00    +0.000 C 
ATOM     10  C   UNL     1       6.066   4.913  15.210  0.00  0.00    +0.000 A 
ATOM     11  C   UNL     1       5.662   3.685  15.734  0.00  0.00    +0.000 A 
ATOM     12  C   UNL     1       4.704   3.630  16.751  0.00  0.00    +0.000 A 
ATOM     13  C   UNL     1       4.105   4.794  17.251  0.00  0.00    +0.000 A 
ATOM     14  C   UNL     1       4.516   6.021  16.716  0.00  0.00    +0.000 A 
ATOM     15  C   UNL     1       5.495   6.081  15.717  0.00  0.00    +0.000 A 
ENDBRANCH   1  13
BRANCH   5  16
ATOM     16  N   UNL     1       1.614   6.084  20.982  0.00  0.00    +0.000 N 
ATOM     17  C   UNL     1       1.586   7.232  20.223  0.00  0.00    +0.000 C 
ATOM     18  O   UNL     1       1.993   7.225  19.060  0.00  0.00    +0.000 OA
ATOM     19  H   UNL     1       1.190   6.066  21.903  0.00  0.00    +0.000 HD
BRANCH  17  20
ATOM     20  C   UNL     1       1.051   8.492  20.927  0.00  0.00    +0.000 C 
ATOM     21  C   UNL     1       0.997   9.658  19.930  0.00  0.00    +0.000 C 
ATOM     22  C   UNL     1      -0.365   8.234  21.474  0.00  0.00    +0.000 C 
ATOM     23  C   UNL     1       1.972   8.862  22.099  0.00  0.00    +0.000 C 
ENDBRANCH  17  20
ENDBRANCH   5  16
BRANCH   5  24
ATOM     24  C   UNL     1       2.220   3.613  21.358  0.00  0.00    +0.000 C 
ATOM     25  F   UNL     1       1.086   2.886  21.513  0.00  0.00    +0.000 F 
ATOM     26  F   UNL     1       3.172   2.743  20.942  0.00  0.00    +0.000 F 
ATOM     27  F   UNL     1       2.603   4.027  22.591  0.00  0.00    +0.000 F 
ENDBRANCH   5  24
TORSDOF 4
ENDMDL
MODEL 2
REMARK VINA RESULT:      -7.6      0.017      1.294
REMARK  Name = 
REMARK  8 active torsions:
REMARK  status: ('A' for Active; 'I' for Inactive)
REMARK    1  A    between atoms: C_1  and  C_2
REMARK    2  A    between atoms: C_5  and  N_6
REMARK    3  A    between atoms: C_10  and  N_11
REMARK    4  A    between atoms: C_10  and  C_18
REMARK    5  A    between atoms: C_12  and  C_14
REMARK    6  A    between atoms: C_14  and  C_15
REMARK    7  A    between atoms: C_14  and  C_16
REMARK    8  A    between atoms: C_14  and  C_17
REMARK                            x       y       z     vdW  Elec       q    Type
REMARK                         _______ _______ _______ _____ _____    ______ ____
ROOT
ATOM      1  N   UNL     1       3.110   4.730  18.271  0.00  0.00    +0.000 N 
ATOM      2  C   UNL     1       1.776   4.486  18.067  0.00  0.00    +0.000 C 
ATOM      3  O   UNL     1       1.173   4.225  17.037  0.00  0.00    +0.000 OA
ATOM      4  N   UNL     1       1.125   4.548  19.268  0.00  0.00    +0.000 N 
ATOM      5  C   UNL     1       2.000   4.810  20.380  0.00  0.00    +0.000 C 
ATOM      6  C   UNL     1       3.327   4.972  19.613  0.00  0.00    +0.000 C 
ATOM      7  O   UNL     1       4.357   5.372  20.150  0.00  0.00    +0.000 OA
ATOM      8  H   UNL     1       0.134   4.366  19.365  0.00  0.00    +0.000 HD
ENDROOT
BRANCH   1  13
ATOM      9  C   UNL     1       7.130   5.002  14.162  0.00  0.00    +0.000 C 
ATOM     10  C   UNL     1       6.073   4.939  15.226  0.00  0.00    +0.000 A 
ATOM     11  C   UNL     1       5.489   6.101  15.729  0.00  0.00    +0.000 A 
ATOM     12  C   UNL     1       4.504   6.027  16.719  0.00  0.00    +0.000 A 
ATOM     13  C   UNL     1       4.096   4.796  17.250  0.00  0.00    +0.000 A 
ATOM     14  C   UNL     1       4.691   3.635  16.740  0.00  0.00    +0.000 A 
ATOM     15  C   UNL     1       5.658   3.705  15.729  0.00  0.00    +0.000 A 
ENDBRANCH   1  13
BRANCH   5  16
ATOM     16  N   UNL     1       1.614   6.083  20.988  0.00  0.00    +0.000 N 
ATOM     17  C   UNL     1       1.582   7.231  20.229  0.00  0.00    +0.000 C 
ATOM     18  O   UNL     1       1.985   7.224  19.064  0.00  0.00    +0.000 OA
ATOM     19  H   UNL     1       1.194   6.064  21.911  0.00  0.00    +0.000 HD
BRANCH  17  20
ATOM     20  C   UNL     1       1.048   8.491  20.935  0.00  0.00    +0.000 C 
ATOM     21  C   UNL     1      -0.363   8.223  21.475  0.00  0.00    +0.000 C 
ATOM     22  C   UNL     1       1.971   8.872  22.108  0.00  0.00    +0.000 C 
ATOM     23  C   UNL     1       1.005   9.662  19.943  0.00  0.00    +0.000 C 
ENDBRANCH  17  20
ENDBRANCH   5  16
BRANCH   5  24
ATOM     24  C   UNL     1       2.222   3.613  21.362  0.00  0.00    +0.000 C 
ATOM     25  F   UNL     1       1.090   2.883  21.516  0.00  0.00    +0.000 F 
ATOM     26  F   UNL     1       3.176   2.744  20.944  0.00  0.00    +0.000 F 
ATOM     27  F   UNL     1       2.606   4.026  22.595  0.00  0.00    +0.000 F 
ENDBRANCH   5  24
TORSDOF 4
ENDMDL
MODEL 3
REMARK VINA RESULT:      -7.6      0.025      1.497
REMARK  Name = 
REMARK  8 active torsions:
REMARK  status: ('A' for Active; 'I' for Inactive)
REMARK    1  A    between atoms: C_1  and  C_2
REMARK    2  A    between atoms: C_5  and  N_6
REMARK    3  A    between atoms: C_10  and  N_11
REMARK    4  A    between atoms: C_10  and  C_18
REMARK    5  A    between atoms: C_12  and  C_14
REMARK    6  A    between atoms: C_14  and  C_15
REMARK    7  A    between atoms: C_14  and  C_16
REMARK    8  A    between atoms: C_14  and  C_17
REMARK                            x       y       z     vdW  Elec       q    Type
REMARK                         _______ _______ _______ _____ _____    ______ ____
ROOT
ATOM      1  N   UNL     1       3.107   4.727  18.270  0.00  0.00    +0.000 N 
ATOM      2  C   UNL     1       1.774   4.477  18.064  0.00  0.00    +0.000 C 
ATOM      3  O   UNL     1       1.174   4.212  17.034  0.00  0.00    +0.000 OA
ATOM      4  N   UNL     1       1.123   4.538  19.265  0.00  0.00    +0.000 N 
ATOM      5  C   UNL     1       1.995   4.805  20.377  0.00  0.00    +0.000 C 
ATOM      6  C   UNL     1       3.322   4.972  19.611  0.00  0.00    +0.000 C 
ATOM      7  O   UNL     1       4.350   5.376  20.149  0.00  0.00    +0.000 OA
ATOM      8  H   UNL     1       0.132   4.352  19.361  0.00  0.00    +0.000 HD
ENDROOT
BRANCH   1  13
ATOM      9  C   UNL     1       7.129   5.011  14.164  0.00  0.00    +0.000 C 
ATOM     10  C   UNL     1       6.072   4.945  15.226  0.00  0.00    +0.000 A 
ATOM     11  C   UNL     1       5.487   6.106  15.731  0.00  0.00    +0.000 A 
ATOM     12  C   UNL     1       4.501   6.029  16.720  0.00  0.00    +0.000 A 
ATOM     13  C   UNL     1       4.094   4.796  17.249  0.00  0.00    +0.000 A 
ATOM     14  C   UNL     1       4.691   3.637  16.737  0.00  0.00    +0.000 A 
ATOM     15  C   UNL     1       5.658   3.710  15.728  0.00  0.00    +0.000 A 
ENDBRANCH   1  13
BRANCH   5  16
ATOM     16  N   UNL     1       1.603   6.077  20.983  0.00  0.00    +0.000 N 
ATOM     17  C   UNL     1       1.592   7.229  20.230  0.00  0.00    +0.000 C 
ATOM     18  O   UNL     1       2.019   7.226  19.073  0.00  0.00    +0.000 OA
ATOM     19  H   UNL     1       1.164   6.056  21.897  0.00  0.00    +0.000 HD
BRANCH  17  20
ATOM     20  C   UNL     1       1.051   8.488  20.930  0.00  0.00    +0.000 C 
ATOM     21  C   UNL     1       1.979   8.874  22.090  0.00  0.00    +0.000 C 
ATOM     22  C   UNL     1       0.978   9.660  19.934  0.00  0.00    +0.000 C 
ATOM     23  C   UNL     1      -0.360   8.214  21.471  0.00  0.00    +0.000 C 
ENDBRANCH  17  20
ENDBRANCH   5  16
BRANCH   5  24
ATOM     24  C   UNL     1       2.221   3.610  21.360  0.00  0.00    +0.000 C 
ATOM     25  F   UNL     1       2.617   4.043  22.583  0.00  0.00    +0.000 F 
ATOM     26  F   UNL     1       1.109   2.864  21.567  0.00  0.00    +0.000 F 
ATOM     27  F   UNL     1       3.170   2.751  20.912  0.00  0.00    +0.000 F 
ENDBRANCH   5  24
TORSDOF 4
ENDMDL
MODEL 4
REMARK VINA RESULT:      -7.5      2.701      6.557
REMARK  Name = 
REMARK  8 active torsions:
REMARK  status: ('A' for Active; 'I' for Inactive)
REMARK    1  A    between atoms: C_1  and  C_2
REMARK    2  A    between atoms: C_5  and  N_6
REMARK    3  A    between atoms: C_10  and  N_11
REMARK    4  A    between atoms: C_10  and  C_18
REMARK    5  A    between atoms: C_12  and  C_14
REMARK    6  A    between atoms: C_14  and  C_15
REMARK    7  A    between atoms: C_14  and  C_16
REMARK    8  A    between atoms: C_14  and  C_17
REMARK                            x       y       z     vdW  Elec       q    Type
REMARK                         _______ _______ _______ _____ _____    ______ ____
ROOT
ATOM      1  N   UNL     1       1.834   8.311  19.190  0.00  0.00    +0.000 N 
ATOM      2  C   UNL     1       2.133   7.616  20.334  0.00  0.00    +0.000 C 
ATOM      3  O   UNL     1       1.809   7.831  21.491  0.00  0.00    +0.000 OA
ATOM      4  N   UNL     1       2.890   6.526  20.004  0.00  0.00    +0.000 N 
ATOM      5  C   UNL     1       3.126   6.399  18.590  0.00  0.00    +0.000 C 
ATOM      6  C   UNL     1       2.418   7.681  18.109  0.00  0.00    +0.000 C 
ATOM      7  O   UNL     1       2.497   8.086  16.952  0.00  0.00    +0.000 OA
ATOM      8  H   UNL     1       3.199   5.846  20.687  0.00  0.00    +0.000 HD
ENDROOT
BRANCH   1  13
ATOM      9  C   UNL     1      -1.135  13.235  18.950  0.00  0.00    +0.000 C 
ATOM     10  C   UNL     1      -0.351  11.958  19.021  0.00  0.00    +0.000 A 
ATOM     11  C   UNL     1       0.999  11.923  18.674  0.00  0.00    +0.000 A 
ATOM     12  C   UNL     1       1.718  10.726  18.746  0.00  0.00    +0.000 A 
ATOM     13  C   UNL     1       1.102   9.529  19.139  0.00  0.00    +0.000 A 
ATOM     14  C   UNL     1      -0.255   9.575  19.482  0.00  0.00    +0.000 A 
ATOM     15  C   UNL     1      -0.970  10.778  19.437  0.00  0.00    +0.000 A 
ENDBRANCH   1  13
BRANCH   5  16
ATOM     16  N   UNL     1       4.564   6.500  18.346  0.00  0.00    +0.000 N 
ATOM     17  C   UNL     1       5.417   5.527  18.817  0.00  0.00    +0.000 C 
ATOM     18  O   UNL     1       4.997   4.624  19.544  0.00  0.00    +0.000 OA
ATOM     19  H   UNL     1       4.888   7.185  17.672  0.00  0.00    +0.000 HD
BRANCH  17  20
ATOM     20  C   UNL     1       6.893   5.666  18.404  0.00  0.00    +0.000 C 
ATOM     21  C   UNL     1       7.785   5.644  19.653  0.00  0.00    +0.000 C 
ATOM     22  C   UNL     1       7.297   4.504  17.479  0.00  0.00    +0.000 C 
ATOM     23  C   UNL     1       7.098   6.989  17.650  0.00  0.00    +0.000 C 
ENDBRANCH  17  20
ENDBRANCH   5  16
BRANCH   5  24
ATOM     24  C   UNL     1       2.385   5.216  17.885  0.00  0.00    +0.000 C 
ATOM     25  F   UNL     1       2.081   4.228  18.763  0.00  0.00    +0.000 F 
ATOM     26  F   UNL     1       1.213   5.582  17.310  0.00  0.00    +0.000 F 
ATOM     27  F   UNL     1       3.129   4.661  16.897  0.00  0.00    +0.000 F 
ENDBRANCH   5  24
TORSDOF 4
ENDMDL
MODEL 5
REMARK VINA RESULT:      -7.5      2.697      6.464
REMARK  Name = 
REMARK  8 active torsions:
REMARK  status: ('A' for Active; 'I' for Inactive)
REMARK    1  A    between atoms: C_1  and  C_2
REMARK    2  A    between atoms: C_5  and  N_6
REMARK    3  A    between atoms: C_10  and  N_11
REMARK    4  A    between atoms: C_10  and  C_18
REMARK    5  A    between atoms: C_12  and  C_14
REMARK    6  A    between atoms: C_14  and  C_15
REMARK    7  A    between atoms: C_14  and  C_16
REMARK    8  A    between atoms: C_14  and  C_17
REMARK                            x       y       z     vdW  Elec       q    Type
REMARK                         _______ _______ _______ _____ _____    ______ ____
ROOT
ATOM      1  N   UNL     1       1.883   8.233  19.170  0.00  0.00    +0.000 N 
ATOM      2  C   UNL     1       2.181   7.537  20.315  0.00  0.00    +0.000 C 
ATOM      3  O   UNL     1       1.846   7.744  21.470  0.00  0.00    +0.000 OA
ATOM      4  N   UNL     1       2.955   6.458  19.987  0.00  0.00    +0.000 N 
ATOM      5  C   UNL     1       3.204   6.339  18.575  0.00  0.00    +0.000 C 
ATOM      6  C   UNL     1       2.484   7.613  18.093  0.00  0.00    +0.000 C 
ATOM      7  O   UNL     1       2.567   8.023  16.937  0.00  0.00    +0.000 OA
ATOM      8  H   UNL     1       3.268   5.780  20.670  0.00  0.00    +0.000 HD
ENDROOT
BRANCH   1  13
ATOM      9  C   UNL     1      -1.133  13.131  18.992  0.00  0.00    +0.000 C 
ATOM     10  C   UNL     1      -0.356  11.847  19.031  0.00  0.00    +0.000 A 
ATOM     11  C   UNL     1      -0.956  10.656  19.439  0.00  0.00    +0.000 A 
ATOM     12  C   UNL     1      -0.221   9.468  19.468  0.00  0.00    +0.000 A 
ATOM     13  C   UNL     1       1.136   9.441  19.118  0.00  0.00    +0.000 A 
ATOM     14  C   UNL     1       1.729  10.643  18.712  0.00  0.00    +0.000 A 
ATOM     15  C   UNL     1       0.988  11.830  18.656  0.00  0.00    +0.000 A 
ENDBRANCH   1  13
BRANCH   5  16
ATOM     16  N   UNL     1       4.643   6.459  18.343  0.00  0.00    +0.000 N 
ATOM     17  C   UNL     1       5.504   5.493  18.814  0.00  0.00    +0.000 C 
ATOM     18  O   UNL     1       5.090   4.580  19.531  0.00  0.00    +0.000 OA
ATOM     19  H   UNL     1       4.963   7.153  17.676  0.00  0.00    +0.000 HD
BRANCH  17  20
ATOM     20  C   UNL     1       6.981   5.654  18.413  0.00  0.00    +0.000 C 
ATOM     21  C   UNL     1       7.400   4.491  17.502  0.00  0.00    +0.000 C 
ATOM     22  C   UNL     1       7.185   6.981  17.658  0.00  0.00    +0.000 C 
ATOM     23  C   UNL     1       7.862   5.663  19.671  0.00  0.00    +0.000 C 
ENDBRANCH  17  20
ENDBRANCH   5  16
BRANCH   5  24
ATOM     24  C   UNL     1       2.484   5.149  17.860  0.00  0.00    +0.000 C 
ATOM     25  F   UNL     1       1.284   5.530  17.353  0.00  0.00    +0.000 F 
ATOM     26  F   UNL     1       3.188   4.641  16.819  0.00  0.00    +0.000 F 
ATOM     27  F   UNL     1       2.254   4.110  18.700  0.00  0.00    +0.000 F 
ENDBRANCH   5  24
TORSDOF 4
ENDMDL
MODEL 6
REMARK VINA RESULT:      -7.4      2.701      6.542
REMARK  Name = 
REMARK  8 active torsions:
REMARK  status: ('A' for Active; 'I' for Inactive)
REMARK    1  A    between atoms: C_1  and  C_2
REMARK    2  A    between atoms: C_5  and  N_6
REMARK    3  A    between atoms: C_10  and  N_11
REMARK    4  A    between atoms: C_10  and  C_18
REMARK    5  A    between atoms: C_12  and  C_14
REMARK    6  A    between atoms: C_14  and  C_15
REMARK    7  A    between atoms: C_14  and  C_16
REMARK    8  A    between atoms: C_14  and  C_17
REMARK                            x       y       z     vdW  Elec       q    Type
REMARK                         _______ _______ _______ _____ _____    ______ ____
ROOT
ATOM      1  N   UNL     1       1.883   8.257  19.203  0.00  0.00    +0.000 N 
ATOM      2  C   UNL     1       2.183   7.539  20.333  0.00  0.00    +0.000 C 
ATOM      3  O   UNL     1       1.853   7.726  21.493  0.00  0.00    +0.000 OA
ATOM      4  N   UNL     1       2.952   6.464  19.982  0.00  0.00    +0.000 N 
ATOM      5  C   UNL     1       3.195   6.370  18.568  0.00  0.00    +0.000 C 
ATOM      6  C   UNL     1       2.477   7.655  18.111  0.00  0.00    +0.000 C 
ATOM      7  O   UNL     1       2.558   8.086  16.964  0.00  0.00    +0.000 OA
ATOM      8  H   UNL     1       3.264   5.772  20.652  0.00  0.00    +0.000 HD
ENDROOT
BRANCH   1  13
ATOM      9  C   UNL     1      -1.135  13.155  19.058  0.00  0.00    +0.000 C 
ATOM     10  C   UNL     1      -0.337  11.885  19.102  0.00  0.00    +0.000 A 
ATOM     11  C   UNL     1       0.946  11.823  18.560  0.00  0.00    +0.000 A 
ATOM     12  C   UNL     1       1.678  10.633  18.610  0.00  0.00    +0.000 A 
ATOM     13  C   UNL     1       1.140   9.468  19.175  0.00  0.00    +0.000 A 
ATOM     14  C   UNL     1      -0.150   9.541  19.714  0.00  0.00    +0.000 A 
ATOM     15  C   UNL     1      -0.875  10.739  19.691  0.00  0.00    +0.000 A 
ENDBRANCH   1  13
BRANCH   5  16
ATOM     16  N   UNL     1       4.633   6.489  18.332  0.00  0.00    +0.000 N 
ATOM     17  C   UNL     1       5.492   5.512  18.783  0.00  0.00    +0.000 C 
ATOM     18  O   UNL     1       5.077   4.588  19.486  0.00  0.00    +0.000 OA
ATOM     19  H   UNL     1       4.953   7.192  17.676  0.00  0.00    +0.000 HD
BRANCH  17  20
ATOM     20  C   UNL     1       6.969   5.674  18.380  0.00  0.00    +0.000 C 
ATOM     21  C   UNL     1       7.378   4.528  17.443  0.00  0.00    +0.000 C 
ATOM     22  C   UNL     1       7.175   7.015  17.652  0.00  0.00    +0.000 C 
ATOM     23  C   UNL     1       7.854   5.653  19.634  0.00  0.00    +0.000 C 
ENDBRANCH  17  20
ENDBRANCH   5  16
BRANCH   5  24
ATOM     24  C   UNL     1       2.467   5.196  17.833  0.00  0.00    +0.000 C 
ATOM     25  F   UNL     1       3.232   4.686  16.836  0.00  0.00    +0.000 F 
ATOM     26  F   UNL     1       2.167   4.155  18.648  0.00  0.00    +0.000 F 
ATOM     27  F   UNL     1       1.294   5.588  17.278  0.00  0.00    +0.000 F 
ENDBRANCH   5  24
TORSDOF 4
ENDMDL
MODEL 7
REMARK VINA RESULT:      -7.4      2.662      6.484
REMARK  Name = 
REMARK  8 active torsions:
REMARK  status: ('A' for Active; 'I' for Inactive)
REMARK    1  A    between atoms: C_1  and  C_2
REMARK    2  A    between atoms: C_5  and  N_6
REMARK    3  A    between atoms: C_10  and  N_11
REMARK    4  A    between atoms: C_10  and  C_18
REMARK    5  A    between atoms: C_12  and  C_14
REMARK    6  A    between atoms: C_14  and  C_15
REMARK    7  A    between atoms: C_14  and  C_16
REMARK    8  A    between atoms: C_14  and  C_17
REMARK                            x       y       z     vdW  Elec       q    Type
REMARK                         _______ _______ _______ _____ _____    ______ ____
ROOT
ATOM      1  N   UNL     1       1.840   8.073  19.218  0.00  0.00    +0.000 N 
ATOM      2  C   UNL     1       2.158   7.357  20.344  0.00  0.00    +0.000 C 
ATOM      3  O   UNL     1       1.808   7.519  21.503  0.00  0.00    +0.000 OA
ATOM      4  N   UNL     1       2.973   6.317  19.992  0.00  0.00    +0.000 N 
ATOM      5  C   UNL     1       3.234   6.247  18.579  0.00  0.00    +0.000 C 
ATOM      6  C   UNL     1       2.470   7.506  18.127  0.00  0.00    +0.000 C 
ATOM      7  O   UNL     1       2.545   7.952  16.985  0.00  0.00    +0.000 OA
ATOM      8  H   UNL     1       3.306   5.632  20.658  0.00  0.00    +0.000 HD
ENDROOT
BRANCH   1  13
ATOM      9  C   UNL     1      -1.387  12.837  19.137  0.00  0.00    +0.000 C 
ATOM     10  C   UNL     1      -0.541  11.598  19.145  0.00  0.00    +0.000 A 
ATOM     11  C   UNL     1      -0.644  10.651  18.126  0.00  0.00    +0.000 A 
ATOM     12  C   UNL     1       0.152   9.502  18.146  0.00  0.00    +0.000 A 
ATOM     13  C   UNL     1       1.050   9.254  19.194  0.00  0.00    +0.000 A 
ATOM     14  C   UNL     1       1.143  10.210  20.213  0.00  0.00    +0.000 A 
ATOM     15  C   UNL     1       0.367  11.375  20.182  0.00  0.00    +0.000 A 
ENDBRANCH   1  13
BRANCH   5  16
ATOM     16  N   UNL     1       4.669   6.426  18.360  0.00  0.00    +0.000 N 
ATOM     17  C   UNL     1       5.560   5.467  18.786  0.00  0.00    +0.000 C 
ATOM     18  O   UNL     1       5.174   4.506  19.454  0.00  0.00    +0.000 OA
ATOM     19  H   UNL     1       4.968   7.163  17.731  0.00  0.00    +0.000 HD
BRANCH  17  20
ATOM     20  C   UNL     1       7.032   5.696  18.401  0.00  0.00    +0.000 C 
ATOM     21  C   UNL     1       7.172   7.036  17.665  0.00  0.00    +0.000 C 
ATOM     22  C   UNL     1       7.913   5.723  19.664  0.00  0.00    +0.000 C 
ATOM     23  C   UNL     1       7.513   4.557  17.490  0.00  0.00    +0.000 C 
ENDBRANCH  17  20
ENDBRANCH   5  16
BRANCH   5  24
ATOM     24  C   UNL     1       2.562   5.052  17.826  0.00  0.00    +0.000 C 
ATOM     25  F   UNL     1       2.365   3.994  18.652  0.00  0.00    +0.000 F 
ATOM     26  F   UNL     1       1.347   5.357  17.308  0.00  0.00    +0.000 F 
ATOM     27  F   UNL     1       3.313   4.615  16.785  0.00  0.00    +0.000 F 
ENDBRANCH   5  24
TORSDOF 4
ENDMDL
MODEL 8
REMARK VINA RESULT:      -7.4      2.665      6.519
REMARK  Name = 
REMARK  8 active torsions:
REMARK  status: ('A' for Active; 'I' for Inactive)
REMARK    1  A    between atoms: C_1  and  C_2
REMARK    2  A    between atoms: C_5  and  N_6
REMARK    3  A    between atoms: C_10  and  N_11
REMARK    4  A    between atoms: C_10  and  C_18
REMARK    5  A    between atoms: C_12  and  C_14
REMARK    6  A    between atoms: C_14  and  C_15
REMARK    7  A    between atoms: C_14  and  C_16
REMARK    8  A    between atoms: C_14  and  C_17
REMARK                            x       y       z     vdW  Elec       q    Type
REMARK                         _______ _______ _______ _____ _____    ______ ____
ROOT
ATOM      1  N   UNL     1       1.850   8.063  19.225  0.00  0.00    +0.000 N 
ATOM      2  C   UNL     1       2.156   7.334  20.346  0.00  0.00    +0.000 C 
ATOM      3  O   UNL     1       1.799   7.486  21.503  0.00  0.00    +0.000 OA
ATOM      4  N   UNL     1       2.968   6.294  19.988  0.00  0.00    +0.000 N 
ATOM      5  C   UNL     1       3.239   6.237  18.576  0.00  0.00    +0.000 C 
ATOM      6  C   UNL     1       2.483   7.505  18.133  0.00  0.00    +0.000 C 
ATOM      7  O   UNL     1       2.568   7.962  16.995  0.00  0.00    +0.000 OA
ATOM      8  H   UNL     1       3.293   5.600  20.650  0.00  0.00    +0.000 HD
ENDROOT
BRANCH   1  13
ATOM      9  C   UNL     1      -1.298  12.880  19.141  0.00  0.00    +0.000 C 
ATOM     10  C   UNL     1      -0.483  11.621  19.176  0.00  0.00    +0.000 A 
ATOM     11  C   UNL     1       0.387  11.357  20.233  0.00  0.00    +0.000 A 
ATOM     12  C   UNL     1       1.140  10.179  20.253  0.00  0.00    +0.000 A 
ATOM     13  C   UNL     1       1.065   9.248  19.208  0.00  0.00    +0.000 A 
ATOM     14  C   UNL     1       0.191   9.525  18.149  0.00  0.00    +0.000 A 
ATOM     15  C   UNL     1      -0.584  10.691  18.140  0.00  0.00    +0.000 A 
ENDBRANCH   1  13
BRANCH   5  16
ATOM     16  N   UNL     1       4.675   6.411  18.369  0.00  0.00    +0.000 N 
ATOM     17  C   UNL     1       5.560   5.446  18.797  0.00  0.00    +0.000 C 
ATOM     18  O   UNL     1       5.165   4.484  19.459  0.00  0.00    +0.000 OA
ATOM     19  H   UNL     1       4.982   7.149  17.745  0.00  0.00    +0.000 HD
BRANCH  17  20
ATOM     20  C   UNL     1       7.036   5.671  18.424  0.00  0.00    +0.000 C 
ATOM     21  C   UNL     1       7.894   5.692  19.697  0.00  0.00    +0.000 C 
ATOM     22  C   UNL     1       7.529   4.539  17.504  0.00  0.00    +0.000 C 
ATOM     23  C   UNL     1       7.185   7.008  17.682  0.00  0.00    +0.000 C 
ENDBRANCH  17  20
ENDBRANCH   5  16
BRANCH   5  24
ATOM     24  C   UNL     1       2.566   5.053  17.806  0.00  0.00    +0.000 C 
ATOM     25  F   UNL     1       3.323   4.654  16.754  0.00  0.00    +0.000 F 
ATOM     26  F   UNL     1       2.374   3.952  18.573  0.00  0.00    +0.000 F 
ATOM     27  F   UNL     1       1.345   5.387  17.319  0.00  0.00    +0.000 F 
ENDBRANCH   5  24
TORSDOF 4
ENDMDL
MODEL 9
REMARK VINA RESULT:      -7.4      2.680      6.511
REMARK  Name = 
REMARK  8 active torsions:
REMARK  status: ('A' for Active; 'I' for Inactive)
REMARK    1  A    between atoms: C_1  and  C_2
REMARK    2  A    between atoms: C_5  and  N_6
REMARK    3  A    between atoms: C_10  and  N_11
REMARK    4  A    between atoms: C_10  and  C_18
REMARK    5  A    between atoms: C_12  and  C_14
REMARK    6  A    between atoms: C_14  and  C_15
REMARK    7  A    between atoms: C_14  and  C_16
REMARK    8  A    between atoms: C_14  and  C_17
REMARK                            x       y       z     vdW  Elec       q    Type
REMARK                         _______ _______ _______ _____ _____    ______ ____
ROOT
ATOM      1  N   UNL     1       1.885   8.186  19.246  0.00  0.00    +0.000 N 
ATOM      2  C   UNL     1       2.189   7.450  20.363  0.00  0.00    +0.000 C 
ATOM      3  O   UNL     1       1.857   7.614  21.526  0.00  0.00    +0.000 OA
ATOM      4  N   UNL     1       2.964   6.386  19.994  0.00  0.00    +0.000 N 
ATOM      5  C   UNL     1       3.209   6.318  18.578  0.00  0.00    +0.000 C 
ATOM      6  C   UNL     1       2.484   7.607  18.144  0.00  0.00    +0.000 C 
ATOM      7  O   UNL     1       2.563   8.059  17.004  0.00  0.00    +0.000 OA
ATOM      8  H   UNL     1       3.280   5.684  20.652  0.00  0.00    +0.000 HD
ENDROOT
BRANCH   1  13
ATOM      9  C   UNL     1      -1.133  13.085  19.250  0.00  0.00    +0.000 C 
ATOM     10  C   UNL     1      -0.358  11.801  19.244  0.00  0.00    +0.000 A 
ATOM     11  C   UNL     1      -0.826  10.675  19.921  0.00  0.00    +0.000 A 
ATOM     12  C   UNL     1      -0.094   9.484  19.905  0.00  0.00    +0.000 A 
ATOM     13  C   UNL     1       1.136   9.393  19.239  0.00  0.00    +0.000 A 
ATOM     14  C   UNL     1       1.599  10.531  18.566  0.00  0.00    +0.000 A 
ATOM     15  C   UNL     1       0.854  11.717  18.557  0.00  0.00    +0.000 A 
ENDBRANCH   1  13
BRANCH   5  16
ATOM     16  N   UNL     1       4.647   6.450  18.346  0.00  0.00    +0.000 N 
ATOM     17  C   UNL     1       5.515   5.489  18.813  0.00  0.00    +0.000 C 
ATOM     18  O   UNL     1       5.108   4.570  19.527  0.00  0.00    +0.000 OA
ATOM     19  H   UNL     1       4.962   7.148  17.681  0.00  0.00    +0.000 HD
BRANCH  17  20
ATOM     20  C   UNL     1       6.991   5.662  18.412  0.00  0.00    +0.000 C 
ATOM     21  C   UNL     1       7.170   6.986  17.657  0.00  0.00    +0.000 C 
ATOM     22  C   UNL     1       7.883   5.675  19.667  0.00  0.00    +0.000 C 
ATOM     23  C   UNL     1       7.424   4.494  17.513  0.00  0.00    +0.000 C 
ENDBRANCH  17  20
ENDBRANCH   5  16
BRANCH   5  24
ATOM     24  C   UNL     1       2.489   5.153  17.822  0.00  0.00    +0.000 C 
ATOM     25  F   UNL     1       3.239   4.694  16.790  0.00  0.00    +0.000 F 
ATOM     26  F   UNL     1       2.232   4.079  18.608  0.00  0.00    +0.000 F 
ATOM     27  F   UNL     1       1.293   5.537  17.310  0.00  0.00    +0.000 F 
ENDBRANCH   5  24
TORSDOF 4
ENDMDL
