MODEL 1
REMARK VINA RESULT:      -7.7      0.000      0.000
REMARK  Name = 
REMARK  6 active torsions:
REMARK  status: ('A' for Active; 'I' for Inactive)
REMARK    1  A    between atoms: C_1  and  O_2
REMARK    2  A    between atoms: O_2  and  C_3
REMARK    3  A    between atoms: C_6  and  O_7
REMARK    4  A    between atoms: O_7  and  C_8
REMARK    5  A    between atoms: C_9  and  C_10
REMARK    6  A    between atoms: C_10  and  N_11
REMARK                            x       y       z     vdW  Elec       q    Type
REMARK                         _______ _______ _______ _____ _____    ______ ____
ROOT
ATOM      1  N   UNL     1       2.056   7.596  19.362  0.00  0.00    +0.000 N 
ATOM      2  C   UNL     1       2.433   7.704  18.037  0.00  0.00    +0.000 A 
ATOM      3  C   UNL     1       2.141   8.978  17.596  0.00  0.00    +0.000 A 
ATOM      4  C   UNL     1       1.574   9.681  18.685  0.00  0.00    +0.000 A 
ATOM      5  C   UNL     1       1.555   8.807  19.765  0.00  0.00    +0.000 A 
ATOM      6  C   UNL     1       0.990   9.150  21.031  0.00  0.00    +0.000 A 
ATOM      7  O   UNL     1       1.532   8.929  22.260  0.00  0.00    +0.000 OA
ATOM      8  N   UNL     1       0.739   9.535  23.230  0.00  0.00    +0.000 NA
ATOM      9  C   UNL     1      -0.274  10.094  22.561  0.00  0.00    +0.000 A 
ATOM     10  C   UNL     1      -0.168   9.892  21.175  0.00  0.00    +0.000 A 
ATOM     11  C   UNL     1      -1.046  10.311  20.049  0.00  0.00    +0.000 C 
ATOM     12  C   UNL     1      -0.391  11.288  19.055  0.00  0.00    +0.000 C 
ATOM     13  C   UNL     1       1.107  11.103  18.749  0.00  0.00    +0.000 C 
ENDROOT
BRANCH   1  14
ATOM     14  C   UNL     1       2.208   6.385  20.168  0.00  0.00    +0.000 C 
BRANCH  14  19
ATOM     15  C   UNL     1       5.348   4.597  18.927  0.00  0.00    +0.000 A 
ATOM     16  C   UNL     1       4.811   3.478  18.301  0.00  0.00    +0.000 A 
ATOM     17  C   UNL     1       3.435   3.292  18.256  0.00  0.00    +0.000 A 
ATOM     18  C   UNL     1       2.572   4.228  18.837  0.00  0.00    +0.000 A 
ATOM     19  C   UNL     1       3.097   5.350  19.506  0.00  0.00    +0.000 A 
ATOM     20  C   UNL     1       4.498   5.512  19.551  0.00  0.00    +0.000 A 
BRANCH  15  22
ATOM     21  C   UNL     1       7.290   4.688  17.587  0.00  0.00    +0.000 C 
ATOM     22  O   UNL     1       6.711   4.673  18.886  0.00  0.00    +0.000 OA
ENDBRANCH  15  22
BRANCH  18  23
ATOM     23  O   UNL     1       1.210   4.077  18.835  0.00  0.00    +0.000 OA
ATOM     24  C   UNL     1       0.731   2.792  19.227  0.00  0.00    +0.000 C 
ENDBRANCH  18  23
ENDBRANCH  14  19
ENDBRANCH   1  14
TORSDOF 4
ENDMDL
MODEL 2
REMARK VINA RESULT:      -7.4      3.058      5.888
REMARK  Name = 
REMARK  6 active torsions:
REMARK  status: ('A' for Active; 'I' for Inactive)
REMARK    1  A    between atoms: C_1  and  O_2
REMARK    2  A    between atoms: O_2  and  C_3
REMARK    3  A    between atoms: C_6  and  O_7
REMARK    4  A    between atoms: O_7  and  C_8
REMARK    5  A    between atoms: C_9  and  C_10
REMARK    6  A    between atoms: C_10  and  N_11
REMARK                            x       y       z     vdW  Elec       q    Type
REMARK                         _______ _______ _______ _____ _____    ______ ____
ROOT
ATOM      1  N   UNL     1       4.302   3.642  18.139  0.00  0.00    +0.000 N 
ATOM      2  C   UNL     1       4.249   2.343  17.671  0.00  0.00    +0.000 A 
ATOM      3  C   UNL     1       2.999   1.827  17.941  0.00  0.00    +0.000 A 
ATOM      4  C   UNL     1       2.255   2.841  18.588  0.00  0.00    +0.000 A 
ATOM      5  C   UNL     1       3.079   3.955  18.675  0.00  0.00    +0.000 A 
ATOM      6  C   UNL     1       2.687   5.162  19.331  0.00  0.00    +0.000 A 
ATOM      7  O   UNL     1       2.847   6.434  18.874  0.00  0.00    +0.000 OA
ATOM      8  N   UNL     1       2.208   7.318  19.738  0.00  0.00    +0.000 NA
ATOM      9  C   UNL     1       1.690   6.557  20.705  0.00  0.00    +0.000 A 
ATOM     10  C   UNL     1       1.952   5.192  20.502  0.00  0.00    +0.000 A 
ATOM     11  C   UNL     1       1.592   3.990  21.302  0.00  0.00    +0.000 C 
ATOM     12  C   UNL     1       0.654   3.001  20.586  0.00  0.00    +0.000 C 
ATOM     13  C   UNL     1       0.836   2.808  19.069  0.00  0.00    +0.000 C 
ENDROOT
BRANCH   1  14
ATOM     14  C   UNL     1       5.475   4.511  18.034  0.00  0.00    +0.000 C 
BRANCH  14  19
ATOM     15  C   UNL     1       5.671   4.156  14.235  0.00  0.00    +0.000 A 
ATOM     16  C   UNL     1       6.821   4.878  13.940  0.00  0.00    +0.000 A 
ATOM     17  C   UNL     1       7.556   5.474  14.957  0.00  0.00    +0.000 A 
ATOM     18  C   UNL     1       7.151   5.353  16.292  0.00  0.00    +0.000 A 
ATOM     19  C   UNL     1       5.969   4.656  16.608  0.00  0.00    +0.000 A 
ATOM     20  C   UNL     1       5.232   4.069  15.558  0.00  0.00    +0.000 A 
BRANCH  15  22
ATOM     21  C   UNL     1       5.909   3.184  12.097  0.00  0.00    +0.000 C 
ATOM     22  O   UNL     1       5.051   3.604  13.151  0.00  0.00    +0.000 OA
ENDBRANCH  15  22
BRANCH  18  23
ATOM     23  O   UNL     1       7.831   5.940  17.326  0.00  0.00    +0.000 OA
ATOM     24  C   UNL     1       7.596   7.336  17.507  0.00  0.00    +0.000 C 
ENDBRANCH  18  23
ENDBRANCH  14  19
ENDBRANCH   1  14
TORSDOF 4
ENDMDL
MODEL 3
REMARK VINA RESULT:      -7.3      3.006      5.710
REMARK  Name = 
REMARK  6 active torsions:
REMARK  status: ('A' for Active; 'I' for Inactive)
REMARK    1  A    between atoms: C_1  and  O_2
REMARK    2  A    between atoms: O_2  and  C_3
REMARK    3  A    between atoms: C_6  and  O_7
REMARK    4  A    between atoms: O_7  and  C_8
REMARK    5  A    between atoms: C_9  and  C_10
REMARK    6  A    between atoms: C_10  and  N_11
REMARK                            x       y       z     vdW  Elec       q    Type
REMARK                         _______ _______ _______ _____ _____    ______ ____
ROOT
ATOM      1  N   UNL     1       3.735   4.477  17.398  0.00  0.00    +0.000 N 
ATOM      2  C   UNL     1       3.715   3.169  16.953  0.00  0.00    +0.000 A 
ATOM      3  C   UNL     1       2.706   2.494  17.607  0.00  0.00    +0.000 A 
ATOM      4  C   UNL     1       2.077   3.417  18.477  0.00  0.00    +0.000 A 
ATOM      5  C   UNL     1       2.722   4.635  18.309  0.00  0.00    +0.000 A 
ATOM      6  C   UNL     1       2.398   5.797  19.075  0.00  0.00    +0.000 A 
ATOM      7  O   UNL     1       2.223   7.064  18.611  0.00  0.00    +0.000 OA
ATOM      8  N   UNL     1       1.781   7.878  19.650  0.00  0.00    +0.000 NA
ATOM      9  C   UNL     1       1.717   7.083  20.721  0.00  0.00    +0.000 A 
ATOM     10  C   UNL     1       2.087   5.762  20.422  0.00  0.00    +0.000 A 
ATOM     11  C   UNL     1       2.177   4.547  21.276  0.00  0.00    +0.000 C 
ATOM     12  C   UNL     1       1.205   3.417  20.890  0.00  0.00    +0.000 C 
ATOM     13  C   UNL     1       0.910   3.204  19.393  0.00  0.00    +0.000 C 
ENDROOT
BRANCH   1  14
ATOM     14  C   UNL     1       4.677   5.494  16.932  0.00  0.00    +0.000 C 
BRANCH  14  19
ATOM     15  C   UNL     1       5.465   4.107  13.460  0.00  0.00    +0.000 A 
ATOM     16  C   UNL     1       6.851   4.198  13.425  0.00  0.00    +0.000 A 
ATOM     17  C   UNL     1       7.551   4.690  14.519  0.00  0.00    +0.000 A 
ATOM     18  C   UNL     1       6.871   5.098  15.672  0.00  0.00    +0.000 A 
ATOM     19  C   UNL     1       5.465   5.048  15.715  0.00  0.00    +0.000 A 
ATOM     20  C   UNL     1       4.773   4.556  14.587  0.00  0.00    +0.000 A 
BRANCH  15  22
ATOM     21  C   UNL     1       5.582   2.488  11.746  0.00  0.00    +0.000 C 
ATOM     22  O   UNL     1       4.899   3.590  12.330  0.00  0.00    +0.000 OA
ENDBRANCH  15  22
BRANCH  18  23
ATOM     23  O   UNL     1       7.516   5.608  16.768  0.00  0.00    +0.000 OA
ATOM     24  C   UNL     1       7.723   4.695  17.844  0.00  0.00    +0.000 C 
ENDBRANCH  18  23
ENDBRANCH  14  19
ENDBRANCH   1  14
TORSDOF 4
ENDMDL
MODEL 4
REMARK VINA RESULT:      -7.3      3.985      6.266
REMARK  Name = 
REMARK  6 active torsions:
REMARK  status: ('A' for Active; 'I' for Inactive)
REMARK    1  A    between atoms: C_1  and  O_2
REMARK    2  A    between atoms: O_2  and  C_3
REMARK    3  A    between atoms: C_6  and  O_7
REMARK    4  A    between atoms: O_7  and  C_8
REMARK    5  A    between atoms: C_9  and  C_10
REMARK    6  A    between atoms: C_10  and  N_11
REMARK                            x       y       z     vdW  Elec       q    Type
REMARK                         _______ _______ _______ _____ _____    ______ ____
ROOT
ATOM      1  N   UNL     1       4.452   4.524  17.444  0.00  0.00    +0.000 N 
ATOM      2  C   UNL     1       4.131   5.733  16.856  0.00  0.00    +0.000 A 
ATOM      3  C   UNL     1       3.368   6.466  17.741  0.00  0.00    +0.000 A 
ATOM      4  C   UNL     1       3.221   5.690  18.914  0.00  0.00    +0.000 A 
ATOM      5  C   UNL     1       3.919   4.507  18.708  0.00  0.00    +0.000 A 
ATOM      6  C   UNL     1       3.942   3.443  19.661  0.00  0.00    +0.000 A 
ATOM      7  O   UNL     1       5.028   2.735  20.075  0.00  0.00    +0.000 OA
ATOM      8  N   UNL     1       4.656   1.884  21.111  0.00  0.00    +0.000 NA
ATOM      9  C   UNL     1       3.348   2.088  21.284  0.00  0.00    +0.000 A 
ATOM     10  C   UNL     1       2.843   3.061  20.407  0.00  0.00    +0.000 A 
ATOM     11  C   UNL     1       1.470   3.606  20.225  0.00  0.00    +0.000 C 
ATOM     12  C   UNL     1       1.329   5.106  20.546  0.00  0.00    +0.000 C 
ATOM     13  C   UNL     1       2.507   6.031  20.187  0.00  0.00    +0.000 C 
ENDROOT
BRANCH   1  14
ATOM     14  C   UNL     1       5.251   3.480  16.803  0.00  0.00    +0.000 C 
BRANCH  14  19
ATOM     15  C   UNL     1       6.193   4.009  13.138  0.00  0.00    +0.000 A 
ATOM     16  C   UNL     1       7.291   4.853  13.245  0.00  0.00    +0.000 A 
ATOM     17  C   UNL     1       7.752   5.250  14.493  0.00  0.00    +0.000 A 
ATOM     18  C   UNL     1       7.120   4.804  15.660  0.00  0.00    +0.000 A 
ATOM     19  C   UNL     1       5.984   3.977  15.573  0.00  0.00    +0.000 A 
ATOM     20  C   UNL     1       5.526   3.596  14.293  0.00  0.00    +0.000 A 
BRANCH  15  22
ATOM     21  C   UNL     1       4.533   3.177  11.681  0.00  0.00    +0.000 C 
ATOM     22  O   UNL     1       5.852   3.677  11.858  0.00  0.00    +0.000 OA
ENDBRANCH  15  22
BRANCH  18  23
ATOM     23  O   UNL     1       7.526   5.185  16.912  0.00  0.00    +0.000 OA
ATOM     24  C   UNL     1       7.427   6.580  17.195  0.00  0.00    +0.000 C 
ENDBRANCH  18  23
ENDBRANCH  14  19
ENDBRANCH   1  14
TORSDOF 4
ENDMDL
MODEL 5
REMARK VINA RESULT:      -7.2      1.291      1.295
REMARK  Name = 
REMARK  6 active torsions:
REMARK  status: ('A' for Active; 'I' for Inactive)
REMARK    1  A    between atoms: C_1  and  O_2
REMARK    2  A    between atoms: O_2  and  C_3
REMARK    3  A    between atoms: C_6  and  O_7
REMARK    4  A    between atoms: O_7  and  C_8
REMARK    5  A    between atoms: C_9  and  C_10
REMARK    6  A    between atoms: C_10  and  N_11
REMARK                            x       y       z     vdW  Elec       q    Type
REMARK                         _______ _______ _______ _____ _____    ______ ____
ROOT
ATOM      1  N   UNL     1       1.943   8.008  19.327  0.00  0.00    +0.000 N 
ATOM      2  C   UNL     1       2.258   8.237  18.001  0.00  0.00    +0.000 A 
ATOM      3  C   UNL     1       1.892   9.527  17.677  0.00  0.00    +0.000 A 
ATOM      4  C   UNL     1       1.341  10.114  18.840  0.00  0.00    +0.000 A 
ATOM      5  C   UNL     1       1.407   9.159  19.845  0.00  0.00    +0.000 A 
ATOM      6  C   UNL     1       0.880   9.374  21.156  0.00  0.00    +0.000 A 
ATOM      7  O   UNL     1       1.483   9.083  22.341  0.00  0.00    +0.000 OA
ATOM      8  N   UNL     1       0.706   9.572  23.387  0.00  0.00    +0.000 NA
ATOM      9  C   UNL     1      -0.358  10.133  22.805  0.00  0.00    +0.000 A 
ATOM     10  C   UNL     1      -0.302  10.046  21.404  0.00  0.00    +0.000 A 
ATOM     11  C   UNL     1      -1.244  10.511  20.351  0.00  0.00    +0.000 C 
ATOM     12  C   UNL     1      -0.675  11.593  19.414  0.00  0.00    +0.000 C 
ATOM     13  C   UNL     1       0.815  11.504  19.036  0.00  0.00    +0.000 C 
ENDROOT
BRANCH   1  14
ATOM     14  C   UNL     1       2.182   6.745  20.026  0.00  0.00    +0.000 C 
BRANCH  14  19
ATOM     15  C   UNL     1       3.929   4.816  17.230  0.00  0.00    +0.000 A 
ATOM     16  C   UNL     1       3.304   3.578  17.303  0.00  0.00    +0.000 A 
ATOM     17  C   UNL     1       2.303   3.352  18.239  0.00  0.00    +0.000 A 
ATOM     18  C   UNL     1       1.909   4.367  19.119  0.00  0.00    +0.000 A 
ATOM     19  C   UNL     1       2.555   5.617  19.085  0.00  0.00    +0.000 A 
ATOM     20  C   UNL     1       3.578   5.821  18.134  0.00  0.00    +0.000 A 
BRANCH  15  22
ATOM     21  C   UNL     1       5.310   6.236  15.945  0.00  0.00    +0.000 C 
ATOM     22  O   UNL     1       4.882   4.916  16.256  0.00  0.00    +0.000 OA
ENDBRANCH  15  22
BRANCH  18  23
ATOM     23  O   UNL     1       0.942   4.184  20.072  0.00  0.00    +0.000 OA
ATOM     24  C   UNL     1       1.147   3.084  20.956  0.00  0.00    +0.000 C 
ENDBRANCH  18  23
ENDBRANCH  14  19
ENDBRANCH   1  14
TORSDOF 4
ENDMDL
MODEL 6
REMARK VINA RESULT:      -7.1      3.761      6.463
REMARK  Name = 
REMARK  6 active torsions:
REMARK  status: ('A' for Active; 'I' for Inactive)
REMARK    1  A    between atoms: C_1  and  O_2
REMARK    2  A    between atoms: O_2  and  C_3
REMARK    3  A    between atoms: C_6  and  O_7
REMARK    4  A    between atoms: O_7  and  C_8
REMARK    5  A    between atoms: C_9  and  C_10
REMARK    6  A    between atoms: C_10  and  N_11
REMARK                            x       y       z     vdW  Elec       q    Type
REMARK                         _______ _______ _______ _____ _____    ______ ____
ROOT
ATOM      1  N   UNL     1       4.197   5.473  19.422  0.00  0.00    +0.000 N 
ATOM      2  C   UNL     1       3.311   6.532  19.467  0.00  0.00    +0.000 A 
ATOM      3  C   UNL     1       2.033   6.034  19.618  0.00  0.00    +0.000 A 
ATOM      4  C   UNL     1       2.135   4.625  19.676  0.00  0.00    +0.000 A 
ATOM      5  C   UNL     1       3.484   4.311  19.574  0.00  0.00    +0.000 A 
ATOM      6  C   UNL     1       3.968   2.967  19.531  0.00  0.00    +0.000 A 
ATOM      7  O   UNL     1       5.019   2.451  20.224  0.00  0.00    +0.000 OA
ATOM      8  N   UNL     1       5.078   1.076  20.015  0.00  0.00    +0.000 NA
ATOM      9  C   UNL     1       4.069   0.800  19.184  0.00  0.00    +0.000 A 
ATOM     10  C   UNL     1       3.330   1.947  18.850  0.00  0.00    +0.000 A 
ATOM     11  C   UNL     1       2.146   2.133  17.968  0.00  0.00    +0.000 C 
ATOM     12  C   UNL     1       0.877   2.616  18.693  0.00  0.00    +0.000 C 
ATOM     13  C   UNL     1       1.049   3.608  19.859  0.00  0.00    +0.000 C 
ENDROOT
BRANCH   1  14
ATOM     14  C   UNL     1       5.645   5.612  19.264  0.00  0.00    +0.000 C 
BRANCH  14  19
ATOM     15  C   UNL     1       5.748   4.705  15.554  0.00  0.00    +0.000 A 
ATOM     16  C   UNL     1       6.828   5.456  15.107  0.00  0.00    +0.000 A 
ATOM     17  C   UNL     1       7.546   6.249  15.992  0.00  0.00    +0.000 A 
ATOM     18  C   UNL     1       7.194   6.302  17.346  0.00  0.00    +0.000 A 
ATOM     19  C   UNL     1       6.081   5.577  17.813  0.00  0.00    +0.000 A 
ATOM     20  C   UNL     1       5.358   4.787  16.893  0.00  0.00    +0.000 A 
BRANCH  15  22
ATOM     21  C   UNL     1       5.902   3.721  13.414  0.00  0.00    +0.000 C 
ATOM     22  O   UNL     1       5.138   3.954  14.590  0.00  0.00    +0.000 OA
ENDBRANCH  15  22
BRANCH  18  23
ATOM     23  O   UNL     1       7.860   7.085  18.252  0.00  0.00    +0.000 OA
ATOM     24  C   UNL     1       8.021   8.454  17.884  0.00  0.00    +0.000 C 
ENDBRANCH  18  23
ENDBRANCH  14  19
ENDBRANCH   1  14
TORSDOF 4
ENDMDL
MODEL 7
REMARK VINA RESULT:      -7.1      3.190      6.100
REMARK  Name = 
REMARK  6 active torsions:
REMARK  status: ('A' for Active; 'I' for Inactive)
REMARK    1  A    between atoms: C_1  and  O_2
REMARK    2  A    between atoms: O_2  and  C_3
REMARK    3  A    between atoms: C_6  and  O_7
REMARK    4  A    between atoms: O_7  and  C_8
REMARK    5  A    between atoms: C_9  and  C_10
REMARK    6  A    between atoms: C_10  and  N_11
REMARK                            x       y       z     vdW  Elec       q    Type
REMARK                         _______ _______ _______ _____ _____    ______ ____
ROOT
ATOM      1  N   UNL     1       3.588   5.452  19.826  0.00  0.00    +0.000 N 
ATOM      2  C   UNL     1       2.632   6.371  20.213  0.00  0.00    +0.000 A 
ATOM      3  C   UNL     1       1.477   5.694  20.547  0.00  0.00    +0.000 A 
ATOM      4  C   UNL     1       1.731   4.314  20.367  0.00  0.00    +0.000 A 
ATOM      5  C   UNL     1       3.048   4.197  19.943  0.00  0.00    +0.000 A 
ATOM      6  C   UNL     1       3.643   2.944  19.597  0.00  0.00    +0.000 A 
ATOM      7  O   UNL     1       4.869   2.487  19.972  0.00  0.00    +0.000 OA
ATOM      8  N   UNL     1       5.019   1.170  19.547  0.00  0.00    +0.000 NA
ATOM      9  C   UNL     1       3.883   0.872  18.911  0.00  0.00    +0.000 A 
ATOM     10  C   UNL     1       2.977   1.944  18.914  0.00  0.00    +0.000 A 
ATOM     11  C   UNL     1       1.614   2.084  18.334  0.00  0.00    +0.000 C 
ATOM     12  C   UNL     1       0.495   2.299  19.370  0.00  0.00    +0.000 C 
ATOM     13  C   UNL     1       0.821   3.149  20.613  0.00  0.00    +0.000 C 
ENDROOT
BRANCH   1  14
ATOM     14  C   UNL     1       4.943   5.799  19.397  0.00  0.00    +0.000 C 
BRANCH  14  19
ATOM     15  C   UNL     1       5.838   4.659  15.862  0.00  0.00    +0.000 A 
ATOM     16  C   UNL     1       5.414   5.740  15.098  0.00  0.00    +0.000 A 
ATOM     17  C   UNL     1       4.852   6.853  15.708  0.00  0.00    +0.000 A 
ATOM     18  C   UNL     1       4.706   6.904  17.100  0.00  0.00    +0.000 A 
ATOM     19  C   UNL     1       5.095   5.805  17.889  0.00  0.00    +0.000 A 
ATOM     20  C   UNL     1       5.653   4.679  17.246  0.00  0.00    +0.000 A 
BRANCH  15  22
ATOM     21  C   UNL     1       6.302   3.756  13.731  0.00  0.00    +0.000 C 
ATOM     22  O   UNL     1       6.390   3.637  15.145  0.00  0.00    +0.000 OA
ENDBRANCH  15  22
BRANCH  18  23
ATOM     23  O   UNL     1       4.138   7.972  17.744  0.00  0.00    +0.000 OA
ATOM     24  C   UNL     1       2.752   8.186  17.482  0.00  0.00    +0.000 C 
ENDBRANCH  18  23
ENDBRANCH  14  19
ENDBRANCH   1  14
TORSDOF 4
ENDMDL
MODEL 8
REMARK VINA RESULT:      -7.1      2.547      7.405
REMARK  Name = 
REMARK  6 active torsions:
REMARK  status: ('A' for Active; 'I' for Inactive)
REMARK    1  A    between atoms: C_1  and  O_2
REMARK    2  A    between atoms: O_2  and  C_3
REMARK    3  A    between atoms: C_6  and  O_7
REMARK    4  A    between atoms: O_7  and  C_8
REMARK    5  A    between atoms: C_9  and  C_10
REMARK    6  A    between atoms: C_10  and  N_11
REMARK                            x       y       z     vdW  Elec       q    Type
REMARK                         _______ _______ _______ _____ _____    ______ ____
ROOT
ATOM      1  N   UNL     1       1.725   8.352  19.439  0.00  0.00    +0.000 N 
ATOM      2  C   UNL     1       1.023   8.517  20.617  0.00  0.00    +0.000 A 
ATOM      3  C   UNL     1       1.084   7.341  21.336  0.00  0.00    +0.000 A 
ATOM      4  C   UNL     1       1.855   6.426  20.582  0.00  0.00    +0.000 A 
ATOM      5  C   UNL     1       2.253   7.086  19.428  0.00  0.00    +0.000 A 
ATOM      6  C   UNL     1       3.000   6.452  18.388  0.00  0.00    +0.000 A 
ATOM      7  O   UNL     1       4.090   6.947  17.741  0.00  0.00    +0.000 OA
ATOM      8  N   UNL     1       4.609   5.968  16.898  0.00  0.00    +0.000 NA
ATOM      9  C   UNL     1       3.807   4.910  17.047  0.00  0.00    +0.000 A 
ATOM     10  C   UNL     1       2.781   5.151  17.975  0.00  0.00    +0.000 A 
ATOM     11  C   UNL     1       1.665   4.291  18.453  0.00  0.00    +0.000 C 
ATOM     12  C   UNL     1       1.721   3.942  19.952  0.00  0.00    +0.000 C 
ATOM     13  C   UNL     1       2.246   5.019  20.921  0.00  0.00    +0.000 C 
ENDROOT
BRANCH   1  14
ATOM     14  C   UNL     1       1.878   9.388  18.416  0.00  0.00    +0.000 C 
BRANCH  14  19
ATOM     15  C   UNL     1      -1.657  10.533  17.529  0.00  0.00    +0.000 A 
ATOM     16  C   UNL     1      -1.664  11.836  18.010  0.00  0.00    +0.000 A 
ATOM     17  C   UNL     1      -0.531  12.368  18.611  0.00  0.00    +0.000 A 
ATOM     18  C   UNL     1       0.634  11.602  18.737  0.00  0.00    +0.000 A 
ATOM     19  C   UNL     1       0.650  10.268  18.288  0.00  0.00    +0.000 A 
ATOM     20  C   UNL     1      -0.517   9.743  17.692  0.00  0.00    +0.000 A 
BRANCH  15  22
ATOM     21  C   UNL     1      -2.985  10.492  15.577  0.00  0.00    +0.000 C 
ATOM     22  O   UNL     1      -2.826  10.135  16.944  0.00  0.00    +0.000 OA
ENDBRANCH  15  22
BRANCH  18  23
ATOM     23  O   UNL     1       1.768  12.077  19.340  0.00  0.00    +0.000 OA
ATOM     24  C   UNL     1       2.327  13.256  18.762  0.00  0.00    +0.000 C 
ENDBRANCH  18  23
ENDBRANCH  14  19
ENDBRANCH   1  14
TORSDOF 4
ENDMDL
MODEL 9
REMARK VINA RESULT:      -7.0      2.961      5.446
REMARK  Name = 
REMARK  6 active torsions:
REMARK  status: ('A' for Active; 'I' for Inactive)
REMARK    1  A    between atoms: C_1  and  O_2
REMARK    2  A    between atoms: O_2  and  C_3
REMARK    3  A    between atoms: C_6  and  O_7
REMARK    4  A    between atoms: O_7  and  C_8
REMARK    5  A    between atoms: C_9  and  C_10
REMARK    6  A    between atoms: C_10  and  N_11
REMARK                            x       y       z     vdW  Elec       q    Type
REMARK                         _______ _______ _______ _____ _____    ______ ____
ROOT
ATOM      1  N   UNL     1       3.539   3.306  17.411  0.00  0.00    +0.000 N 
ATOM      2  C   UNL     1       3.401   1.948  17.623  0.00  0.00    +0.000 A 
ATOM      3  C   UNL     1       2.499   1.749  18.647  0.00  0.00    +0.000 A 
ATOM      4  C   UNL     1       2.061   3.025  19.075  0.00  0.00    +0.000 A 
ATOM      5  C   UNL     1       2.704   3.962  18.279  0.00  0.00    +0.000 A 
ATOM      6  C   UNL     1       2.555   5.371  18.463  0.00  0.00    +0.000 A 
ATOM      7  O   UNL     1       2.341   6.308  17.500  0.00  0.00    +0.000 OA
ATOM      8  N   UNL     1       2.112   7.543  18.099  0.00  0.00    +0.000 NA
ATOM      9  C   UNL     1       2.210   7.322  19.413  0.00  0.00    +0.000 A 
ATOM     10  C   UNL     1       2.480   5.975  19.705  0.00  0.00    +0.000 A 
ATOM     11  C   UNL     1       2.680   5.269  20.999  0.00  0.00    +0.000 C 
ATOM     12  C   UNL     1       1.620   4.197  21.314  0.00  0.00    +0.000 C 
ATOM     13  C   UNL     1       1.064   3.371  20.140  0.00  0.00    +0.000 C 
ENDROOT
BRANCH   1  14
ATOM     14  C   UNL     1       4.417   3.900  16.403  0.00  0.00    +0.000 C 
BRANCH  14  19
ATOM     15  C   UNL     1       6.829   5.343  18.991  0.00  0.00    +0.000 A 
ATOM     16  C   UNL     1       7.587   6.214  18.219  0.00  0.00    +0.000 A 
ATOM     17  C   UNL     1       7.325   6.362  16.863  0.00  0.00    +0.000 A 
ATOM     18  C   UNL     1       6.292   5.637  16.256  0.00  0.00    +0.000 A 
ATOM     19  C   UNL     1       5.535   4.723  17.013  0.00  0.00    +0.000 A 
ATOM     20  C   UNL     1       5.827   4.581  18.387  0.00  0.00    +0.000 A 
BRANCH  15  22
ATOM     21  C   UNL     1       8.568   5.248  20.583  0.00  0.00    +0.000 C 
ATOM     22  O   UNL     1       7.174   5.304  20.312  0.00  0.00    +0.000 OA
ENDBRANCH  15  22
BRANCH  18  23
ATOM     23  O   UNL     1       6.009   5.734  14.919  0.00  0.00    +0.000 OA
ATOM     24  C   UNL     1       6.866   4.993  14.052  0.00  0.00    +0.000 C 
ENDBRANCH  18  23
ENDBRANCH  14  19
ENDBRANCH   1  14
TORSDOF 4
ENDMDL
