MODEL 1
REMARK VINA RESULT:      -8.0      0.000      0.000
REMARK  Name = 
REMARK  4 active torsions:
REMARK  status: ('A' for Active; 'I' for Inactive)
REMARK    1  A    between atoms: N_4  and  N_5
REMARK    2  A    between atoms: C_6  and  C_7
REMARK    3  A    between atoms: C_8  and  C_9
REMARK    4  A    between atoms: C_12  and  N_13
REMARK                            x       y       z     vdW  Elec       q    Type
REMARK                         _______ _______ _______ _____ _____    ______ ____
ROOT
ATOM      1  C   UNL     1       2.611   5.671  18.334  0.00  0.00    +0.000 A 
ATOM      2  C   UNL     1       2.647   7.063  18.619  0.00  0.00    +0.000 A 
ATOM      3  N   UNL     1       3.671   7.631  17.936  0.00  0.00    +0.000 NA
ATOM      4  C   UNL     1       4.220   6.617  17.269  0.00  0.00    +0.000 A 
ATOM      5  S   UNL     1       5.517   6.580  16.212  0.00  0.00    +0.000 S 
ATOM      6  C   UNL     1       5.260   4.919  15.943  0.00  0.00    +0.000 A 
ATOM      7 BR   UNL     1       6.311   3.845  14.772  0.00  0.00    +0.000 Br
ATOM      8  C   UNL     1       4.165   4.469  16.687  0.00  0.00    +0.000 A 
ATOM      9  N   UNL     1       3.621   5.454  17.450  0.00  0.00    +0.000 N 
ENDROOT
BRANCH   2  10
ATOM     10  C   UNL     1       1.821   7.909  19.523  0.00  0.00    +0.000 A 
ATOM     11  C   UNL     1       1.561   7.601  20.870  0.00  0.00    +0.000 A 
ATOM     12  C   UNL     1       0.844   8.502  21.675  0.00  0.00    +0.000 A 
ATOM     13  C   UNL     1       0.355   9.716  21.144  0.00  0.00    +0.000 A 
ATOM     14  C   UNL     1       0.601  10.005  19.797  0.00  0.00    +0.000 A 
ATOM     15  C   UNL     1       1.330   9.122  19.005  0.00  0.00    +0.000 A 
BRANCH  13  16
ATOM     16  N   UNL     1      -0.363  10.648  21.955  0.00  0.00    +0.000 N 
ATOM     17  O   UNL     1      -1.119  11.428  21.459  0.00  0.00    +0.000 OA
ATOM     18  O   UNL     1      -0.216  10.642  23.266  0.00  0.00    +0.000 OA
ENDBRANCH  13  16
ENDBRANCH   2  10
BRANCH   1  20
ATOM     19  N   UNL     1       1.850   3.559  19.420  0.00  0.00    +0.000 NA
ATOM     20  C   UNL     1       1.597   4.675  18.811  0.00  0.00    +0.000 C 
BRANCH  19  24
ATOM     21  N   UNL     1       3.337   1.369  18.510  0.00  0.00    +0.000 NA
ATOM     22  C   UNL     1       3.814   2.103  19.455  0.00  0.00    +0.000 C 
ATOM     23  N   UNL     1       5.098   1.824  19.995  0.00  0.00    +0.000 N 
ATOM     24  N   UNL     1       3.082   3.227  19.934  0.00  0.00    +0.000 N 
ATOM     25  H   UNL     1       3.867   0.568  18.137  0.00  0.00    +0.000 HD
ATOM     26  H   UNL     1       5.665   1.039  19.641  0.00  0.00    +0.000 HD
ATOM     27  H   UNL     1       5.493   2.424  20.733  0.00  0.00    +0.000 HD
ATOM     28  H   UNL     1       3.493   3.799  20.688  0.00  0.00    +0.000 HD
ENDBRANCH  19  24
ENDBRANCH   1  20
TORSDOF 4
ENDMDL
MODEL 2
REMARK VINA RESULT:      -7.6      0.214      1.004
REMARK  Name = 
REMARK  4 active torsions:
REMARK  status: ('A' for Active; 'I' for Inactive)
REMARK    1  A    between atoms: N_4  and  N_5
REMARK    2  A    between atoms: C_6  and  C_7
REMARK    3  A    between atoms: C_8  and  C_9
REMARK    4  A    between atoms: C_12  and  N_13
REMARK                            x       y       z     vdW  Elec       q    Type
REMARK                         _______ _______ _______ _____ _____    ______ ____
ROOT
ATOM      1  C   UNL     1       2.638   5.767  18.336  0.00  0.00    +0.000 A 
ATOM      2  C   UNL     1       2.721   7.170  18.546  0.00  0.00    +0.000 A 
ATOM      3  N   UNL     1       3.734   7.674  17.798  0.00  0.00    +0.000 NA
ATOM      4  C   UNL     1       4.232   6.611  17.168  0.00  0.00    +0.000 A 
ATOM      5  S   UNL     1       5.487   6.483  16.068  0.00  0.00    +0.000 S 
ATOM      6  C   UNL     1       5.177   4.819  15.897  0.00  0.00    +0.000 A 
ATOM      7 BR   UNL     1       6.156   3.657  14.748  0.00  0.00    +0.000 Br
ATOM      8  C   UNL     1       4.098   4.439  16.701  0.00  0.00    +0.000 A 
ATOM      9  N   UNL     1       3.609   5.477  17.430  0.00  0.00    +0.000 N 
ENDROOT
BRANCH   2  10
ATOM     10  C   UNL     1       1.951   8.086  19.433  0.00  0.00    +0.000 A 
ATOM     11  C   UNL     1       1.270   9.229  18.982  0.00  0.00    +0.000 A 
ATOM     12  C   UNL     1       0.494   9.988  19.876  0.00  0.00    +0.000 A 
ATOM     13  C   UNL     1       0.404   9.630  21.239  0.00  0.00    +0.000 A 
ATOM     14  C   UNL     1       1.103   8.502  21.683  0.00  0.00    +0.000 A 
ATOM     15  C   UNL     1       1.854   7.739  20.794  0.00  0.00    +0.000 A 
BRANCH  13  16
ATOM     16  N   UNL     1      -0.392  10.384  22.155  0.00  0.00    +0.000 N 
ATOM     17  O   UNL     1      -1.205  11.162  21.754  0.00  0.00    +0.000 OA
ATOM     18  O   UNL     1      -0.254  10.214  23.456  0.00  0.00    +0.000 OA
ENDBRANCH  13  16
ENDBRANCH   2  10
BRANCH   1  20
ATOM     19  N   UNL     1       1.862   3.720  19.528  0.00  0.00    +0.000 NA
ATOM     20  C   UNL     1       1.617   4.826  18.901  0.00  0.00    +0.000 C 
BRANCH  19  24
ATOM     21  N   UNL     1       3.210   1.448  18.603  0.00  0.00    +0.000 NA
ATOM     22  C   UNL     1       3.768   2.189  19.496  0.00  0.00    +0.000 C 
ATOM     23  N   UNL     1       5.070   1.874  19.972  0.00  0.00    +0.000 N 
ATOM     24  N   UNL     1       3.108   3.354  19.982  0.00  0.00    +0.000 N 
ATOM     25  H   UNL     1       3.687   0.616  18.225  0.00  0.00    +0.000 HD
ATOM     26  H   UNL     1       5.585   1.058  19.610  0.00  0.00    +0.000 HD
ATOM     27  H   UNL     1       5.529   2.480  20.667  0.00  0.00    +0.000 HD
ATOM     28  H   UNL     1       3.584   3.930  20.694  0.00  0.00    +0.000 HD
ENDBRANCH  19  24
ENDBRANCH   1  20
TORSDOF 4
ENDMDL
MODEL 3
REMARK VINA RESULT:      -7.5      4.966      6.883
REMARK  Name = 
REMARK  4 active torsions:
REMARK  status: ('A' for Active; 'I' for Inactive)
REMARK    1  A    between atoms: N_4  and  N_5
REMARK    2  A    between atoms: C_6  and  C_7
REMARK    3  A    between atoms: C_8  and  C_9
REMARK    4  A    between atoms: C_12  and  N_13
REMARK                            x       y       z     vdW  Elec       q    Type
REMARK                         _______ _______ _______ _____ _____    ______ ____
ROOT
ATOM      1  C   UNL     1       2.941   6.199  19.580  0.00  0.00    +0.000 A 
ATOM      2  C   UNL     1       3.297   6.625  18.272  0.00  0.00    +0.000 A 
ATOM      3  N   UNL     1       2.668   7.794  17.997  0.00  0.00    +0.000 NA
ATOM      4  C   UNL     1       1.967   8.053  19.100  0.00  0.00    +0.000 A 
ATOM      5  S   UNL     1       0.965   9.339  19.481  0.00  0.00    +0.000 S 
ATOM      6  C   UNL     1       0.724   8.700  21.039  0.00  0.00    +0.000 A 
ATOM      7 BR   UNL     1      -0.361   9.513  22.377  0.00  0.00    +0.000 Br
ATOM      8  C   UNL     1       1.445   7.512  21.195  0.00  0.00    +0.000 A 
ATOM      9  N   UNL     1       2.112   7.162  20.063  0.00  0.00    +0.000 N 
ENDROOT
BRANCH   2  10
ATOM     10  C   UNL     1       4.153   6.000  17.227  0.00  0.00    +0.000 A 
ATOM     11  C   UNL     1       4.231   4.615  16.997  0.00  0.00    +0.000 A 
ATOM     12  C   UNL     1       4.998   4.118  15.930  0.00  0.00    +0.000 A 
ATOM     13  C   UNL     1       5.719   4.993  15.087  0.00  0.00    +0.000 A 
ATOM     14  C   UNL     1       5.653   6.368  15.337  0.00  0.00    +0.000 A 
ATOM     15  C   UNL     1       4.876   6.862  16.380  0.00  0.00    +0.000 A 
BRANCH  13  16
ATOM     16  N   UNL     1       6.491   4.501  13.991  0.00  0.00    +0.000 N 
ATOM     17  O   UNL     1       6.214   3.462  13.472  0.00  0.00    +0.000 OA
ATOM     18  O   UNL     1       7.507   5.201  13.523  0.00  0.00    +0.000 OA
ENDBRANCH  13  16
ENDBRANCH   2  10
BRANCH   1  20
ATOM     19  N   UNL     1       2.845   3.877  20.483  0.00  0.00    +0.000 NA
ATOM     20  C   UNL     1       3.464   5.002  20.317  0.00  0.00    +0.000 C 
BRANCH  19  24
ATOM     21  N   UNL     1       2.684   1.598  18.866  0.00  0.00    +0.000 NA
ATOM     22  C   UNL     1       1.651   2.358  18.984  0.00  0.00    +0.000 C 
ATOM     23  N   UNL     1       0.435   2.016  18.332  0.00  0.00    +0.000 N 
ATOM     24  N   UNL     1       1.702   3.521  19.805  0.00  0.00    +0.000 N 
ATOM     25  H   UNL     1       2.653   0.740  18.295  0.00  0.00    +0.000 HD
ATOM     26  H   UNL     1       0.360   1.160  17.763  0.00  0.00    +0.000 HD
ATOM     27  H   UNL     1      -0.399   2.609  18.446  0.00  0.00    +0.000 HD
ATOM     28  H   UNL     1       0.857   4.107  19.884  0.00  0.00    +0.000 HD
ENDBRANCH  19  24
ENDBRANCH   1  20
TORSDOF 4
ENDMDL
MODEL 4
REMARK VINA RESULT:      -7.1      5.226      8.307
REMARK  Name = 
REMARK  4 active torsions:
REMARK  status: ('A' for Active; 'I' for Inactive)
REMARK    1  A    between atoms: N_4  and  N_5
REMARK    2  A    between atoms: C_6  and  C_7
REMARK    3  A    between atoms: C_8  and  C_9
REMARK    4  A    between atoms: C_12  and  N_13
REMARK                            x       y       z     vdW  Elec       q    Type
REMARK                         _______ _______ _______ _____ _____    ______ ____
ROOT
ATOM      1  C   UNL     1       0.970   9.577  19.903  0.00  0.00    +0.000 A 
ATOM      2  C   UNL     1       1.282   8.303  20.451  0.00  0.00    +0.000 A 
ATOM      3  N   UNL     1       0.811   8.236  21.721  0.00  0.00    +0.000 NA
ATOM      4  C   UNL     1       0.239   9.423  21.919  0.00  0.00    +0.000 A 
ATOM      5  S   UNL     1      -0.560  10.040  23.253  0.00  0.00    +0.000 S 
ATOM      6  C   UNL     1      -0.902  11.470  22.396  0.00  0.00    +0.000 A 
ATOM      7 BR   UNL     1      -1.878  12.942  23.109  0.00  0.00    +0.000 Br
ATOM      8  C   UNL     1      -0.382  11.397  21.100  0.00  0.00    +0.000 A 
ATOM      9  N   UNL     1       0.285  10.233  20.877  0.00  0.00    +0.000 N 
ENDROOT
BRANCH   2  10
ATOM     10  C   UNL     1       2.033   7.144  19.894  0.00  0.00    +0.000 A 
ATOM     11  C   UNL     1       2.830   7.205  18.738  0.00  0.00    +0.000 A 
ATOM     12  C   UNL     1       3.575   6.084  18.334  0.00  0.00    +0.000 A 
ATOM     13  C   UNL     1       3.519   4.876  19.064  0.00  0.00    +0.000 A 
ATOM     14  C   UNL     1       2.706   4.819  20.201  0.00  0.00    +0.000 A 
ATOM     15  C   UNL     1       1.985   5.936  20.614  0.00  0.00    +0.000 A 
BRANCH  13  16
ATOM     16  N   UNL     1       4.282   3.734  18.672  0.00  0.00    +0.000 N 
ATOM     17  O   UNL     1       5.069   3.242  19.424  0.00  0.00    +0.000 OA
ATOM     18  O   UNL     1       4.111   3.194  17.480  0.00  0.00    +0.000 OA
ENDBRANCH  13  16
ENDBRANCH   2  10
BRANCH   1  20
ATOM     19  N   UNL     1       0.351  10.192  17.568  0.00  0.00    +0.000 NA
ATOM     20  C   UNL     1       1.233  10.052  18.506  0.00  0.00    +0.000 C 
BRANCH  19  24
ATOM     21  N   UNL     1      -1.281  12.459  17.405  0.00  0.00    +0.000 NA
ATOM     22  C   UNL     1      -1.813  11.322  17.694  0.00  0.00    +0.000 C 
ATOM     23  N   UNL     1      -3.218  11.220  17.887  0.00  0.00    +0.000 N 
ATOM     24  N   UNL     1      -1.008  10.151  17.779  0.00  0.00    +0.000 N 
ATOM     25  H   UNL     1      -1.856  13.311  17.316  0.00  0.00    +0.000 HD
ATOM     26  H   UNL     1      -3.828  12.045  17.795  0.00  0.00    +0.000 HD
ATOM     27  H   UNL     1      -3.648  10.307  18.093  0.00  0.00    +0.000 HD
ATOM     28  H   UNL     1      -1.463   9.253  18.007  0.00  0.00    +0.000 HD
ENDBRANCH  19  24
ENDBRANCH   1  20
TORSDOF 4
ENDMDL
MODEL 5
REMARK VINA RESULT:      -7.1      4.986      6.919
REMARK  Name = 
REMARK  4 active torsions:
REMARK  status: ('A' for Active; 'I' for Inactive)
REMARK    1  A    between atoms: N_4  and  N_5
REMARK    2  A    between atoms: C_6  and  C_7
REMARK    3  A    between atoms: C_8  and  C_9
REMARK    4  A    between atoms: C_12  and  N_13
REMARK                            x       y       z     vdW  Elec       q    Type
REMARK                         _______ _______ _______ _____ _____    ______ ____
ROOT
ATOM      1  C   UNL     1       2.972   6.314  19.522  0.00  0.00    +0.000 A 
ATOM      2  C   UNL     1       3.252   6.828  18.227  0.00  0.00    +0.000 A 
ATOM      3  N   UNL     1       2.552   7.975  18.041  0.00  0.00    +0.000 NA
ATOM      4  C   UNL     1       1.883   8.136  19.182  0.00  0.00    +0.000 A 
ATOM      5  S   UNL     1       0.832   9.343  19.671  0.00  0.00    +0.000 S 
ATOM      6  C   UNL     1       0.688   8.610  21.199  0.00  0.00    +0.000 A 
ATOM      7 BR   UNL     1      -0.383   9.291  22.620  0.00  0.00    +0.000 Br
ATOM      8  C   UNL     1       1.476   7.456  21.262  0.00  0.00    +0.000 A 
ATOM      9  N   UNL     1       2.114   7.204  20.089  0.00  0.00    +0.000 N 
ENDROOT
BRANCH   2  10
ATOM     10  C   UNL     1       4.096   6.307  17.117  0.00  0.00    +0.000 A 
ATOM     11  C   UNL     1       4.815   7.123  16.226  0.00  0.00    +0.000 A 
ATOM     12  C   UNL     1       5.658   6.544  15.262  0.00  0.00    +0.000 A 
ATOM     13  C   UNL     1       5.781   5.141  15.157  0.00  0.00    +0.000 A 
ATOM     14  C   UNL     1       5.045   4.337  16.034  0.00  0.00    +0.000 A 
ATOM     15  C   UNL     1       4.227   4.910  17.003  0.00  0.00    +0.000 A 
BRANCH  13  16
ATOM     16  N   UNL     1       6.645   4.540  14.191  0.00  0.00    +0.000 N 
ATOM     17  O   UNL     1       6.330   3.528  13.641  0.00  0.00    +0.000 OA
ATOM     18  O   UNL     1       7.794   5.109  13.878  0.00  0.00    +0.000 OA
ENDBRANCH  13  16
ENDBRANCH   2  10
BRANCH   1  20
ATOM     19  N   UNL     1       3.012   3.963  20.352  0.00  0.00    +0.000 NA
ATOM     20  C   UNL     1       3.586   5.110  20.171  0.00  0.00    +0.000 C 
BRANCH  19  24
ATOM     21  N   UNL     1       2.727   1.638  18.820  0.00  0.00    +0.000 NA
ATOM     22  C   UNL     1       1.710   2.411  18.984  0.00  0.00    +0.000 C 
ATOM     23  N   UNL     1       0.451   2.060  18.425  0.00  0.00    +0.000 N 
ATOM     24  N   UNL     1       1.824   3.598  19.763  0.00  0.00    +0.000 N 
ATOM     25  H   UNL     1       2.653   0.764  18.280  0.00  0.00    +0.000 HD
ATOM     26  H   UNL     1       0.332   1.188  17.888  0.00  0.00    +0.000 HD
ATOM     27  H   UNL     1      -0.370   2.664  18.576  0.00  0.00    +0.000 HD
ATOM     28  H   UNL     1       0.989   4.194  19.880  0.00  0.00    +0.000 HD
ENDBRANCH  19  24
ENDBRANCH   1  20
TORSDOF 4
ENDMDL
MODEL 6
REMARK VINA RESULT:      -7.0      4.927      6.771
REMARK  Name = 
REMARK  4 active torsions:
REMARK  status: ('A' for Active; 'I' for Inactive)
REMARK    1  A    between atoms: N_4  and  N_5
REMARK    2  A    between atoms: C_6  and  C_7
REMARK    3  A    between atoms: C_8  and  C_9
REMARK    4  A    between atoms: C_12  and  N_13
REMARK                            x       y       z     vdW  Elec       q    Type
REMARK                         _______ _______ _______ _____ _____    ______ ____
ROOT
ATOM      1  C   UNL     1       2.279   6.941  20.092  0.00  0.00    +0.000 A 
ATOM      2  C   UNL     1       2.740   7.215  18.775  0.00  0.00    +0.000 A 
ATOM      3  N   UNL     1       2.203   8.385  18.349  0.00  0.00    +0.000 NA
ATOM      4  C   UNL     1       1.453   8.791  19.373  0.00  0.00    +0.000 A 
ATOM      5  S   UNL     1       0.513  10.162  19.561  0.00  0.00    +0.000 S 
ATOM      6  C   UNL     1       0.138   9.695  21.153  0.00  0.00    +0.000 A 
ATOM      7 BR   UNL     1      -0.973  10.697  22.333  0.00  0.00    +0.000 Br
ATOM      8  C   UNL     1       0.772   8.490  21.470  0.00  0.00    +0.000 A 
ATOM      9  N   UNL     1       1.484   7.993  20.424  0.00  0.00    +0.000 N 
ENDROOT
BRANCH   2  10
ATOM     10  C   UNL     1       3.617   6.442  17.854  0.00  0.00    +0.000 A 
ATOM     11  C   UNL     1       3.474   5.067  17.599  0.00  0.00    +0.000 A 
ATOM     12  C   UNL     1       4.292   4.436  16.646  0.00  0.00    +0.000 A 
ATOM     13  C   UNL     1       5.282   5.162  15.947  0.00  0.00    +0.000 A 
ATOM     14  C   UNL     1       5.431   6.526  16.223  0.00  0.00    +0.000 A 
ATOM     15  C   UNL     1       4.607   7.155  17.151  0.00  0.00    +0.000 A 
BRANCH  13  16
ATOM     16  N   UNL     1       6.110   4.536  14.966  0.00  0.00    +0.000 N 
ATOM     17  O   UNL     1       6.030   3.362  14.765  0.00  0.00    +0.000 OA
ATOM     18  O   UNL     1       6.959   5.253  14.254  0.00  0.00    +0.000 OA
ENDBRANCH  13  16
ENDBRANCH   2  10
BRANCH   1  20
ATOM     19  N   UNL     1       2.105   4.637  21.027  0.00  0.00    +0.000 NA
ATOM     20  C   UNL     1       2.680   5.796  20.972  0.00  0.00    +0.000 C 
BRANCH  19  24
ATOM     21  N   UNL     1       2.296   2.155  19.748  0.00  0.00    +0.000 NA
ATOM     22  C   UNL     1       1.304   2.929  19.472  0.00  0.00    +0.000 C 
ATOM     23  N   UNL     1       0.300   2.504  18.560  0.00  0.00    +0.000 N 
ATOM     24  N   UNL     1       1.179   4.195  20.112  0.00  0.00    +0.000 N 
ATOM     25  H   UNL     1       2.386   1.226  19.310  0.00  0.00    +0.000 HD
ATOM     26  H   UNL     1       0.348   1.578  18.111  0.00  0.00    +0.000 HD
ATOM     27  H   UNL     1      -0.507   3.111  18.358  0.00  0.00    +0.000 HD
ATOM     28  H   UNL     1       0.369   4.790  19.874  0.00  0.00    +0.000 HD
ENDBRANCH  19  24
ENDBRANCH   1  20
TORSDOF 4
ENDMDL
MODEL 7
REMARK VINA RESULT:      -6.9      0.954      1.035
REMARK  Name = 
REMARK  4 active torsions:
REMARK  status: ('A' for Active; 'I' for Inactive)
REMARK    1  A    between atoms: N_4  and  N_5
REMARK    2  A    between atoms: C_6  and  C_7
REMARK    3  A    between atoms: C_8  and  C_9
REMARK    4  A    between atoms: C_12  and  N_13
REMARK                            x       y       z     vdW  Elec       q    Type
REMARK                         _______ _______ _______ _____ _____    ______ ____
ROOT
ATOM      1  C   UNL     1       2.947   5.079  17.691  0.00  0.00    +0.000 A 
ATOM      2  C   UNL     1       3.077   6.396  18.210  0.00  0.00    +0.000 A 
ATOM      3  N   UNL     1       4.151   6.997  17.638  0.00  0.00    +0.000 NA
ATOM      4  C   UNL     1       4.637   6.073  16.811  0.00  0.00    +0.000 A 
ATOM      5  S   UNL     1       5.946   6.122  15.768  0.00  0.00    +0.000 S 
ATOM      6  C   UNL     1       5.576   4.555  15.219  0.00  0.00    +0.000 A 
ATOM      7 BR   UNL     1       6.568   3.622  13.886  0.00  0.00    +0.000 Br
ATOM      8  C   UNL     1       4.439   4.066  15.870  0.00  0.00    +0.000 A 
ATOM      9  N   UNL     1       3.954   4.944  16.788  0.00  0.00    +0.000 N 
ENDROOT
BRANCH   2  10
ATOM     10  C   UNL     1       2.298   7.135  19.241  0.00  0.00    +0.000 A 
ATOM     11  C   UNL     1       1.996   6.623  20.515  0.00  0.00    +0.000 A 
ATOM     12  C   UNL     1       1.331   7.424  21.459  0.00  0.00    +0.000 A 
ATOM     13  C   UNL     1       0.937   8.742  21.140  0.00  0.00    +0.000 A 
ATOM     14  C   UNL     1       1.223   9.236  19.862  0.00  0.00    +0.000 A 
ATOM     15  C   UNL     1       1.901   8.450  18.935  0.00  0.00    +0.000 A 
BRANCH  13  16
ATOM     16  N   UNL     1       0.273   9.572  22.095  0.00  0.00    +0.000 N 
ATOM     17  O   UNL     1       0.723  10.639  22.388  0.00  0.00    +0.000 OA
ATOM     18  O   UNL     1      -0.858   9.179  22.648  0.00  0.00    +0.000 OA
ENDBRANCH  13  16
ENDBRANCH   2  10
BRANCH   1  20
ATOM     19  N   UNL     1       1.945   3.074  18.782  0.00  0.00    +0.000 NA
ATOM     20  C   UNL     1       1.858   4.093  17.987  0.00  0.00    +0.000 C 
BRANCH  19  24
ATOM     21  N   UNL     1       3.992   1.222  18.325  0.00  0.00    +0.000 NA
ATOM     22  C   UNL     1       4.008   1.921  19.407  0.00  0.00    +0.000 C 
ATOM     23  N   UNL     1       5.077   1.777  20.333  0.00  0.00    +0.000 N 
ATOM     24  N   UNL     1       2.982   2.875  19.663  0.00  0.00    +0.000 N 
ATOM     25  H   UNL     1       4.741   0.545  18.115  0.00  0.00    +0.000 HD
ATOM     26  H   UNL     1       5.851   1.121  20.154  0.00  0.00    +0.000 HD
ATOM     27  H   UNL     1       5.104   2.353  21.186  0.00  0.00    +0.000 HD
ATOM     28  H   UNL     1       3.025   3.424  20.536  0.00  0.00    +0.000 HD
ENDBRANCH  19  24
ENDBRANCH   1  20
TORSDOF 4
ENDMDL
MODEL 8
REMARK VINA RESULT:      -6.8      1.009      1.248
REMARK  Name = 
REMARK  4 active torsions:
REMARK  status: ('A' for Active; 'I' for Inactive)
REMARK    1  A    between atoms: N_4  and  N_5
REMARK    2  A    between atoms: C_6  and  C_7
REMARK    3  A    between atoms: C_8  and  C_9
REMARK    4  A    between atoms: C_12  and  N_13
REMARK                            x       y       z     vdW  Elec       q    Type
REMARK                         _______ _______ _______ _____ _____    ______ ____
ROOT
ATOM      1  C   UNL     1       3.033   6.193  19.368  0.00  0.00    +0.000 A 
ATOM      2  C   UNL     1       2.522   7.490  19.089  0.00  0.00    +0.000 A 
ATOM      3  N   UNL     1       3.052   7.936  17.923  0.00  0.00    +0.000 NA
ATOM      4  C   UNL     1       3.846   6.943  17.526  0.00  0.00    +0.000 A 
ATOM      5  S   UNL     1       4.805   6.791  16.163  0.00  0.00    +0.000 S 
ATOM      6  C   UNL     1       5.239   5.215  16.635  0.00  0.00    +0.000 A 
ATOM      7 BR   UNL     1       6.406   4.080  15.644  0.00  0.00    +0.000 Br
ATOM      8  C   UNL     1       4.607   4.875  17.834  0.00  0.00    +0.000 A 
ATOM      9  N   UNL     1       3.850   5.892  18.324  0.00  0.00    +0.000 N 
ENDROOT
BRANCH   2  10
ATOM     10  C   UNL     1       1.601   8.377  19.853  0.00  0.00    +0.000 A 
ATOM     11  C   UNL     1       1.242   8.168  21.196  0.00  0.00    +0.000 A 
ATOM     12  C   UNL     1       0.437   9.105  21.865  0.00  0.00    +0.000 A 
ATOM     13  C   UNL     1      -0.043  10.255  21.199  0.00  0.00    +0.000 A 
ATOM     14  C   UNL     1       0.303  10.443  19.856  0.00  0.00    +0.000 A 
ATOM     15  C   UNL     1       1.118   9.526  19.199  0.00  0.00    +0.000 A 
BRANCH  13  16
ATOM     16  N   UNL     1      -0.851  11.222  21.871  0.00  0.00    +0.000 N 
ATOM     17  O   UNL     1      -1.704  11.815  21.282  0.00  0.00    +0.000 OA
ATOM     18  O   UNL     1      -0.679  11.456  23.158  0.00  0.00    +0.000 OA
ENDBRANCH  13  16
ENDBRANCH   2  10
BRANCH   1  20
ATOM     19  N   UNL     1       2.007   4.181  20.424  0.00  0.00    +0.000 NA
ATOM     20  C   UNL     1       2.656   5.299  20.511  0.00  0.00    +0.000 C 
BRANCH  19  24
ATOM     21  N   UNL     1       3.494   1.960  19.592  0.00  0.00    +0.000 NA
ATOM     22  C   UNL     1       2.544   2.397  18.840  0.00  0.00    +0.000 C 
ATOM     23  N   UNL     1       2.233   1.731  17.624  0.00  0.00    +0.000 N 
ATOM     24  N   UNL     1       1.768   3.522  19.240  0.00  0.00    +0.000 N 
ATOM     25  H   UNL     1       4.048   1.132  19.326  0.00  0.00    +0.000 HD
ATOM     26  H   UNL     1       2.755   0.892  17.329  0.00  0.00    +0.000 HD
ATOM     27  H   UNL     1       1.458   2.063  17.034  0.00  0.00    +0.000 HD
ATOM     28  H   UNL     1       1.010   3.845  18.619  0.00  0.00    +0.000 HD
ENDBRANCH  19  24
ENDBRANCH   1  20
TORSDOF 4
ENDMDL
MODEL 9
REMARK VINA RESULT:      -6.8      0.999      1.199
REMARK  Name = 
REMARK  4 active torsions:
REMARK  status: ('A' for Active; 'I' for Inactive)
REMARK    1  A    between atoms: N_4  and  N_5
REMARK    2  A    between atoms: C_6  and  C_7
REMARK    3  A    between atoms: C_8  and  C_9
REMARK    4  A    between atoms: C_12  and  N_13
REMARK                            x       y       z     vdW  Elec       q    Type
REMARK                         _______ _______ _______ _____ _____    ______ ____
ROOT
ATOM      1  C   UNL     1       2.713   5.706  17.864  0.00  0.00    +0.000 A 
ATOM      2  C   UNL     1       2.880   6.997  18.434  0.00  0.00    +0.000 A 
ATOM      3  N   UNL     1       4.076   7.506  18.045  0.00  0.00    +0.000 NA
ATOM      4  C   UNL     1       4.597   6.554  17.272  0.00  0.00    +0.000 A 
ATOM      5  S   UNL     1       6.046   6.499  16.436  0.00  0.00    +0.000 S 
ATOM      6  C   UNL     1       5.626   4.981  15.793  0.00  0.00    +0.000 A 
ATOM      7 BR   UNL     1       6.720   3.982  14.595  0.00  0.00    +0.000 Br
ATOM      8  C   UNL     1       4.366   4.588  16.255  0.00  0.00    +0.000 A 
ATOM      9  N   UNL     1       3.828   5.492  17.116  0.00  0.00    +0.000 N 
ENDROOT
BRANCH   2  10
ATOM     10  C   UNL     1       2.024   7.788  19.361  0.00  0.00    +0.000 A 
ATOM     11  C   UNL     1       1.725   7.401  20.679  0.00  0.00    +0.000 A 
ATOM     12  C   UNL     1       0.980   8.253  21.513  0.00  0.00    +0.000 A 
ATOM     13  C   UNL     1       0.502   9.494  21.039  0.00  0.00    +0.000 A 
ATOM     14  C   UNL     1       0.787   9.861  19.718  0.00  0.00    +0.000 A 
ATOM     15  C   UNL     1       1.542   9.027  18.899  0.00  0.00    +0.000 A 
BRANCH  13  16
ATOM     16  N   UNL     1      -0.244  10.375  21.880  0.00  0.00    +0.000 N 
ATOM     17  O   UNL     1      -1.080  11.092  21.418  0.00  0.00    +0.000 OA
ATOM     18  O   UNL     1      -0.033  10.391  23.183  0.00  0.00    +0.000 OA
ENDBRANCH  13  16
ENDBRANCH   2  10
BRANCH   1  20
ATOM     19  N   UNL     1       1.428   3.717  18.644  0.00  0.00    +0.000 NA
ATOM     20  C   UNL     1       1.509   4.819  17.968  0.00  0.00    +0.000 C 
BRANCH  19  24
ATOM     21  N   UNL     1       0.746   2.794  21.197  0.00  0.00    +0.000 NA
ATOM     22  C   UNL     1       1.989   2.851  20.861  0.00  0.00    +0.000 C 
ATOM     23  N   UNL     1       2.993   2.411  21.765  0.00  0.00    +0.000 N 
ATOM     24  N   UNL     1       2.364   3.312  19.567  0.00  0.00    +0.000 N 
ATOM     25  H   UNL     1       0.459   2.439  22.122  0.00  0.00    +0.000 HD
ATOM     26  H   UNL     1       2.746   2.038  22.693  0.00  0.00    +0.000 HD
ATOM     27  H   UNL     1       3.985   2.432  21.489  0.00  0.00    +0.000 HD
ATOM     28  H   UNL     1       3.367   3.341  19.325  0.00  0.00    +0.000 HD
ENDBRANCH  19  24
ENDBRANCH   1  20
TORSDOF 4
ENDMDL
