MODEL 1
REMARK VINA RESULT:      -7.2      0.000      0.000
REMARK  Name = 
REMARK  8 active torsions:
REMARK  status: ('A' for Active; 'I' for Inactive)
REMARK    1  A    between atoms: C_1  and  N_2
REMARK    2  A    between atoms: N_2  and  C_3
REMARK    3  A    between atoms: C_4  and  C_6
REMARK    4  A    between atoms: C_6  and  O_7
REMARK    5  A    between atoms: O_7  and  C_8
REMARK    6  A    between atoms: C_8  and  C_9
REMARK    7  A    between atoms: N_16  and  C_17
REMARK    8  A    between atoms: C_17  and  C_18
REMARK                            x       y       z     vdW  Elec       q    Type
REMARK                         _______ _______ _______ _____ _____    ______ ____
ROOT
ATOM      1  C   UNL     1       7.769   6.859  17.326  0.00  0.00    +0.000 C 
ATOM      2  C   UNL     1       7.877   5.983  18.579  0.00  0.00    +0.000 C 
ATOM      3  C   UNL     1       6.522   5.640  19.188  0.00  0.00    +0.000 C 
ATOM      4  C   UNL     1       5.541   5.104  18.133  0.00  0.00    +0.000 C 
ATOM      5  C   UNL     1       5.554   5.952  16.865  0.00  0.00    +0.000 C 
ATOM      6  C   UNL     1       4.581   7.066  17.196  0.00  0.00    +0.000 C 
ATOM      7  C   UNL     1       3.511   6.369  18.010  0.00  0.00    +0.000 C 
ATOM      8  N   UNL     1       4.148   5.197  18.651  0.00  0.00    +0.000 NA
ATOM      9  O   UNL     1       6.824   6.361  16.381  0.00  0.00    +0.000 OA
ENDROOT
BRANCH   1  10
ATOM     10  C   UNL     1       7.548   8.366  17.592  0.00  0.00    +0.000 C 
BRANCH  10  11
ATOM     11  O   UNL     1       8.509   8.977  18.443  0.00  0.00    +0.000 OA
BRANCH  11  12
ATOM     12  C   UNL     1       8.789  10.319  18.088  0.00  0.00    +0.000 C 
BRANCH  12  16
ATOM     13  C   UNL     1      10.886  12.853  20.042  0.00  0.00    +0.000 C 
ATOM     14  N   UNL     1      10.219  12.192  18.937  0.00  0.00    +0.000 N 
ATOM     15  C   UNL     1      10.436  12.697  17.589  0.00  0.00    +0.000 C 
ATOM     16  C   UNL     1       9.457  11.065  19.238  0.00  0.00    +0.000 C 
ATOM     17  O   UNL     1       9.352  10.633  20.385  0.00  0.00    +0.000 OA
ENDBRANCH  12  16
ENDBRANCH  11  12
ENDBRANCH  10  11
ENDBRANCH   1  10
BRANCH   8  18
ATOM     18  C   UNL     1       3.327   4.011  18.342  0.00  0.00    +0.000 C 
BRANCH  18  19
ATOM     19  C   UNL     1       2.478   3.556  19.470  0.00  0.00    +0.000 A 
ATOM     20  C   UNL     1       1.279   2.880  19.551  0.00  0.00    +0.000 A 
ATOM     21  C   UNL     1       1.000   2.738  20.930  0.00  0.00    +0.000 A 
ATOM     22  C   UNL     1       2.047   3.330  21.599  0.00  0.00    +0.000 A 
ATOM     23  O   UNL     1       2.949   3.827  20.720  0.00  0.00    +0.000 OA
ENDBRANCH  18  19
ENDBRANCH   8  18
TORSDOF 6
ENDMDL
MODEL 2
REMARK VINA RESULT:      -7.0      4.347      7.019
REMARK  Name = 
REMARK  8 active torsions:
REMARK  status: ('A' for Active; 'I' for Inactive)
REMARK    1  A    between atoms: C_1  and  N_2
REMARK    2  A    between atoms: N_2  and  C_3
REMARK    3  A    between atoms: C_4  and  C_6
REMARK    4  A    between atoms: C_6  and  O_7
REMARK    5  A    between atoms: O_7  and  C_8
REMARK    6  A    between atoms: C_8  and  C_9
REMARK    7  A    between atoms: N_16  and  C_17
REMARK    8  A    between atoms: C_17  and  C_18
REMARK                            x       y       z     vdW  Elec       q    Type
REMARK                         _______ _______ _______ _____ _____    ______ ____
ROOT
ATOM      1  C   UNL     1       2.948   3.488  19.399  0.00  0.00    +0.000 C 
ATOM      2  C   UNL     1       2.596   3.554  17.909  0.00  0.00    +0.000 C 
ATOM      3  C   UNL     1       3.569   4.409  17.103  0.00  0.00    +0.000 C 
ATOM      4  C   UNL     1       5.032   4.030  17.384  0.00  0.00    +0.000 C 
ATOM      5  C   UNL     1       5.298   3.871  18.878  0.00  0.00    +0.000 C 
ATOM      6  C   UNL     1       5.587   5.291  19.321  0.00  0.00    +0.000 C 
ATOM      7  C   UNL     1       6.350   5.877  18.151  0.00  0.00    +0.000 C 
ATOM      8  N   UNL     1       5.929   5.132  16.942  0.00  0.00    +0.000 NA
ATOM      9  O   UNL     1       4.320   3.173  19.633  0.00  0.00    +0.000 OA
ENDROOT
BRANCH   1  10
ATOM     10  C   UNL     1       2.508   4.711  20.236  0.00  0.00    +0.000 C 
BRANCH  10  11
ATOM     11  O   UNL     1       1.855   5.740  19.505  0.00  0.00    +0.000 OA
BRANCH  11  12
ATOM     12  C   UNL     1       2.564   6.966  19.520  0.00  0.00    +0.000 C 
BRANCH  12  16
ATOM     13  C   UNL     1       0.578  10.226  19.774  0.00  0.00    +0.000 C 
ATOM     14  N   UNL     1       1.356   9.139  19.213  0.00  0.00    +0.000 N 
ATOM     15  C   UNL     1       1.785   9.233  17.825  0.00  0.00    +0.000 C 
ATOM     16  C   UNL     1       1.700   8.096  20.071  0.00  0.00    +0.000 C 
ATOM     17  O   UNL     1       1.371   8.087  21.256  0.00  0.00    +0.000 OA
ENDBRANCH  12  16
ENDBRANCH  11  12
ENDBRANCH  10  11
ENDBRANCH   1  10
BRANCH   8  18
ATOM     18  C   UNL     1       7.146   4.659  16.257  0.00  0.00    +0.000 C 
BRANCH  18  19
ATOM     19  C   UNL     1       7.004   4.546  14.785  0.00  0.00    +0.000 A 
ATOM     20  C   UNL     1       6.226   3.764  13.958  0.00  0.00    +0.000 A 
ATOM     21  C   UNL     1       6.550   4.147  12.635  0.00  0.00    +0.000 A 
ATOM     22  C   UNL     1       7.497   5.140  12.742  0.00  0.00    +0.000 A 
ATOM     23  O   UNL     1       7.777   5.389  14.043  0.00  0.00    +0.000 OA
ENDBRANCH  18  19
ENDBRANCH   8  18
TORSDOF 6
ENDMDL
MODEL 3
REMARK VINA RESULT:      -6.9      4.558      7.398
REMARK  Name = 
REMARK  8 active torsions:
REMARK  status: ('A' for Active; 'I' for Inactive)
REMARK    1  A    between atoms: C_1  and  N_2
REMARK    2  A    between atoms: N_2  and  C_3
REMARK    3  A    between atoms: C_4  and  C_6
REMARK    4  A    between atoms: C_6  and  O_7
REMARK    5  A    between atoms: O_7  and  C_8
REMARK    6  A    between atoms: C_8  and  C_9
REMARK    7  A    between atoms: N_16  and  C_17
REMARK    8  A    between atoms: C_17  and  C_18
REMARK                            x       y       z     vdW  Elec       q    Type
REMARK                         _______ _______ _______ _____ _____    ______ ____
ROOT
ATOM      1  C   UNL     1       3.160   5.007  19.788  0.00  0.00    +0.000 C 
ATOM      2  C   UNL     1       3.019   3.664  19.063  0.00  0.00    +0.000 C 
ATOM      3  C   UNL     1       3.566   3.692  17.640  0.00  0.00    +0.000 C 
ATOM      4  C   UNL     1       4.982   4.287  17.584  0.00  0.00    +0.000 C 
ATOM      5  C   UNL     1       5.092   5.565  18.411  0.00  0.00    +0.000 C 
ATOM      6  C   UNL     1       4.612   6.631  17.447  0.00  0.00    +0.000 C 
ATOM      7  C   UNL     1       5.152   6.168  16.110  0.00  0.00    +0.000 C 
ATOM      8  N   UNL     1       5.298   4.696  16.188  0.00  0.00    +0.000 NA
ATOM      9  O   UNL     1       4.472   5.557  19.687  0.00  0.00    +0.000 OA
ENDROOT
BRANCH   1  10
ATOM     10  C   UNL     1       2.087   6.062  19.435  0.00  0.00    +0.000 C 
BRANCH  10  11
ATOM     11  O   UNL     1       2.345   7.373  19.920  0.00  0.00    +0.000 OA
BRANCH  11  12
ATOM     12  C   UNL     1       1.382   7.816  20.859  0.00  0.00    +0.000 C 
BRANCH  12  16
ATOM     13  C   UNL     1      -0.593  11.092  20.946  0.00  0.00    +0.000 C 
ATOM     14  N   UNL     1      -0.011   9.834  21.372  0.00  0.00    +0.000 N 
ATOM     15  C   UNL     1      -0.359   9.315  22.686  0.00  0.00    +0.000 C 
ATOM     16  C   UNL     1       0.801   9.168  20.456  0.00  0.00    +0.000 C 
ATOM     17  O   UNL     1       1.017   9.611  19.329  0.00  0.00    +0.000 OA
ENDBRANCH  12  16
ENDBRANCH  11  12
ENDBRANCH  10  11
ENDBRANCH   1  10
BRANCH   8  18
ATOM     18  C   UNL     1       6.673   4.357  15.774  0.00  0.00    +0.000 C 
BRANCH  18  19
ATOM     19  C   UNL     1       6.904   4.460  14.313  0.00  0.00    +0.000 A 
ATOM     20  C   UNL     1       6.390   3.803  13.215  0.00  0.00    +0.000 A 
ATOM     21  C   UNL     1       7.016   4.378  12.084  0.00  0.00    +0.000 A 
ATOM     22  C   UNL     1       7.862   5.350  12.564  0.00  0.00    +0.000 A 
ATOM     23  O   UNL     1       7.800   5.408  13.915  0.00  0.00    +0.000 OA
ENDBRANCH  18  19
ENDBRANCH   8  18
TORSDOF 6
ENDMDL
MODEL 4
REMARK VINA RESULT:      -6.9      1.034      1.345
REMARK  Name = 
REMARK  8 active torsions:
REMARK  status: ('A' for Active; 'I' for Inactive)
REMARK    1  A    between atoms: C_1  and  N_2
REMARK    2  A    between atoms: N_2  and  C_3
REMARK    3  A    between atoms: C_4  and  C_6
REMARK    4  A    between atoms: C_6  and  O_7
REMARK    5  A    between atoms: O_7  and  C_8
REMARK    6  A    between atoms: C_8  and  C_9
REMARK    7  A    between atoms: N_16  and  C_17
REMARK    8  A    between atoms: C_17  and  C_18
REMARK                            x       y       z     vdW  Elec       q    Type
REMARK                         _______ _______ _______ _____ _____    ______ ____
ROOT
ATOM      1  C   UNL     1       7.736   6.944  17.406  0.00  0.00    +0.000 C 
ATOM      2  C   UNL     1       7.940   6.088  18.661  0.00  0.00    +0.000 C 
ATOM      3  C   UNL     1       6.629   5.639  19.297  0.00  0.00    +0.000 C 
ATOM      4  C   UNL     1       5.675   5.017  18.265  0.00  0.00    +0.000 C 
ATOM      5  C   UNL     1       5.595   5.856  16.993  0.00  0.00    +0.000 C 
ATOM      6  C   UNL     1       4.539   6.888  17.338  0.00  0.00    +0.000 C 
ATOM      7  C   UNL     1       3.546   6.112  18.176  0.00  0.00    +0.000 C 
ATOM      8  N   UNL     1       4.290   4.999  18.810  0.00  0.00    +0.000 NA
ATOM      9  O   UNL     1       6.817   6.365  16.482  0.00  0.00    +0.000 OA
ENDROOT
BRANCH   1  10
ATOM     10  C   UNL     1       7.398   8.430  17.669  0.00  0.00    +0.000 C 
BRANCH  10  11
ATOM     11  O   UNL     1       8.508   9.316  17.650  0.00  0.00    +0.000 OA
BRANCH  11  12
ATOM     12  C   UNL     1       8.889   9.755  18.942  0.00  0.00    +0.000 C 
BRANCH  12  16
ATOM     13  C   UNL     1      10.769  12.953  19.879  0.00  0.00    +0.000 C 
ATOM     14  N   UNL     1       9.935  11.772  19.996  0.00  0.00    +0.000 N 
ATOM     15  C   UNL     1       9.241  11.531  21.252  0.00  0.00    +0.000 C 
ATOM     16  C   UNL     1       9.803  10.973  18.862  0.00  0.00    +0.000 C 
ATOM     17  O   UNL     1      10.357  11.249  17.799  0.00  0.00    +0.000 OA
ENDBRANCH  12  16
ENDBRANCH  11  12
ENDBRANCH  10  11
ENDBRANCH   1  10
BRANCH   8  18
ATOM     18  C   UNL     1       3.563   3.748  18.523  0.00  0.00    +0.000 C 
BRANCH  18  19
ATOM     19  C   UNL     1       2.610   3.348  19.585  0.00  0.00    +0.000 A 
ATOM     20  C   UNL     1       2.756   2.913  20.886  0.00  0.00    +0.000 A 
ATOM     21  C   UNL     1       1.447   2.704  21.379  0.00  0.00    +0.000 A 
ATOM     22  C   UNL     1       0.590   3.032  20.354  0.00  0.00    +0.000 A 
ATOM     23  O   UNL     1       1.288   3.425  19.262  0.00  0.00    +0.000 OA
ENDBRANCH  18  19
ENDBRANCH   8  18
TORSDOF 6
ENDMDL
MODEL 5
REMARK VINA RESULT:      -6.9      1.180      1.366
REMARK  Name = 
REMARK  8 active torsions:
REMARK  status: ('A' for Active; 'I' for Inactive)
REMARK    1  A    between atoms: C_1  and  N_2
REMARK    2  A    between atoms: N_2  and  C_3
REMARK    3  A    between atoms: C_4  and  C_6
REMARK    4  A    between atoms: C_6  and  O_7
REMARK    5  A    between atoms: O_7  and  C_8
REMARK    6  A    between atoms: C_8  and  C_9
REMARK    7  A    between atoms: N_16  and  C_17
REMARK    8  A    between atoms: C_17  and  C_18
REMARK                            x       y       z     vdW  Elec       q    Type
REMARK                         _______ _______ _______ _____ _____    ______ ____
ROOT
ATOM      1  C   UNL     1       8.029   7.030  17.723  0.00  0.00    +0.000 C 
ATOM      2  C   UNL     1       7.971   6.132  18.963  0.00  0.00    +0.000 C 
ATOM      3  C   UNL     1       6.569   5.611  19.259  0.00  0.00    +0.000 C 
ATOM      4  C   UNL     1       5.911   4.999  18.012  0.00  0.00    +0.000 C 
ATOM      5  C   UNL     1       6.093   5.886  16.784  0.00  0.00    +0.000 C 
ATOM      6  C   UNL     1       4.942   6.865  16.903  0.00  0.00    +0.000 C 
ATOM      7  C   UNL     1       3.816   6.021  17.460  0.00  0.00    +0.000 C 
ATOM      8  N   UNL     1       4.439   4.910  18.216  0.00  0.00    +0.000 NA
ATOM      9  O   UNL     1       7.377   6.457  16.591  0.00  0.00    +0.000 OA
ENDROOT
BRANCH   1  10
ATOM     10  C   UNL     1       7.574   8.491  17.945  0.00  0.00    +0.000 C 
BRANCH  10  11
ATOM     11  O   UNL     1       8.489   9.484  17.502  0.00  0.00    +0.000 OA
BRANCH  11  12
ATOM     12  C   UNL     1       8.929  10.336  18.544  0.00  0.00    +0.000 C 
BRANCH  12  16
ATOM     13  C   UNL     1      10.767  13.594  17.738  0.00  0.00    +0.000 C 
ATOM     14  N   UNL     1      10.518  12.242  18.200  0.00  0.00    +0.000 N 
ATOM     15  C   UNL     1      11.591  11.528  18.876  0.00  0.00    +0.000 C 
ATOM     16  C   UNL     1       9.232  11.736  18.019  0.00  0.00    +0.000 C 
ATOM     17  O   UNL     1       8.335  12.398  17.499  0.00  0.00    +0.000 OA
ENDBRANCH  12  16
ENDBRANCH  11  12
ENDBRANCH  10  11
ENDBRANCH   1  10
BRANCH   8  18
ATOM     18  C   UNL     1       3.854   3.647  17.727  0.00  0.00    +0.000 C 
BRANCH  18  19
ATOM     19  C   UNL     1       2.633   3.227  18.455  0.00  0.00    +0.000 A 
ATOM     20  C   UNL     1       1.283   3.419  18.248  0.00  0.00    +0.000 A 
ATOM     21  C   UNL     1       0.624   2.747  19.305  0.00  0.00    +0.000 A 
ATOM     22  C   UNL     1       1.612   2.185  20.080  0.00  0.00    +0.000 A 
ATOM     23  O   UNL     1       2.833   2.470  19.571  0.00  0.00    +0.000 OA
ENDBRANCH  18  19
ENDBRANCH   8  18
TORSDOF 6
ENDMDL
MODEL 6
REMARK VINA RESULT:      -6.8      4.319      7.101
REMARK  Name = 
REMARK  8 active torsions:
REMARK  status: ('A' for Active; 'I' for Inactive)
REMARK    1  A    between atoms: C_1  and  N_2
REMARK    2  A    between atoms: N_2  and  C_3
REMARK    3  A    between atoms: C_4  and  C_6
REMARK    4  A    between atoms: C_6  and  O_7
REMARK    5  A    between atoms: O_7  and  C_8
REMARK    6  A    between atoms: C_8  and  C_9
REMARK    7  A    between atoms: N_16  and  C_17
REMARK    8  A    between atoms: C_17  and  C_18
REMARK                            x       y       z     vdW  Elec       q    Type
REMARK                         _______ _______ _______ _____ _____    ______ ____
ROOT
ATOM      1  C   UNL     1       2.958   3.493  19.324  0.00  0.00    +0.000 C 
ATOM      2  C   UNL     1       2.622   3.585  17.831  0.00  0.00    +0.000 C 
ATOM      3  C   UNL     1       3.606   4.450  17.050  0.00  0.00    +0.000 C 
ATOM      4  C   UNL     1       5.064   4.062  17.339  0.00  0.00    +0.000 C 
ATOM      5  C   UNL     1       5.314   3.878  18.834  0.00  0.00    +0.000 C 
ATOM      6  C   UNL     1       5.603   5.289  19.303  0.00  0.00    +0.000 C 
ATOM      7  C   UNL     1       6.379   5.892  18.151  0.00  0.00    +0.000 C 
ATOM      8  N   UNL     1       5.969   5.169  16.925  0.00  0.00    +0.000 NA
ATOM      9  O   UNL     1       4.326   3.170  19.566  0.00  0.00    +0.000 OA
ENDROOT
BRANCH   1  10
ATOM     10  C   UNL     1       2.513   4.704  20.176  0.00  0.00    +0.000 C 
BRANCH  10  11
ATOM     11  O   UNL     1       1.958   5.787  19.444  0.00  0.00    +0.000 OA
BRANCH  11  12
ATOM     12  C   UNL     1       2.647   7.007  19.651  0.00  0.00    +0.000 C 
BRANCH  12  16
ATOM     13  C   UNL     1       0.506  10.096  18.931  0.00  0.00    +0.000 C 
ATOM     14  N   UNL     1       1.186   9.042  19.660  0.00  0.00    +0.000 N 
ATOM     15  C   UNL     1       0.963   8.931  21.094  0.00  0.00    +0.000 C 
ATOM     16  C   UNL     1       1.965   8.157  18.917  0.00  0.00    +0.000 C 
ATOM     17  O   UNL     1       2.075   8.248  17.695  0.00  0.00    +0.000 OA
ENDBRANCH  12  16
ENDBRANCH  11  12
ENDBRANCH  10  11
ENDBRANCH   1  10
BRANCH   8  18
ATOM     18  C   UNL     1       7.192   4.703  16.245  0.00  0.00    +0.000 C 
BRANCH  18  19
ATOM     19  C   UNL     1       7.052   4.576  14.774  0.00  0.00    +0.000 A 
ATOM     20  C   UNL     1       6.256   3.804  13.954  0.00  0.00    +0.000 A 
ATOM     21  C   UNL     1       6.595   4.163  12.628  0.00  0.00    +0.000 A 
ATOM     22  C   UNL     1       7.567   5.131  12.726  0.00  0.00    +0.000 A 
ATOM     23  O   UNL     1       7.849   5.389  14.025  0.00  0.00    +0.000 OA
ENDBRANCH  18  19
ENDBRANCH   8  18
TORSDOF 6
ENDMDL
MODEL 7
REMARK VINA RESULT:      -6.8      1.085      1.274
REMARK  Name = 
REMARK  8 active torsions:
REMARK  status: ('A' for Active; 'I' for Inactive)
REMARK    1  A    between atoms: C_1  and  N_2
REMARK    2  A    between atoms: N_2  and  C_3
REMARK    3  A    between atoms: C_4  and  C_6
REMARK    4  A    between atoms: C_6  and  O_7
REMARK    5  A    between atoms: O_7  and  C_8
REMARK    6  A    between atoms: C_8  and  C_9
REMARK    7  A    between atoms: N_16  and  C_17
REMARK    8  A    between atoms: C_17  and  C_18
REMARK                            x       y       z     vdW  Elec       q    Type
REMARK                         _______ _______ _______ _____ _____    ______ ____
ROOT
ATOM      1  C   UNL     1       8.044   6.906  17.632  0.00  0.00    +0.000 C 
ATOM      2  C   UNL     1       7.969   6.073  18.917  0.00  0.00    +0.000 C 
ATOM      3  C   UNL     1       6.556   5.600  19.240  0.00  0.00    +0.000 C 
ATOM      4  C   UNL     1       5.882   4.940  18.026  0.00  0.00    +0.000 C 
ATOM      5  C   UNL     1       6.082   5.759  16.754  0.00  0.00    +0.000 C 
ATOM      6  C   UNL     1       4.953   6.769  16.824  0.00  0.00    +0.000 C 
ATOM      7  C   UNL     1       3.809   5.979  17.424  0.00  0.00    +0.000 C 
ATOM      8  N   UNL     1       4.409   4.895  18.235  0.00  0.00    +0.000 NA
ATOM      9  O   UNL     1       7.378   6.291  16.531  0.00  0.00    +0.000 OA
ENDROOT
BRANCH   1  10
ATOM     10  C   UNL     1       7.623   8.386  17.781  0.00  0.00    +0.000 C 
BRANCH  10  11
ATOM     11  O   UNL     1       8.546   9.211  18.478  0.00  0.00    +0.000 OA
BRANCH  11  12
ATOM     12  C   UNL     1       8.610  10.529  17.964  0.00  0.00    +0.000 C 
BRANCH  12  16
ATOM     13  C   UNL     1      10.206  13.618  19.560  0.00  0.00    +0.000 C 
ATOM     14  N   UNL     1       9.311  12.794  18.770  0.00  0.00    +0.000 N 
ATOM     15  C   UNL     1       8.326  13.450  17.923  0.00  0.00    +0.000 C 
ATOM     16  C   UNL     1       9.502  11.415  18.827  0.00  0.00    +0.000 C 
ATOM     17  O   UNL     1      10.390  10.904  19.507  0.00  0.00    +0.000 OA
ENDBRANCH  12  16
ENDBRANCH  11  12
ENDBRANCH  10  11
ENDBRANCH   1  10
BRANCH   8  18
ATOM     18  C   UNL     1       3.795   3.622  17.811  0.00  0.00    +0.000 C 
BRANCH  18  19
ATOM     19  C   UNL     1       2.626   3.215  18.627  0.00  0.00    +0.000 A 
ATOM     20  C   UNL     1       2.375   3.175  19.982  0.00  0.00    +0.000 A 
ATOM     21  C   UNL     1       1.051   2.697  20.122  0.00  0.00    +0.000 A 
ATOM     22  C   UNL     1       0.581   2.483  18.847  0.00  0.00    +0.000 A 
ATOM     23  O   UNL     1       1.529   2.797  17.934  0.00  0.00    +0.000 OA
ENDBRANCH  18  19
ENDBRANCH   8  18
TORSDOF 6
ENDMDL
MODEL 8
REMARK VINA RESULT:      -6.8      3.832      5.876
REMARK  Name = 
REMARK  8 active torsions:
REMARK  status: ('A' for Active; 'I' for Inactive)
REMARK    1  A    between atoms: C_1  and  N_2
REMARK    2  A    between atoms: N_2  and  C_3
REMARK    3  A    between atoms: C_4  and  C_6
REMARK    4  A    between atoms: C_6  and  O_7
REMARK    5  A    between atoms: O_7  and  C_8
REMARK    6  A    between atoms: C_8  and  C_9
REMARK    7  A    between atoms: N_16  and  C_17
REMARK    8  A    between atoms: C_17  and  C_18
REMARK                            x       y       z     vdW  Elec       q    Type
REMARK                         _______ _______ _______ _____ _____    ______ ____
ROOT
ATOM      1  C   UNL     1       6.918   6.131  17.770  0.00  0.00    +0.000 C 
ATOM      2  C   UNL     1       6.029   7.250  17.217  0.00  0.00    +0.000 C 
ATOM      3  C   UNL     1       4.580   6.819  17.019  0.00  0.00    +0.000 C 
ATOM      4  C   UNL     1       4.012   6.130  18.269  0.00  0.00    +0.000 C 
ATOM      5  C   UNL     1       4.985   5.102  18.839  0.00  0.00    +0.000 C 
ATOM      6  C   UNL     1       4.680   3.862  18.024  0.00  0.00    +0.000 C 
ATOM      7  C   UNL     1       3.180   3.927  17.830  0.00  0.00    +0.000 C 
ATOM      8  N   UNL     1       2.794   5.355  17.904  0.00  0.00    +0.000 NA
ATOM      9  O   UNL     1       6.351   5.481  18.906  0.00  0.00    +0.000 OA
ENDROOT
BRANCH   1  10
ATOM     10  C   UNL     1       7.407   5.101  16.726  0.00  0.00    +0.000 C 
BRANCH  10  11
ATOM     11  O   UNL     1       7.232   5.485  15.369  0.00  0.00    +0.000 OA
BRANCH  11  12
ATOM     12  C   UNL     1       7.316   4.395  14.469  0.00  0.00    +0.000 C 
BRANCH  12  16
ATOM     13  C   UNL     1       4.616   3.281  11.998  0.00  0.00    +0.000 C 
ATOM     14  N   UNL     1       5.922   3.521  12.580  0.00  0.00    +0.000 N 
ATOM     15  C   UNL     1       7.105   3.232  11.782  0.00  0.00    +0.000 C 
ATOM     16  C   UNL     1       5.955   4.081  13.856  0.00  0.00    +0.000 C 
ATOM     17  O   UNL     1       4.930   4.371  14.470  0.00  0.00    +0.000 OA
ENDBRANCH  12  16
ENDBRANCH  11  12
ENDBRANCH  10  11
ENDBRANCH   1  10
BRANCH   8  18
ATOM     18  C   UNL     1       1.704   5.478  18.890  0.00  0.00    +0.000 C 
BRANCH  18  19
ATOM     19  C   UNL     1       1.644   4.361  19.863  0.00  0.00    +0.000 A 
ATOM     20  C   UNL     1       0.928   3.183  19.924  0.00  0.00    +0.000 A 
ATOM     21  C   UNL     1       1.334   2.537  21.115  0.00  0.00    +0.000 A 
ATOM     22  C   UNL     1       2.273   3.357  21.698  0.00  0.00    +0.000 A 
ATOM     23  O   UNL     1       2.468   4.464  20.944  0.00  0.00    +0.000 OA
ENDBRANCH  18  19
ENDBRANCH   8  18
TORSDOF 6
ENDMDL
MODEL 9
REMARK VINA RESULT:      -6.8      1.093      1.316
REMARK  Name = 
REMARK  8 active torsions:
REMARK  status: ('A' for Active; 'I' for Inactive)
REMARK    1  A    between atoms: C_1  and  N_2
REMARK    2  A    between atoms: N_2  and  C_3
REMARK    3  A    between atoms: C_4  and  C_6
REMARK    4  A    between atoms: C_6  and  O_7
REMARK    5  A    between atoms: O_7  and  C_8
REMARK    6  A    between atoms: C_8  and  C_9
REMARK    7  A    between atoms: N_16  and  C_17
REMARK    8  A    between atoms: C_17  and  C_18
REMARK                            x       y       z     vdW  Elec       q    Type
REMARK                         _______ _______ _______ _____ _____    ______ ____
ROOT
ATOM      1  C   UNL     1       8.009   6.968  17.623  0.00  0.00    +0.000 C 
ATOM      2  C   UNL     1       7.951   6.131  18.906  0.00  0.00    +0.000 C 
ATOM      3  C   UNL     1       6.548   5.631  19.230  0.00  0.00    +0.000 C 
ATOM      4  C   UNL     1       5.884   4.961  18.017  0.00  0.00    +0.000 C 
ATOM      5  C   UNL     1       6.067   5.786  16.746  0.00  0.00    +0.000 C 
ATOM      6  C   UNL     1       4.920   6.775  16.819  0.00  0.00    +0.000 C 
ATOM      7  C   UNL     1       3.792   5.963  17.419  0.00  0.00    +0.000 C 
ATOM      8  N   UNL     1       4.412   4.889  18.228  0.00  0.00    +0.000 NA
ATOM      9  O   UNL     1       7.353   6.342  16.522  0.00  0.00    +0.000 OA
ENDROOT
BRANCH   1  10
ATOM     10  C   UNL     1       7.561   8.439  17.774  0.00  0.00    +0.000 C 
BRANCH  10  11
ATOM     11  O   UNL     1       8.596   9.404  17.640  0.00  0.00    +0.000 OA
BRANCH  11  12
ATOM     12  C   UNL     1       8.732  10.232  18.781  0.00  0.00    +0.000 C 
BRANCH  12  16
ATOM     13  C   UNL     1      11.543  12.669  19.678  0.00  0.00    +0.000 C 
ATOM     14  N   UNL     1      10.392  11.797  19.816  0.00  0.00    +0.000 N 
ATOM     15  C   UNL     1       9.709  11.743  21.100  0.00  0.00    +0.000 C 
ATOM     16  C   UNL     1       9.973  11.113  18.676  0.00  0.00    +0.000 C 
ATOM     17  O   UNL     1      10.541  11.238  17.592  0.00  0.00    +0.000 OA
ENDBRANCH  12  16
ENDBRANCH  11  12
ENDBRANCH  10  11
ENDBRANCH   1  10
BRANCH   8  18
ATOM     18  C   UNL     1       3.822   3.606  17.802  0.00  0.00    +0.000 C 
BRANCH  18  19
ATOM     19  C   UNL     1       2.622   3.209  18.578  0.00  0.00    +0.000 A 
ATOM     20  C   UNL     1       1.265   3.287  18.346  0.00  0.00    +0.000 A 
ATOM     21  C   UNL     1       0.639   2.719  19.480  0.00  0.00    +0.000 A 
ATOM     22  C   UNL     1       1.652   2.326  20.325  0.00  0.00    +0.000 A 
ATOM     23  O   UNL     1       2.858   2.618  19.784  0.00  0.00    +0.000 OA
ENDBRANCH  18  19
ENDBRANCH   8  18
TORSDOF 6
ENDMDL
