MODEL 1
REMARK VINA RESULT:      -7.7      0.000      0.000
REMARK  Name = 
REMARK  6 active torsions:
REMARK  status: ('A' for Active; 'I' for Inactive)
REMARK    1  A    between atoms: C_4  and  C_5
REMARK    2  A    between atoms: C_5  and  O_6
REMARK    3  A    between atoms: C_8  and  C_9
REMARK    4  A    between atoms: C_9  and  N_10
REMARK    5  A    between atoms: C_9  and  C_16
REMARK    6  A    between atoms: C_23  and  O_24
REMARK                            x       y       z     vdW  Elec       q    Type
REMARK                         _______ _______ _______ _____ _____    ______ ____
ROOT
ATOM      1  C   UNL     1       4.868   5.428  16.727  0.00  0.00    +0.000 C 
ENDROOT
BRANCH   1   7
ATOM      2  O   UNL     1       8.438   5.083  20.017  0.00  0.00    +0.000 OA
ATOM      3  C   UNL     1       7.877   5.701  19.122  0.00  0.00    +0.000 A 
ATOM      4  C   UNL     1       8.292   7.074  18.779  0.00  0.00    +0.000 A 
ATOM      5  C   UNL     1       7.562   7.768  17.896  0.00  0.00    +0.000 A 
ATOM      6  O   UNL     1       6.384   7.277  17.352  0.00  0.00    +0.000 OA
ATOM      7  C   UNL     1       6.070   5.930  17.508  0.00  0.00    +0.000 A 
ATOM      8  C   UNL     1       6.773   5.117  18.312  0.00  0.00    +0.000 A 
BRANCH   8   9
ATOM      9  O   UNL     1       6.501   3.769  18.412  0.00  0.00    +0.000 OA
ATOM     10  H   UNL     1       5.943   3.674  19.207  0.00  0.00    +0.000 HD
ENDBRANCH   8   9
BRANCH   5  11
ATOM     11  C   UNL     1       7.954   9.135  17.415  0.00  0.00    +0.000 C 
BRANCH  11  12
ATOM     12  O   UNL     1       8.656   9.823  18.446  0.00  0.00    +0.000 OA
ATOM     13  H   UNL     1       8.517   9.327  19.272  0.00  0.00    +0.000 HD
ENDBRANCH  11  12
ENDBRANCH   5  11
ENDBRANCH   1   7
BRANCH   1  14
ATOM     14  N   UNL     1       5.242   4.289  15.891  0.00  0.00    +0.000 N 
ATOM     15  C   UNL     1       6.045   4.517  14.825  0.00  0.00    +0.000 A 
ATOM     16  N   UNL     1       6.945   5.472  14.726  0.00  0.00    +0.000 NA
ATOM     17  C   UNL     1       7.577   5.404  13.497  0.00  0.00    +0.000 A 
ATOM     18  C   UNL     1       7.124   4.419  12.647  0.00  0.00    +0.000 A 
ATOM     19  S   UNL     1       5.899   3.514  13.424  0.00  0.00    +0.000 S 
ATOM     20  H   UNL     1       4.473   3.654  15.714  0.00  0.00    +0.000 HD
ENDBRANCH   1  14
BRANCH   1  21
ATOM     21  C   UNL     1       3.675   5.050  17.606  0.00  0.00    +0.000 A 
ATOM     22  C   UNL     1       2.965   3.870  17.323  0.00  0.00    +0.000 A 
ATOM     23  C   UNL     1       1.877   3.489  18.110  0.00  0.00    +0.000 A 
ATOM     24  C   UNL     1       1.498   4.283  19.181  0.00  0.00    +0.000 A 
ATOM     25  F   UNL     1       0.449   3.921  19.932  0.00  0.00    +0.000 F 
ATOM     26  C   UNL     1       2.183   5.454  19.486  0.00  0.00    +0.000 A 
ATOM     27  C   UNL     1       3.275   5.830  18.703  0.00  0.00    +0.000 A 
ENDBRANCH   1  21
TORSDOF 6
ENDMDL
MODEL 2
REMARK VINA RESULT:      -7.6      3.369      5.407
REMARK  Name = 
REMARK  6 active torsions:
REMARK  status: ('A' for Active; 'I' for Inactive)
REMARK    1  A    between atoms: C_4  and  C_5
REMARK    2  A    between atoms: C_5  and  O_6
REMARK    3  A    between atoms: C_8  and  C_9
REMARK    4  A    between atoms: C_9  and  N_10
REMARK    5  A    between atoms: C_9  and  C_16
REMARK    6  A    between atoms: C_23  and  O_24
REMARK                            x       y       z     vdW  Elec       q    Type
REMARK                         _______ _______ _______ _____ _____    ______ ____
ROOT
ATOM      1  C   UNL     1       3.520   5.827  18.489  0.00  0.00    +0.000 C 
ENDROOT
BRANCH   1   7
ATOM      2  O   UNL     1       0.135   2.332  18.565  0.00  0.00    +0.000 OA
ATOM      3  C   UNL     1       1.239   2.744  18.890  0.00  0.00    +0.000 A 
ATOM      4  C   UNL     1       2.080   1.986  19.835  0.00  0.00    +0.000 A 
ATOM      5  C   UNL     1       3.217   2.539  20.277  0.00  0.00    +0.000 A 
ATOM      6  O   UNL     1       3.596   3.832  19.946  0.00  0.00    +0.000 OA
ATOM      7  C   UNL     1       2.929   4.497  18.920  0.00  0.00    +0.000 A 
ATOM      8  C   UNL     1       1.818   4.006  18.349  0.00  0.00    +0.000 A 
BRANCH   8   9
ATOM      9  O   UNL     1       1.199   4.633  17.288  0.00  0.00    +0.000 OA
ATOM     10  H   UNL     1       1.462   4.125  16.497  0.00  0.00    +0.000 HD
ENDBRANCH   8   9
BRANCH   5  11
ATOM     11  C   UNL     1       4.183   1.810  21.166  0.00  0.00    +0.000 C 
BRANCH  11  12
ATOM     12  O   UNL     1       5.344   1.454  20.422  0.00  0.00    +0.000 OA
ATOM     13  H   UNL     1       5.074   0.791  19.763  0.00  0.00    +0.000 HD
ENDBRANCH  11  12
ENDBRANCH   5  11
ENDBRANCH   1   7
BRANCH   1  14
ATOM     14  N   UNL     1       3.773   5.832  17.050  0.00  0.00    +0.000 N 
ATOM     15  C   UNL     1       4.973   5.383  16.611  0.00  0.00    +0.000 A 
ATOM     16  N   UNL     1       5.724   4.481  17.204  0.00  0.00    +0.000 NA
ATOM     17  C   UNL     1       6.881   4.271  16.475  0.00  0.00    +0.000 A 
ATOM     18  C   UNL     1       7.024   5.049  15.347  0.00  0.00    +0.000 A 
ATOM     19  S   UNL     1       5.646   6.044  15.162  0.00  0.00    +0.000 S 
ATOM     20  H   UNL     1       3.439   6.669  16.588  0.00  0.00    +0.000 HD
ENDBRANCH   1  14
BRANCH   1  21
ATOM     21  C   UNL     1       2.661   7.035  18.864  0.00  0.00    +0.000 A 
ATOM     22  C   UNL     1       2.384   8.006  17.885  0.00  0.00    +0.000 A 
ATOM     23  C   UNL     1       1.595   9.116  18.189  0.00  0.00    +0.000 A 
ATOM     24  C   UNL     1       1.079   9.258  19.468  0.00  0.00    +0.000 A 
ATOM     25  F   UNL     1       0.327  10.327  19.761  0.00  0.00    +0.000 F 
ATOM     26  C   UNL     1       1.333   8.313  20.454  0.00  0.00    +0.000 A 
ATOM     27  C   UNL     1       2.116   7.199  20.148  0.00  0.00    +0.000 A 
ENDBRANCH   1  21
TORSDOF 6
ENDMDL
MODEL 3
REMARK VINA RESULT:      -7.5      3.428      5.155
REMARK  Name = 
REMARK  6 active torsions:
REMARK  status: ('A' for Active; 'I' for Inactive)
REMARK    1  A    between atoms: C_4  and  C_5
REMARK    2  A    between atoms: C_5  and  O_6
REMARK    3  A    between atoms: C_8  and  C_9
REMARK    4  A    between atoms: C_9  and  N_10
REMARK    5  A    between atoms: C_9  and  C_16
REMARK    6  A    between atoms: C_23  and  O_24
REMARK                            x       y       z     vdW  Elec       q    Type
REMARK                         _______ _______ _______ _____ _____    ______ ____
ROOT
ATOM      1  C   UNL     1       2.968   5.961  18.630  0.00  0.00    +0.000 C 
ENDROOT
BRANCH   1   7
ATOM      2  O   UNL     1       2.188  10.647  17.572  0.00  0.00    +0.000 OA
ATOM      3  C   UNL     1       1.988   9.674  18.286  0.00  0.00    +0.000 A 
ATOM      4  C   UNL     1       1.222   9.803  19.540  0.00  0.00    +0.000 A 
ATOM      5  C   UNL     1       1.148   8.750  20.364  0.00  0.00    +0.000 A 
ATOM      6  O   UNL     1       1.832   7.567  20.126  0.00  0.00    +0.000 OA
ATOM      7  C   UNL     1       2.404   7.349  18.876  0.00  0.00    +0.000 A 
ATOM      8  C   UNL     1       2.472   8.309  17.940  0.00  0.00    +0.000 A 
BRANCH   8   9
ATOM      9  O   UNL     1       2.978   8.071  16.679  0.00  0.00    +0.000 OA
ATOM     10  H   UNL     1       2.384   8.546  16.067  0.00  0.00    +0.000 HD
ENDBRANCH   8   9
BRANCH   5  11
ATOM     11  C   UNL     1       0.318   8.755  21.615  0.00  0.00    +0.000 C 
BRANCH  11  12
ATOM     12  O   UNL     1       0.864   9.682  22.549  0.00  0.00    +0.000 OA
ATOM     13  H   UNL     1       0.169   9.882  23.200  0.00  0.00    +0.000 HD
ENDBRANCH  11  12
ENDBRANCH   5  11
ENDBRANCH   1   7
BRANCH   1  14
ATOM     14  N   UNL     1       4.424   5.973  18.751  0.00  0.00    +0.000 N 
ATOM     15  C   UNL     1       5.156   5.565  17.687  0.00  0.00    +0.000 A 
ATOM     16  N   UNL     1       4.801   5.659  16.424  0.00  0.00    +0.000 NA
ATOM     17  C   UNL     1       5.794   5.141  15.611  0.00  0.00    +0.000 A 
ATOM     18  C   UNL     1       6.885   4.614  16.265  0.00  0.00    +0.000 A 
ATOM     19  S   UNL     1       6.691   4.815  17.952  0.00  0.00    +0.000 S 
ATOM     20  H   UNL     1       4.754   5.634  19.647  0.00  0.00    +0.000 HD
ENDBRANCH   1  14
BRANCH   1  21
ATOM     21  C   UNL     1       2.384   4.886  19.548  0.00  0.00    +0.000 A 
ATOM     22  C   UNL     1       2.910   4.736  20.843  0.00  0.00    +0.000 A 
ATOM     23  C   UNL     1       2.395   3.772  21.711  0.00  0.00    +0.000 A 
ATOM     24  C   UNL     1       1.354   2.959  21.290  0.00  0.00    +0.000 A 
ATOM     25  F   UNL     1       0.865   2.030  22.121  0.00  0.00    +0.000 F 
ATOM     26  C   UNL     1       0.813   3.087  20.016  0.00  0.00    +0.000 A 
ATOM     27  C   UNL     1       1.323   4.057  19.151  0.00  0.00    +0.000 A 
ENDBRANCH   1  21
TORSDOF 6
ENDMDL
MODEL 4
REMARK VINA RESULT:      -7.4      3.015      4.829
REMARK  Name = 
REMARK  6 active torsions:
REMARK  status: ('A' for Active; 'I' for Inactive)
REMARK    1  A    between atoms: C_4  and  C_5
REMARK    2  A    between atoms: C_5  and  O_6
REMARK    3  A    between atoms: C_8  and  C_9
REMARK    4  A    between atoms: C_9  and  N_10
REMARK    5  A    between atoms: C_9  and  C_16
REMARK    6  A    between atoms: C_23  and  O_24
REMARK                            x       y       z     vdW  Elec       q    Type
REMARK                         _______ _______ _______ _____ _____    ______ ____
ROOT
ATOM      1  C   UNL     1       3.915   6.090  18.638  0.00  0.00    +0.000 C 
ENDROOT
BRANCH   1   7
ATOM      2  O   UNL     1       8.471   4.438  18.197  0.00  0.00    +0.000 OA
ATOM      3  C   UNL     1       7.371   4.655  17.709  0.00  0.00    +0.000 A 
ATOM      4  C   UNL     1       7.133   4.458  16.267  0.00  0.00    +0.000 A 
ATOM      5  C   UNL     1       5.960   4.843  15.746  0.00  0.00    +0.000 A 
ATOM      6  O   UNL     1       4.990   5.496  16.494  0.00  0.00    +0.000 OA
ATOM      7  C   UNL     1       5.104   5.527  17.881  0.00  0.00    +0.000 A 
ATOM      8  C   UNL     1       6.205   5.102  18.521  0.00  0.00    +0.000 A 
BRANCH   8   9
ATOM      9  O   UNL     1       6.288   5.071  19.897  0.00  0.00    +0.000 OA
ATOM     10  H   UNL     1       7.058   5.627  20.123  0.00  0.00    +0.000 HD
ENDBRANCH   8   9
BRANCH   5  11
ATOM     11  C   UNL     1       5.590   4.601  14.311  0.00  0.00    +0.000 C 
BRANCH  11  12
ATOM     12  O   UNL     1       6.305   3.473  13.816  0.00  0.00    +0.000 OA
ATOM     13  H   UNL     1       6.879   3.787  13.095  0.00  0.00    +0.000 HD
ENDBRANCH  11  12
ENDBRANCH   5  11
ENDBRANCH   1   7
BRANCH   1  14
ATOM     14  N   UNL     1       3.361   7.244  17.934  0.00  0.00    +0.000 N 
ATOM     15  C   UNL     1       2.430   7.994  18.571  0.00  0.00    +0.000 A 
ATOM     16  N   UNL     1       2.332   8.161  19.872  0.00  0.00    +0.000 NA
ATOM     17  C   UNL     1       1.263   8.989  20.165  0.00  0.00    +0.000 A 
ATOM     18  C   UNL     1       0.524   9.415  19.083  0.00  0.00    +0.000 A 
ATOM     19  S   UNL     1       1.215   8.802  17.644  0.00  0.00    +0.000 S 
ATOM     20  H   UNL     1       3.161   7.059  16.958  0.00  0.00    +0.000 HD
ENDBRANCH   1  14
BRANCH   1  21
ATOM     21  C   UNL     1       2.809   5.067  18.898  0.00  0.00    +0.000 A 
ATOM     22  C   UNL     1       2.207   4.419  17.804  0.00  0.00    +0.000 A 
ATOM     23  C   UNL     1       1.201   3.472  18.005  0.00  0.00    +0.000 A 
ATOM     24  C   UNL     1       0.796   3.169  19.296  0.00  0.00    +0.000 A 
ATOM     25  F   UNL     1      -0.173   2.266  19.488  0.00  0.00    +0.000 F 
ATOM     26  C   UNL     1       1.376   3.791  20.396  0.00  0.00    +0.000 A 
ATOM     27  C   UNL     1       2.386   4.732  20.195  0.00  0.00    +0.000 A 
ENDBRANCH   1  21
TORSDOF 6
ENDMDL
MODEL 5
REMARK VINA RESULT:      -7.3      3.392      5.078
REMARK  Name = 
REMARK  6 active torsions:
REMARK  status: ('A' for Active; 'I' for Inactive)
REMARK    1  A    between atoms: C_4  and  C_5
REMARK    2  A    between atoms: C_5  and  O_6
REMARK    3  A    between atoms: C_8  and  C_9
REMARK    4  A    between atoms: C_9  and  N_10
REMARK    5  A    between atoms: C_9  and  C_16
REMARK    6  A    between atoms: C_23  and  O_24
REMARK                            x       y       z     vdW  Elec       q    Type
REMARK                         _______ _______ _______ _____ _____    ______ ____
ROOT
ATOM      1  C   UNL     1       3.282   5.776  18.436  0.00  0.00    +0.000 C 
ENDROOT
BRANCH   1   7
ATOM      2  O   UNL     1       6.612   3.933  15.404  0.00  0.00    +0.000 OA
ATOM      3  C   UNL     1       6.230   4.834  16.138  0.00  0.00    +0.000 A 
ATOM      4  C   UNL     1       7.108   5.978  16.446  0.00  0.00    +0.000 A 
ATOM      5  C   UNL     1       6.711   6.868  17.365  0.00  0.00    +0.000 A 
ATOM      6  O   UNL     1       5.543   6.714  18.099  0.00  0.00    +0.000 OA
ATOM      7  C   UNL     1       4.611   5.758  17.704  0.00  0.00    +0.000 A 
ATOM      8  C   UNL     1       4.870   4.856  16.743  0.00  0.00    +0.000 A 
BRANCH   8   9
ATOM      9  O   UNL     1       3.921   3.955  16.308  0.00  0.00    +0.000 OA
ATOM     10  H   UNL     1       4.399   3.112  16.192  0.00  0.00    +0.000 HD
ENDBRANCH   8   9
BRANCH   5  11
ATOM     11  C   UNL     1       7.490   8.112  17.681  0.00  0.00    +0.000 C 
BRANCH  11  12
ATOM     12  O   UNL     1       8.466   7.826  18.679  0.00  0.00    +0.000 OA
ATOM     13  H   UNL     1       9.157   8.508  18.612  0.00  0.00    +0.000 HD
ENDBRANCH  11  12
ENDBRANCH   5  11
ENDBRANCH   1   7
BRANCH   1  14
ATOM     14  N   UNL     1       3.420   5.175  19.761  0.00  0.00    +0.000 N 
ATOM     15  C   UNL     1       2.750   4.025  20.012  0.00  0.00    +0.000 A 
ATOM     16  N   UNL     1       2.429   3.108  19.125  0.00  0.00    +0.000 NA
ATOM     17  C   UNL     1       1.748   2.072  19.738  0.00  0.00    +0.000 A 
ATOM     18  C   UNL     1       1.517   2.225  21.087  0.00  0.00    +0.000 A 
ATOM     19  S   UNL     1       2.214   3.691  21.622  0.00  0.00    +0.000 S 
ATOM     20  H   UNL     1       3.394   5.853  20.513  0.00  0.00    +0.000 HD
ENDBRANCH   1  14
BRANCH   1  21
ATOM     21  C   UNL     1       2.668   7.171  18.566  0.00  0.00    +0.000 A 
ATOM     22  C   UNL     1       2.078   7.546  19.787  0.00  0.00    +0.000 A 
ATOM     23  C   UNL     1       1.517   8.814  19.945  0.00  0.00    +0.000 A 
ATOM     24  C   UNL     1       1.546   9.710  18.887  0.00  0.00    +0.000 A 
ATOM     25  F   UNL     1       1.001  10.925  19.037  0.00  0.00    +0.000 F 
ATOM     26  C   UNL     1       2.125   9.368  17.670  0.00  0.00    +0.000 A 
ATOM     27  C   UNL     1       2.692   8.102  17.516  0.00  0.00    +0.000 A 
ENDBRANCH   1  21
TORSDOF 6
ENDMDL
MODEL 6
REMARK VINA RESULT:      -7.1      3.825      5.583
REMARK  Name = 
REMARK  6 active torsions:
REMARK  status: ('A' for Active; 'I' for Inactive)
REMARK    1  A    between atoms: C_4  and  C_5
REMARK    2  A    between atoms: C_5  and  O_6
REMARK    3  A    between atoms: C_8  and  C_9
REMARK    4  A    between atoms: C_9  and  N_10
REMARK    5  A    between atoms: C_9  and  C_16
REMARK    6  A    between atoms: C_23  and  O_24
REMARK                            x       y       z     vdW  Elec       q    Type
REMARK                         _______ _______ _______ _____ _____    ______ ____
ROOT
ATOM      1  C   UNL     1       2.594   6.517  18.814  0.00  0.00    +0.000 C 
ENDROOT
BRANCH   1   7
ATOM      2  O   UNL     1       1.399  11.218  18.415  0.00  0.00    +0.000 OA
ATOM      3  C   UNL     1       1.340  10.157  19.022  0.00  0.00    +0.000 A 
ATOM      4  C   UNL     1       0.705  10.082  20.350  0.00  0.00    +0.000 A 
ATOM      5  C   UNL     1       0.789   8.939  21.044  0.00  0.00    +0.000 A 
ATOM      6  O   UNL     1       1.521   7.848  20.598  0.00  0.00    +0.000 OA
ATOM      7  C   UNL     1       1.969   7.820  19.280  0.00  0.00    +0.000 A 
ATOM      8  C   UNL     1       1.874   8.883  18.466  0.00  0.00    +0.000 A 
BRANCH   8   9
ATOM      9  O   UNL     1       2.257   8.830  17.143  0.00  0.00    +0.000 OA
ATOM     10  H   UNL     1       1.879   9.630  16.731  0.00  0.00    +0.000 HD
ENDBRANCH   8   9
BRANCH   5  11
ATOM     11  C   UNL     1       0.098   8.736  22.361  0.00  0.00    +0.000 C 
BRANCH  11  12
ATOM     12  O   UNL     1       0.576   9.690  23.305  0.00  0.00    +0.000 OA
ATOM     13  H   UNL     1       1.490   9.445  23.528  0.00  0.00    +0.000 HD
ENDBRANCH  11  12
ENDBRANCH   5  11
ENDBRANCH   1   7
BRANCH   1  14
ATOM     14  N   UNL     1       4.050   6.634  18.775  0.00  0.00    +0.000 N 
ATOM     15  C   UNL     1       4.733   5.828  17.928  0.00  0.00    +0.000 A 
ATOM     16  N   UNL     1       4.282   5.343  16.791  0.00  0.00    +0.000 NA
ATOM     17  C   UNL     1       5.250   4.557  16.193  0.00  0.00    +0.000 A 
ATOM     18  C   UNL     1       6.423   4.413  16.900  0.00  0.00    +0.000 A 
ATOM     19  S   UNL     1       6.336   5.328  18.342  0.00  0.00    +0.000 S 
ATOM     20  H   UNL     1       4.468   6.737  19.692  0.00  0.00    +0.000 HD
ENDBRANCH   1  14
BRANCH   1  21
ATOM     21  C   UNL     1       2.199   5.305  19.658  0.00  0.00    +0.000 A 
ATOM     22  C   UNL     1       1.311   4.358  19.118  0.00  0.00    +0.000 A 
ATOM     23  C   UNL     1       0.935   3.234  19.856  0.00  0.00    +0.000 A 
ATOM     24  C   UNL     1       1.447   3.053  21.132  0.00  0.00    +0.000 A 
ATOM     25  F   UNL     1       1.081   1.978  21.843  0.00  0.00    +0.000 F 
ATOM     26  C   UNL     1       2.329   3.971  21.690  0.00  0.00    +0.000 A 
ATOM     27  C   UNL     1       2.709   5.091  20.949  0.00  0.00    +0.000 A 
ENDBRANCH   1  21
TORSDOF 6
ENDMDL
MODEL 7
REMARK VINA RESULT:      -7.1      3.225      4.604
REMARK  Name = 
REMARK  6 active torsions:
REMARK  status: ('A' for Active; 'I' for Inactive)
REMARK    1  A    between atoms: C_4  and  C_5
REMARK    2  A    between atoms: C_5  and  O_6
REMARK    3  A    between atoms: C_8  and  C_9
REMARK    4  A    between atoms: C_9  and  N_10
REMARK    5  A    between atoms: C_9  and  C_16
REMARK    6  A    between atoms: C_23  and  O_24
REMARK                            x       y       z     vdW  Elec       q    Type
REMARK                         _______ _______ _______ _____ _____    ______ ____
ROOT
ATOM      1  C   UNL     1       3.570   5.680  18.258  0.00  0.00    +0.000 C 
ENDROOT
BRANCH   1   7
ATOM      2  O   UNL     1       7.973   4.135  16.878  0.00  0.00    +0.000 OA
ATOM      3  C   UNL     1       7.202   5.051  17.127  0.00  0.00    +0.000 A 
ATOM      4  C   UNL     1       7.673   6.448  17.156  0.00  0.00    +0.000 A 
ATOM      5  C   UNL     1       6.834   7.405  17.575  0.00  0.00    +0.000 A 
ATOM      6  O   UNL     1       5.565   7.125  18.060  0.00  0.00    +0.000 OA
ATOM      7  C   UNL     1       5.027   5.854  17.872  0.00  0.00    +0.000 A 
ATOM      8  C   UNL     1       5.753   4.831  17.391  0.00  0.00    +0.000 A 
BRANCH   8   9
ATOM      9  O   UNL     1       5.200   3.593  17.143  0.00  0.00    +0.000 OA
ATOM     10  H   UNL     1       5.869   3.110  16.621  0.00  0.00    +0.000 HD
ENDBRANCH   8   9
BRANCH   5  11
ATOM     11  C   UNL     1       7.191   8.863  17.553  0.00  0.00    +0.000 C 
BRANCH  11  12
ATOM     12  O   UNL     1       8.426   9.064  18.233  0.00  0.00    +0.000 OA
ATOM     13  H   UNL     1       8.701   8.204  18.596  0.00  0.00    +0.000 HD
ENDBRANCH  11  12
ENDBRANCH   5  11
ENDBRANCH   1   7
BRANCH   1  14
ATOM     14  N   UNL     1       3.450   4.796  19.416  0.00  0.00    +0.000 N 
ATOM     15  C   UNL     1       2.545   3.791  19.360  0.00  0.00    +0.000 A 
ATOM     16  N   UNL     1       2.141   3.174  18.270  0.00  0.00    +0.000 NA
ATOM     17  C   UNL     1       1.209   2.203  18.591  0.00  0.00    +0.000 A 
ATOM     18  C   UNL     1       0.877   2.113  19.925  0.00  0.00    +0.000 A 
ATOM     19  S   UNL     1       1.792   3.247  20.819  0.00  0.00    +0.000 S 
ATOM     20  H   UNL     1       3.483   5.289  20.300  0.00  0.00    +0.000 HD
ENDBRANCH   1  14
BRANCH   1  21
ATOM     21  C   UNL     1       2.844   6.996  18.539  0.00  0.00    +0.000 A 
ATOM     22  C   UNL     1       2.726   7.945  17.507  0.00  0.00    +0.000 A 
ATOM     23  C   UNL     1       2.062   9.152  17.725  0.00  0.00    +0.000 A 
ATOM     24  C   UNL     1       1.511   9.415  18.970  0.00  0.00    +0.000 A 
ATOM     25  F   UNL     1       0.880  10.577  19.181  0.00  0.00    +0.000 F 
ATOM     26  C   UNL     1       1.610   8.494  20.008  0.00  0.00    +0.000 A 
ATOM     27  C   UNL     1       2.268   7.284  19.787  0.00  0.00    +0.000 A 
ENDBRANCH   1  21
TORSDOF 6
ENDMDL
MODEL 8
REMARK VINA RESULT:      -7.1      2.986      4.990
REMARK  Name = 
REMARK  6 active torsions:
REMARK  status: ('A' for Active; 'I' for Inactive)
REMARK    1  A    between atoms: C_4  and  C_5
REMARK    2  A    between atoms: C_5  and  O_6
REMARK    3  A    between atoms: C_8  and  C_9
REMARK    4  A    between atoms: C_9  and  N_10
REMARK    5  A    between atoms: C_9  and  C_16
REMARK    6  A    between atoms: C_23  and  O_24
REMARK                            x       y       z     vdW  Elec       q    Type
REMARK                         _______ _______ _______ _____ _____    ______ ____
ROOT
ATOM      1  C   UNL     1       4.070   5.817  18.210  0.00  0.00    +0.000 C 
ENDROOT
BRANCH   1   7
ATOM      2  O   UNL     1       5.156   1.763  20.672  0.00  0.00    +0.000 OA
ATOM      3  C   UNL     1       4.324   2.515  20.183  0.00  0.00    +0.000 A 
ATOM      4  C   UNL     1       2.897   2.146  20.154  0.00  0.00    +0.000 A 
ATOM      5  C   UNL     1       2.040   2.926  19.483  0.00  0.00    +0.000 A 
ATOM      6  O   UNL     1       2.454   4.026  18.745  0.00  0.00    +0.000 OA
ATOM      7  C   UNL     1       3.751   4.505  18.903  0.00  0.00    +0.000 A 
ATOM      8  C   UNL     1       4.679   3.845  19.614  0.00  0.00    +0.000 A 
BRANCH   8   9
ATOM      9  O   UNL     1       5.943   4.355  19.825  0.00  0.00    +0.000 OA
ATOM     10  H   UNL     1       6.518   3.578  19.958  0.00  0.00    +0.000 HD
ENDBRANCH   8   9
BRANCH   5  11
ATOM     11  C   UNL     1       0.559   2.684  19.472  0.00  0.00    +0.000 C 
BRANCH  11  12
ATOM     12  O   UNL     1       0.217   1.856  18.366  0.00  0.00    +0.000 OA
ATOM     13  H   UNL     1       0.267   0.932  18.669  0.00  0.00    +0.000 HD
ENDBRANCH  11  12
ENDBRANCH   5  11
ENDBRANCH   1   7
BRANCH   1  14
ATOM     14  N   UNL     1       4.100   5.635  16.760  0.00  0.00    +0.000 N 
ATOM     15  C   UNL     1       5.261   5.233  16.192  0.00  0.00    +0.000 A 
ATOM     16  N   UNL     1       6.186   4.494  16.765  0.00  0.00    +0.000 NA
ATOM     17  C   UNL     1       7.235   4.281  15.888  0.00  0.00    +0.000 A 
ATOM     18  C   UNL     1       7.121   4.896  14.661  0.00  0.00    +0.000 A 
ATOM     19  S   UNL     1       5.631   5.731  14.578  0.00  0.00    +0.000 S 
ATOM     20  H   UNL     1       3.611   6.365  16.255  0.00  0.00    +0.000 HD
ENDBRANCH   1  14
BRANCH   1  21
ATOM     21  C   UNL     1       3.109   6.953  18.565  0.00  0.00    +0.000 A 
ATOM     22  C   UNL     1       2.848   7.951  17.609  0.00  0.00    +0.000 A 
ATOM     23  C   UNL     1       1.970   8.996  17.896  0.00  0.00    +0.000 A 
ATOM     24  C   UNL     1       1.348   9.047  19.134  0.00  0.00    +0.000 A 
ATOM     25  F   UNL     1       0.510  10.054  19.411  0.00  0.00    +0.000 F 
ATOM     26  C   UNL     1       1.584   8.073  20.097  0.00  0.00    +0.000 A 
ATOM     27  C   UNL     1       2.458   7.023  19.807  0.00  0.00    +0.000 A 
ENDBRANCH   1  21
TORSDOF 6
ENDMDL
MODEL 9
REMARK VINA RESULT:      -6.9      3.155      5.067
REMARK  Name = 
REMARK  6 active torsions:
REMARK  status: ('A' for Active; 'I' for Inactive)
REMARK    1  A    between atoms: C_4  and  C_5
REMARK    2  A    between atoms: C_5  and  O_6
REMARK    3  A    between atoms: C_8  and  C_9
REMARK    4  A    between atoms: C_9  and  N_10
REMARK    5  A    between atoms: C_9  and  C_16
REMARK    6  A    between atoms: C_23  and  O_24
REMARK                            x       y       z     vdW  Elec       q    Type
REMARK                         _______ _______ _______ _____ _____    ______ ____
ROOT
ATOM      1  C   UNL     1       3.451   5.342  17.987  0.00  0.00    +0.000 C 
ENDROOT
BRANCH   1   7
ATOM      2  O   UNL     1       8.189   6.327  18.494  0.00  0.00    +0.000 OA
ATOM      3  C   UNL     1       7.259   5.918  17.813  0.00  0.00    +0.000 A 
ATOM      4  C   UNL     1       7.454   5.584  16.390  0.00  0.00    +0.000 A 
ATOM      5  C   UNL     1       6.384   5.279  15.644  0.00  0.00    +0.000 A 
ATOM      6  O   UNL     1       5.089   5.343  16.137  0.00  0.00    +0.000 OA
ATOM      7  C   UNL     1       4.885   5.469  17.508  0.00  0.00    +0.000 A 
ATOM      8  C   UNL     1       5.892   5.706  18.365  0.00  0.00    +0.000 A 
BRANCH   8   9
ATOM      9  O   UNL     1       5.697   5.763  19.729  0.00  0.00    +0.000 OA
ATOM     10  H   UNL     1       6.321   6.439  20.052  0.00  0.00    +0.000 HD
ENDBRANCH   8   9
BRANCH   5  11
ATOM     11  C   UNL     1       6.491   4.838  14.213  0.00  0.00    +0.000 C 
BRANCH  11  12
ATOM     12  O   UNL     1       6.316   3.427  14.133  0.00  0.00    +0.000 OA
ATOM     13  H   UNL     1       6.221   3.199  13.192  0.00  0.00    +0.000 HD
ENDBRANCH  11  12
ENDBRANCH   5  11
ENDBRANCH   1   7
BRANCH   1  14
ATOM     14  N   UNL     1       3.366   4.405  19.106  0.00  0.00    +0.000 N 
ATOM     15  C   UNL     1       2.324   3.541  19.137  0.00  0.00    +0.000 A 
ATOM     16  N   UNL     1       1.686   3.063  18.091  0.00  0.00    +0.000 NA
ATOM     17  C   UNL     1       0.676   2.210  18.500  0.00  0.00    +0.000 A 
ATOM     18  C   UNL     1       0.524   2.075  19.862  0.00  0.00    +0.000 A 
ATOM     19  S   UNL     1       1.712   3.007  20.663  0.00  0.00    +0.000 S 
ATOM     20  H   UNL     1       3.594   4.827  19.998  0.00  0.00    +0.000 HD
ENDBRANCH   1  14
BRANCH   1  21
ATOM     21  C   UNL     1       2.811   6.674  18.382  0.00  0.00    +0.000 A 
ATOM     22  C   UNL     1       2.310   6.830  19.687  0.00  0.00    +0.000 A 
ATOM     23  C   UNL     1       1.728   8.034  20.086  0.00  0.00    +0.000 A 
ATOM     24  C   UNL     1       1.649   9.086  19.185  0.00  0.00    +0.000 A 
ATOM     25  F   UNL     1       1.085  10.239  19.566  0.00  0.00    +0.000 F 
ATOM     26  C   UNL     1       2.139   8.961  17.890  0.00  0.00    +0.000 A 
ATOM     27  C   UNL     1       2.727   7.759  17.495  0.00  0.00    +0.000 A 
ENDBRANCH   1  21
TORSDOF 6
ENDMDL
