MODEL 1
REMARK VINA RESULT:      -8.4      0.000      0.000
REMARK  Name = 
REMARK  7 active torsions:
REMARK  status: ('A' for Active; 'I' for Inactive)
REMARK    1  A    between atoms: C_1  and  C_2
REMARK    2  A    between atoms: C_2  and  C_3
REMARK    3  A    between atoms: C_3  and  C_4
REMARK    4  A    between atoms: C_3  and  N_5
REMARK    5  A    between atoms: C_6  and  C_8
REMARK    6  A    between atoms: C_11  and  C_12
REMARK    7  A    between atoms: C_12  and  C_14
REMARK                            x       y       z     vdW  Elec       q    Type
REMARK                         _______ _______ _______ _____ _____    ______ ____
ROOT
ATOM      1  C   UNL     1       5.574   5.101  15.724  0.00  0.00    +0.000 A 
ATOM      2  C   UNL     1       4.935   4.061  16.410  0.00  0.00    +0.000 A 
ATOM      3  C   UNL     1       4.007   4.350  17.412  0.00  0.00    +0.000 A 
ATOM      4  C   UNL     1       3.729   5.680  17.753  0.00  0.00    +0.000 A 
ATOM      5  C   UNL     1       4.398   6.719  17.091  0.00  0.00    +0.000 A 
ATOM      6  C   UNL     1       5.316   6.431  16.077  0.00  0.00    +0.000 A 
ENDROOT
BRANCH   1   8
ATOM      7  N   UNL     1       6.075   4.000  13.617  0.00  0.00    +0.000 N 
ATOM      8  C   UNL     1       6.540   4.821  14.628  0.00  0.00    +0.000 C 
ATOM      9  O   UNL     1       7.652   5.324  14.646  0.00  0.00    +0.000 OA
ATOM     10  H   UNL     1       5.101   3.739  13.596  0.00  0.00    +0.000 HD
BRANCH   7  11
ATOM     11  C   UNL     1       6.897   3.670  12.462  0.00  0.00    +0.000 C 
ATOM     12  C   UNL     1       7.245   4.933  11.670  0.00  0.00    +0.000 C 
BRANCH  11  14
ATOM     13  C   UNL     1       4.693   2.911  11.416  0.00  0.00    +0.000 C 
ATOM     14  C   UNL     1       6.186   2.649  11.560  0.00  0.00    +0.000 C 
ENDBRANCH  11  14
ENDBRANCH   7  11
ENDBRANCH   1   8
BRANCH   4  15
ATOM     15  C   UNL     1       2.764   5.936  18.856  0.00  0.00    +0.000 C 
ATOM     16  O   UNL     1       2.403   7.091  19.079  0.00  0.00    +0.000 OA
BRANCH  15  17
ATOM     17  C   UNL     1       2.217   4.834  19.687  0.00  0.00    +0.000 A 
ATOM     18  C   UNL     1       1.265   3.982  19.118  0.00  0.00    +0.000 A 
ATOM     19  C   UNL     1       0.738   2.925  19.867  0.00  0.00    +0.000 A 
ATOM     20  C   UNL     1       1.162   2.725  21.179  0.00  0.00    +0.000 A 
ATOM     21  C   UNL     1       2.097   3.583  21.756  0.00  0.00    +0.000 A 
ATOM     22  C   UNL     1       2.612   4.649  21.017  0.00  0.00    +0.000 A 
ENDBRANCH  15  17
ENDBRANCH   4  15
TORSDOF 5
ENDMDL
MODEL 2
REMARK VINA RESULT:      -8.3      0.087      1.058
REMARK  Name = 
REMARK  7 active torsions:
REMARK  status: ('A' for Active; 'I' for Inactive)
REMARK    1  A    between atoms: C_1  and  C_2
REMARK    2  A    between atoms: C_2  and  C_3
REMARK    3  A    between atoms: C_3  and  C_4
REMARK    4  A    between atoms: C_3  and  N_5
REMARK    5  A    between atoms: C_6  and  C_8
REMARK    6  A    between atoms: C_11  and  C_12
REMARK    7  A    between atoms: C_12  and  C_14
REMARK                            x       y       z     vdW  Elec       q    Type
REMARK                         _______ _______ _______ _____ _____    ______ ____
ROOT
ATOM      1  C   UNL     1       5.583   5.095  15.682  0.00  0.00    +0.000 A 
ATOM      2  C   UNL     1       4.904   4.051  16.321  0.00  0.00    +0.000 A 
ATOM      3  C   UNL     1       3.966   4.332  17.316  0.00  0.00    +0.000 A 
ATOM      4  C   UNL     1       3.718   5.656  17.697  0.00  0.00    +0.000 A 
ATOM      5  C   UNL     1       4.428   6.698  17.084  0.00  0.00    +0.000 A 
ATOM      6  C   UNL     1       5.356   6.418  16.076  0.00  0.00    +0.000 A 
ENDROOT
BRANCH   1   8
ATOM      7  N   UNL     1       6.108   4.012  13.571  0.00  0.00    +0.000 N 
ATOM      8  C   UNL     1       6.561   4.825  14.595  0.00  0.00    +0.000 C 
ATOM      9  O   UNL     1       7.673   5.329  14.628  0.00  0.00    +0.000 OA
ATOM     10  H   UNL     1       5.134   3.751  13.538  0.00  0.00    +0.000 HD
BRANCH   7  11
ATOM     11  C   UNL     1       6.942   3.693  12.422  0.00  0.00    +0.000 C 
ATOM     12  C   UNL     1       7.275   4.959  11.629  0.00  0.00    +0.000 C 
BRANCH  11  14
ATOM     13  C   UNL     1       4.737   2.801  11.490  0.00  0.00    +0.000 C 
ATOM     14  C   UNL     1       6.253   2.659  11.518  0.00  0.00    +0.000 C 
ENDBRANCH  11  14
ENDBRANCH   7  11
ENDBRANCH   1   8
BRANCH   4  15
ATOM     15  C   UNL     1       2.741   5.902  18.792  0.00  0.00    +0.000 C 
ATOM     16  O   UNL     1       2.361   7.052  19.008  0.00  0.00    +0.000 OA
BRANCH  15  17
ATOM     17  C   UNL     1       2.203   4.795  19.622  0.00  0.00    +0.000 A 
ATOM     18  C   UNL     1       2.725   4.612  20.907  0.00  0.00    +0.000 A 
ATOM     19  C   UNL     1       2.233   3.587  21.720  0.00  0.00    +0.000 A 
ATOM     20  C   UNL     1       1.224   2.749  21.249  0.00  0.00    +0.000 A 
ATOM     21  C   UNL     1       0.714   2.916  19.962  0.00  0.00    +0.000 A 
ATOM     22  C   UNL     1       1.215   3.927  19.140  0.00  0.00    +0.000 A 
ENDBRANCH  15  17
ENDBRANCH   4  15
TORSDOF 5
ENDMDL
MODEL 3
REMARK VINA RESULT:      -8.2      0.124      1.062
REMARK  Name = 
REMARK  7 active torsions:
REMARK  status: ('A' for Active; 'I' for Inactive)
REMARK    1  A    between atoms: C_1  and  C_2
REMARK    2  A    between atoms: C_2  and  C_3
REMARK    3  A    between atoms: C_3  and  C_4
REMARK    4  A    between atoms: C_3  and  N_5
REMARK    5  A    between atoms: C_6  and  C_8
REMARK    6  A    between atoms: C_11  and  C_12
REMARK    7  A    between atoms: C_12  and  C_14
REMARK                            x       y       z     vdW  Elec       q    Type
REMARK                         _______ _______ _______ _____ _____    ______ ____
ROOT
ATOM      1  C   UNL     1       5.575   5.093  15.678  0.00  0.00    +0.000 A 
ATOM      2  C   UNL     1       5.352   6.398  16.133  0.00  0.00    +0.000 A 
ATOM      3  C   UNL     1       4.486   6.629  17.202  0.00  0.00    +0.000 A 
ATOM      4  C   UNL     1       3.815   5.560  17.809  0.00  0.00    +0.000 A 
ATOM      5  C   UNL     1       4.009   4.258  17.327  0.00  0.00    +0.000 A 
ATOM      6  C   UNL     1       4.889   4.024  16.267  0.00  0.00    +0.000 A 
ENDROOT
BRANCH   1   8
ATOM      7  N   UNL     1       6.081   3.906  13.619  0.00  0.00    +0.000 N 
ATOM      8  C   UNL     1       6.520   4.817  14.564  0.00  0.00    +0.000 C 
ATOM      9  O   UNL     1       7.592   5.399  14.508  0.00  0.00    +0.000 OA
ATOM     10  H   UNL     1       5.128   3.576  13.652  0.00  0.00    +0.000 HD
BRANCH   7  11
ATOM     11  C   UNL     1       6.884   3.568  12.453  0.00  0.00    +0.000 C 
ATOM     12  C   UNL     1       7.321   4.834  11.713  0.00  0.00    +0.000 C 
BRANCH  11  14
ATOM     13  C   UNL     1       4.628   2.975  11.409  0.00  0.00    +0.000 C 
ATOM     14  C   UNL     1       6.109   2.634  11.510  0.00  0.00    +0.000 C 
ENDBRANCH  11  14
ENDBRANCH   7  11
ENDBRANCH   1   8
BRANCH   4  15
ATOM     15  C   UNL     1       2.869   5.861  18.918  0.00  0.00    +0.000 C 
ATOM     16  O   UNL     1       2.556   7.030  19.136  0.00  0.00    +0.000 OA
BRANCH  15  17
ATOM     17  C   UNL     1       2.284   4.786  19.758  0.00  0.00    +0.000 A 
ATOM     18  C   UNL     1       1.253   4.009  19.221  0.00  0.00    +0.000 A 
ATOM     19  C   UNL     1       0.687   2.980  19.980  0.00  0.00    +0.000 A 
ATOM     20  C   UNL     1       1.152   2.731  21.270  0.00  0.00    +0.000 A 
ATOM     21  C   UNL     1       2.168   3.515  21.815  0.00  0.00    +0.000 A 
ATOM     22  C   UNL     1       2.722   4.555  21.068  0.00  0.00    +0.000 A 
ENDBRANCH  15  17
ENDBRANCH   4  15
TORSDOF 5
ENDMDL
MODEL 4
REMARK VINA RESULT:      -8.2      0.182      1.496
REMARK  Name = 
REMARK  7 active torsions:
REMARK  status: ('A' for Active; 'I' for Inactive)
REMARK    1  A    between atoms: C_1  and  C_2
REMARK    2  A    between atoms: C_2  and  C_3
REMARK    3  A    between atoms: C_3  and  C_4
REMARK    4  A    between atoms: C_3  and  N_5
REMARK    5  A    between atoms: C_6  and  C_8
REMARK    6  A    between atoms: C_11  and  C_12
REMARK    7  A    between atoms: C_12  and  C_14
REMARK                            x       y       z     vdW  Elec       q    Type
REMARK                         _______ _______ _______ _____ _____    ______ ____
ROOT
ATOM      1  C   UNL     1       5.668   5.092  15.727  0.00  0.00    +0.000 A 
ATOM      2  C   UNL     1       5.164   6.378  15.958  0.00  0.00    +0.000 A 
ATOM      3  C   UNL     1       4.291   6.606  17.022  0.00  0.00    +0.000 A 
ATOM      4  C   UNL     1       3.895   5.548  17.849  0.00  0.00    +0.000 A 
ATOM      5  C   UNL     1       4.369   4.254  17.592  0.00  0.00    +0.000 A 
ATOM      6  C   UNL     1       5.256   4.027  16.536  0.00  0.00    +0.000 A 
ENDROOT
BRANCH   1   8
ATOM      7  N   UNL     1       6.157   4.020  13.602  0.00  0.00    +0.000 N 
ATOM      8  C   UNL     1       6.627   4.829  14.621  0.00  0.00    +0.000 C 
ATOM      9  O   UNL     1       7.738   5.336  14.636  0.00  0.00    +0.000 OA
ATOM     10  H   UNL     1       5.183   3.756  13.585  0.00  0.00    +0.000 HD
BRANCH   7  11
ATOM     11  C   UNL     1       6.971   3.708  12.436  0.00  0.00    +0.000 C 
ATOM     12  C   UNL     1       7.305   4.982  11.656  0.00  0.00    +0.000 C 
BRANCH  11  14
ATOM     13  C   UNL     1       4.749   2.889  11.477  0.00  0.00    +0.000 C 
ATOM     14  C   UNL     1       6.258   2.693  11.529  0.00  0.00    +0.000 C 
ENDBRANCH  11  14
ENDBRANCH   7  11
ENDBRANCH   1   8
BRANCH   4  15
ATOM     15  C   UNL     1       2.929   5.834  18.945  0.00  0.00    +0.000 C 
ATOM     16  O   UNL     1       2.644   7.002  19.201  0.00  0.00    +0.000 OA
BRANCH  15  17
ATOM     17  C   UNL     1       2.292   4.745  19.726  0.00  0.00    +0.000 A 
ATOM     18  C   UNL     1       2.742   4.510  21.029  0.00  0.00    +0.000 A 
ATOM     19  C   UNL     1       2.154   3.500  21.799  0.00  0.00    +0.000 A 
ATOM     20  C   UNL     1       1.123   2.731  21.265  0.00  0.00    +0.000 A 
ATOM     21  C   UNL     1       0.684   2.950  19.960  0.00  0.00    +0.000 A 
ATOM     22  C   UNL     1       1.280   3.944  19.183  0.00  0.00    +0.000 A 
ENDBRANCH  15  17
ENDBRANCH   4  15
TORSDOF 5
ENDMDL
MODEL 5
REMARK VINA RESULT:      -8.0      1.891      2.972
REMARK  Name = 
REMARK  7 active torsions:
REMARK  status: ('A' for Active; 'I' for Inactive)
REMARK    1  A    between atoms: C_1  and  C_2
REMARK    2  A    between atoms: C_2  and  C_3
REMARK    3  A    between atoms: C_3  and  C_4
REMARK    4  A    between atoms: C_3  and  N_5
REMARK    5  A    between atoms: C_6  and  C_8
REMARK    6  A    between atoms: C_11  and  C_12
REMARK    7  A    between atoms: C_12  and  C_14
REMARK                            x       y       z     vdW  Elec       q    Type
REMARK                         _______ _______ _______ _____ _____    ______ ____
ROOT
ATOM      1  C   UNL     1       5.558   4.973  16.012  0.00  0.00    +0.000 A 
ATOM      2  C   UNL     1       4.570   4.117  16.514  0.00  0.00    +0.000 A 
ATOM      3  C   UNL     1       3.722   4.550  17.534  0.00  0.00    +0.000 A 
ATOM      4  C   UNL     1       3.870   5.832  18.078  0.00  0.00    +0.000 A 
ATOM      5  C   UNL     1       4.886   6.673  17.602  0.00  0.00    +0.000 A 
ATOM      6  C   UNL     1       5.726   6.246  16.569  0.00  0.00    +0.000 A 
ENDROOT
BRANCH   1   8
ATOM      7  N   UNL     1       5.827   3.930  13.834  0.00  0.00    +0.000 N 
ATOM      8  C   UNL     1       6.452   4.549  14.902  0.00  0.00    +0.000 C 
ATOM      9  O   UNL     1       7.651   4.775  14.956  0.00  0.00    +0.000 OA
ATOM     10  H   UNL     1       4.819   3.906  13.794  0.00  0.00    +0.000 HD
BRANCH   7  11
ATOM     11  C   UNL     1       6.569   3.496  12.660  0.00  0.00    +0.000 C 
ATOM     12  C   UNL     1       7.145   4.699  11.911  0.00  0.00    +0.000 C 
BRANCH  11  14
ATOM     13  C   UNL     1       4.324   3.300  11.457  0.00  0.00    +0.000 C 
ATOM     14  C   UNL     1       5.678   2.659  11.729  0.00  0.00    +0.000 C 
ENDBRANCH  11  14
ENDBRANCH   7  11
ENDBRANCH   1   8
BRANCH   4  15
ATOM     15  C   UNL     1       2.970   6.232  19.193  0.00  0.00    +0.000 C 
ATOM     16  O   UNL     1       2.856   5.488  20.166  0.00  0.00    +0.000 OA
BRANCH  15  17
ATOM     17  C   UNL     1       2.217   7.511  19.168  0.00  0.00    +0.000 A 
ATOM     18  C   UNL     1       2.086   8.182  17.948  0.00  0.00    +0.000 A 
ATOM     19  C   UNL     1       1.372   9.383  17.885  0.00  0.00    +0.000 A 
ATOM     20  C   UNL     1       0.793   9.908  19.038  0.00  0.00    +0.000 A 
ATOM     21  C   UNL     1       0.936   9.252  20.260  0.00  0.00    +0.000 A 
ATOM     22  C   UNL     1       1.664   8.062  20.330  0.00  0.00    +0.000 A 
ENDBRANCH  15  17
ENDBRANCH   4  15
TORSDOF 5
ENDMDL
MODEL 6
REMARK VINA RESULT:      -8.0      1.875      3.258
REMARK  Name = 
REMARK  7 active torsions:
REMARK  status: ('A' for Active; 'I' for Inactive)
REMARK    1  A    between atoms: C_1  and  C_2
REMARK    2  A    between atoms: C_2  and  C_3
REMARK    3  A    between atoms: C_3  and  C_4
REMARK    4  A    between atoms: C_3  and  N_5
REMARK    5  A    between atoms: C_6  and  C_8
REMARK    6  A    between atoms: C_11  and  C_12
REMARK    7  A    between atoms: C_12  and  C_14
REMARK                            x       y       z     vdW  Elec       q    Type
REMARK                         _______ _______ _______ _____ _____    ______ ____
ROOT
ATOM      1  C   UNL     1       5.552   5.135  15.897  0.00  0.00    +0.000 A 
ATOM      2  C   UNL     1       5.564   6.437  16.411  0.00  0.00    +0.000 A 
ATOM      3  C   UNL     1       4.734   6.774  17.481  0.00  0.00    +0.000 A 
ATOM      4  C   UNL     1       3.868   5.820  18.030  0.00  0.00    +0.000 A 
ATOM      5  C   UNL     1       3.829   4.528  17.488  0.00  0.00    +0.000 A 
ATOM      6  C   UNL     1       4.672   4.185  16.427  0.00  0.00    +0.000 A 
ENDROOT
BRANCH   1   8
ATOM      7  N   UNL     1       5.875   3.960  13.795  0.00  0.00    +0.000 N 
ATOM      8  C   UNL     1       6.452   4.740  14.781  0.00  0.00    +0.000 C 
ATOM      9  O   UNL     1       7.612   5.125  14.760  0.00  0.00    +0.000 OA
ATOM     10  H   UNL     1       4.879   3.803  13.805  0.00  0.00    +0.000 HD
BRANCH   7  11
ATOM     11  C   UNL     1       6.625   3.532  12.623  0.00  0.00    +0.000 C 
ATOM     12  C   UNL     1       7.150   4.741  11.847  0.00  0.00    +0.000 C 
BRANCH  11  14
ATOM     13  C   UNL     1       4.373   3.226  11.454  0.00  0.00    +0.000 C 
ATOM     14  C   UNL     1       5.757   2.646  11.715  0.00  0.00    +0.000 C 
ENDBRANCH  11  14
ENDBRANCH   7  11
ENDBRANCH   1   8
BRANCH   4  15
ATOM     15  C   UNL     1       2.972   6.240  19.142  0.00  0.00    +0.000 C 
ATOM     16  O   UNL     1       2.847   5.503  20.119  0.00  0.00    +0.000 OA
BRANCH  15  17
ATOM     17  C   UNL     1       2.237   7.529  19.108  0.00  0.00    +0.000 A 
ATOM     18  C   UNL     1       1.681   8.009  20.298  0.00  0.00    +0.000 A 
ATOM     19  C   UNL     1       0.993   9.227  20.305  0.00  0.00    +0.000 A 
ATOM     20  C   UNL     1       0.863   9.958  19.126  0.00  0.00    +0.000 A 
ATOM     21  C   UNL     1       1.400   9.474  17.934  0.00  0.00    +0.000 A 
ATOM     22  C   UNL     1       2.072   8.250  17.919  0.00  0.00    +0.000 A 
ENDBRANCH  15  17
ENDBRANCH   4  15
TORSDOF 5
ENDMDL
MODEL 7
REMARK VINA RESULT:      -8.0      1.747      2.320
REMARK  Name = 
REMARK  7 active torsions:
REMARK  status: ('A' for Active; 'I' for Inactive)
REMARK    1  A    between atoms: C_1  and  C_2
REMARK    2  A    between atoms: C_2  and  C_3
REMARK    3  A    between atoms: C_3  and  C_4
REMARK    4  A    between atoms: C_3  and  N_5
REMARK    5  A    between atoms: C_6  and  C_8
REMARK    6  A    between atoms: C_11  and  C_12
REMARK    7  A    between atoms: C_12  and  C_14
REMARK                            x       y       z     vdW  Elec       q    Type
REMARK                         _______ _______ _______ _____ _____    ______ ____
ROOT
ATOM      1  C   UNL     1       5.941   4.212  15.020  0.00  0.00    +0.000 A 
ATOM      2  C   UNL     1       4.662   4.138  15.586  0.00  0.00    +0.000 A 
ATOM      3  C   UNL     1       4.489   4.346  16.955  0.00  0.00    +0.000 A 
ATOM      4  C   UNL     1       5.595   4.604  17.774  0.00  0.00    +0.000 A 
ATOM      5  C   UNL     1       6.879   4.639  17.212  0.00  0.00    +0.000 A 
ATOM      6  C   UNL     1       7.052   4.447  15.839  0.00  0.00    +0.000 A 
ENDROOT
BRANCH   1   8
ATOM      7  N   UNL     1       5.185   3.279  12.908  0.00  0.00    +0.000 N 
ATOM      8  C   UNL     1       6.147   4.030  13.559  0.00  0.00    +0.000 C 
ATOM      9  O   UNL     1       7.104   4.548  13.003  0.00  0.00    +0.000 OA
ATOM     10  H   UNL     1       4.349   3.005  13.402  0.00  0.00    +0.000 HD
BRANCH   7  11
ATOM     11  C   UNL     1       5.237   3.050  11.471  0.00  0.00    +0.000 C 
ATOM     12  C   UNL     1       3.851   3.227  10.847  0.00  0.00    +0.000 C 
BRANCH  11  14
ATOM     13  C   UNL     1       7.304   1.629  10.985  0.00  0.00    +0.000 C 
ATOM     14  C   UNL     1       5.791   1.651  11.162  0.00  0.00    +0.000 C 
ENDBRANCH  11  14
ENDBRANCH   7  11
ENDBRANCH   1   8
BRANCH   4  15
ATOM     15  C   UNL     1       5.365   4.776  19.234  0.00  0.00    +0.000 C 
ATOM     16  O   UNL     1       6.272   5.226  19.933  0.00  0.00    +0.000 OA
BRANCH  15  17
ATOM     17  C   UNL     1       4.067   4.432  19.865  0.00  0.00    +0.000 A 
ATOM     18  C   UNL     1       3.127   5.451  20.053  0.00  0.00    +0.000 A 
ATOM     19  C   UNL     1       1.888   5.159  20.633  0.00  0.00    +0.000 A 
ATOM     20  C   UNL     1       1.594   3.854  21.024  0.00  0.00    +0.000 A 
ATOM     21  C   UNL     1       2.535   2.840  20.855  0.00  0.00    +0.000 A 
ATOM     22  C   UNL     1       3.779   3.130  20.293  0.00  0.00    +0.000 A 
ENDBRANCH  15  17
ENDBRANCH   4  15
TORSDOF 5
ENDMDL
MODEL 8
REMARK VINA RESULT:      -7.9      1.910      3.167
REMARK  Name = 
REMARK  7 active torsions:
REMARK  status: ('A' for Active; 'I' for Inactive)
REMARK    1  A    between atoms: C_1  and  C_2
REMARK    2  A    between atoms: C_2  and  C_3
REMARK    3  A    between atoms: C_3  and  C_4
REMARK    4  A    between atoms: C_3  and  N_5
REMARK    5  A    between atoms: C_6  and  C_8
REMARK    6  A    between atoms: C_11  and  C_12
REMARK    7  A    between atoms: C_12  and  C_14
REMARK                            x       y       z     vdW  Elec       q    Type
REMARK                         _______ _______ _______ _____ _____    ______ ____
ROOT
ATOM      1  C   UNL     1       5.529   4.966  16.118  0.00  0.00    +0.000 A 
ATOM      2  C   UNL     1       5.705   6.194  16.768  0.00  0.00    +0.000 A 
ATOM      3  C   UNL     1       4.847   6.565  17.804  0.00  0.00    +0.000 A 
ATOM      4  C   UNL     1       3.792   5.725  18.182  0.00  0.00    +0.000 A 
ATOM      5  C   UNL     1       3.594   4.515  17.504  0.00  0.00    +0.000 A 
ATOM      6  C   UNL     1       4.463   4.134  16.476  0.00  0.00    +0.000 A 
ENDROOT
BRANCH   1   8
ATOM      7  N   UNL     1       5.843   4.011  13.906  0.00  0.00    +0.000 N 
ATOM      8  C   UNL     1       6.451   4.531  15.035  0.00  0.00    +0.000 C 
ATOM      9  O   UNL     1       7.658   4.666  15.162  0.00  0.00    +0.000 OA
ATOM     10  H   UNL     1       4.840   4.064  13.812  0.00  0.00    +0.000 HD
BRANCH   7  11
ATOM     11  C   UNL     1       6.617   3.581  12.751  0.00  0.00    +0.000 C 
ATOM     12  C   UNL     1       7.174   4.789  11.994  0.00  0.00    +0.000 C 
BRANCH  11  14
ATOM     13  C   UNL     1       4.396   3.307  11.518  0.00  0.00    +0.000 C 
ATOM     14  C   UNL     1       5.764   2.708  11.817  0.00  0.00    +0.000 C 
ENDBRANCH  11  14
ENDBRANCH   7  11
ENDBRANCH   1   8
BRANCH   4  15
ATOM     15  C   UNL     1       2.879   6.185  19.264  0.00  0.00    +0.000 C 
ATOM     16  O   UNL     1       2.686   5.455  20.234  0.00  0.00    +0.000 OA
BRANCH  15  17
ATOM     17  C   UNL     1       2.206   7.507  19.207  0.00  0.00    +0.000 A 
ATOM     18  C   UNL     1       2.175   8.186  17.985  0.00  0.00    +0.000 A 
ATOM     19  C   UNL     1       1.538   9.428  17.894  0.00  0.00    +0.000 A 
ATOM     20  C   UNL     1       0.937   9.986  19.020  0.00  0.00    +0.000 A 
ATOM     21  C   UNL     1       0.982   9.320  20.244  0.00  0.00    +0.000 A 
ATOM     22  C   UNL     1       1.632   8.089  20.344  0.00  0.00    +0.000 A 
ENDBRANCH  15  17
ENDBRANCH   4  15
TORSDOF 5
ENDMDL
MODEL 9
REMARK VINA RESULT:      -7.8      1.731      2.316
REMARK  Name = 
REMARK  7 active torsions:
REMARK  status: ('A' for Active; 'I' for Inactive)
REMARK    1  A    between atoms: C_1  and  C_2
REMARK    2  A    between atoms: C_2  and  C_3
REMARK    3  A    between atoms: C_3  and  C_4
REMARK    4  A    between atoms: C_3  and  N_5
REMARK    5  A    between atoms: C_6  and  C_8
REMARK    6  A    between atoms: C_11  and  C_12
REMARK    7  A    between atoms: C_12  and  C_14
REMARK                            x       y       z     vdW  Elec       q    Type
REMARK                         _______ _______ _______ _____ _____    ______ ____
ROOT
ATOM      1  C   UNL     1       6.224   4.283  15.095  0.00  0.00    +0.000 A 
ATOM      2  C   UNL     1       7.210   4.668  16.011  0.00  0.00    +0.000 A 
ATOM      3  C   UNL     1       6.904   4.766  17.369  0.00  0.00    +0.000 A 
ATOM      4  C   UNL     1       5.604   4.504  17.819  0.00  0.00    +0.000 A 
ATOM      5  C   UNL     1       4.608   4.156  16.895  0.00  0.00    +0.000 A 
ATOM      6  C   UNL     1       4.918   4.043  15.537  0.00  0.00    +0.000 A 
ENDROOT
BRANCH   1   8
ATOM      7  N   UNL     1       5.796   3.182  12.972  0.00  0.00    +0.000 N 
ATOM      8  C   UNL     1       6.533   4.137  13.647  0.00  0.00    +0.000 C 
ATOM      9  O   UNL     1       7.371   4.854  13.122  0.00  0.00    +0.000 OA
ATOM     10  H   UNL     1       5.023   2.730  13.436  0.00  0.00    +0.000 HD
BRANCH   7  11
ATOM     11  C   UNL     1       5.964   2.956  11.543  0.00  0.00    +0.000 C 
ATOM     12  C   UNL     1       4.606   2.762  10.865  0.00  0.00    +0.000 C 
BRANCH  11  14
ATOM     13  C   UNL     1       6.102   0.438  11.132  0.00  0.00    +0.000 C 
ATOM     14  C   UNL     1       6.872   1.743  11.286  0.00  0.00    +0.000 C 
ENDBRANCH  11  14
ENDBRANCH   7  11
ENDBRANCH   1   8
BRANCH   4  15
ATOM     15  C   UNL     1       5.316   4.663  19.270  0.00  0.00    +0.000 C 
ATOM     16  O   UNL     1       6.222   5.016  20.024  0.00  0.00    +0.000 OA
BRANCH  15  17
ATOM     17  C   UNL     1       3.963   4.419  19.829  0.00  0.00    +0.000 A 
ATOM     18  C   UNL     1       3.622   3.115  20.202  0.00  0.00    +0.000 A 
ATOM     19  C   UNL     1       2.359   2.852  20.744  0.00  0.00    +0.000 A 
ATOM     20  C   UNL     1       1.444   3.890  20.910  0.00  0.00    +0.000 A 
ATOM     21  C   UNL     1       1.774   5.187  20.522  0.00  0.00    +0.000 A 
ATOM     22  C   UNL     1       3.026   5.451  19.964  0.00  0.00    +0.000 A 
ENDBRANCH  15  17
ENDBRANCH   4  15
TORSDOF 5
ENDMDL
