MODEL 1
REMARK VINA RESULT:      -6.1      0.000      0.000
REMARK  Name = 
REMARK  5 active torsions:
REMARK  status: ('A' for Active; 'I' for Inactive)
REMARK    1  A    between atoms: C_1  and  C_2
REMARK    2  A    between atoms: C_5  and  N_6
REMARK    3  A    between atoms: N_6  and  C_7
REMARK    4  A    between atoms: C_7  and  C_8
REMARK    5  A    between atoms: C_7  and  C_10
REMARK                            x       y       z     vdW  Elec       q    Type
REMARK                         _______ _______ _______ _____ _____    ______ ____
ROOT
ATOM      1  N   UNL     1       4.053   4.269  16.560  0.00  0.00    +0.000 N 
ATOM      2  H   UNL     1       3.535   3.956  15.743  0.00  0.00    +0.000 HD
ENDROOT
BRANCH   1   7
ATOM      3  C   UNL     1       1.495   2.771  21.466  0.00  0.00    +0.000 C 
ATOM      4  C   UNL     1       2.156   3.169  20.181  0.00  0.00    +0.000 A 
ATOM      5  C   UNL     1       3.150   2.378  19.602  0.00  0.00    +0.000 A 
ATOM      6  C   UNL     1       3.761   2.774  18.407  0.00  0.00    +0.000 A 
ATOM      7  C   UNL     1       3.382   3.948  17.742  0.00  0.00    +0.000 A 
ATOM      8  C   UNL     1       2.403   4.744  18.341  0.00  0.00    +0.000 A 
ATOM      9  C   UNL     1       1.795   4.361  19.546  0.00  0.00    +0.000 A 
ENDBRANCH   1   7
BRANCH   1  10
ATOM     10  C   UNL     1       5.503   4.060  16.432  0.00  0.00    +0.000 C 
BRANCH  10  11
ATOM     11  C   UNL     1       6.335   5.127  17.129  0.00  0.00    +0.000 A 
ATOM     12  C   UNL     1       7.065   4.943  18.355  0.00  0.00    +0.000 A 
ATOM     13  C   UNL     1       7.729   6.081  18.756  0.00  0.00    +0.000 A 
ATOM     14  S   UNL     1       7.497   7.376  17.670  0.00  0.00    +0.000 S 
ATOM     15  C   UNL     1       6.504   6.420  16.659  0.00  0.00    +0.000 A 
ENDBRANCH  10  11
BRANCH  10  16
ATOM     16  C   UNL     1       5.982   3.948  14.994  0.00  0.00    +0.000 C 
ATOM     17  N   UNL     1       6.380   3.855  13.801  0.00  0.00    +0.000 NA
ENDBRANCH  10  16
ENDBRANCH   1  10
TORSDOF 4
ENDMDL
MODEL 2
REMARK VINA RESULT:      -6.1      0.666      1.599
REMARK  Name = 
REMARK  5 active torsions:
REMARK  status: ('A' for Active; 'I' for Inactive)
REMARK    1  A    between atoms: C_1  and  C_2
REMARK    2  A    between atoms: C_5  and  N_6
REMARK    3  A    between atoms: N_6  and  C_7
REMARK    4  A    between atoms: C_7  and  C_8
REMARK    5  A    between atoms: C_7  and  C_10
REMARK                            x       y       z     vdW  Elec       q    Type
REMARK                         _______ _______ _______ _____ _____    ______ ____
ROOT
ATOM      1  N   UNL     1       4.079   3.995  16.268  0.00  0.00    +0.000 N 
ATOM      2  H   UNL     1       3.594   3.592  15.469  0.00  0.00    +0.000 HD
ENDROOT
BRANCH   1   7
ATOM      3  C   UNL     1       1.246   2.877  21.125  0.00  0.00    +0.000 C 
ATOM      4  C   UNL     1       1.994   3.163  19.857  0.00  0.00    +0.000 A 
ATOM      5  C   UNL     1       1.769   4.334  19.131  0.00  0.00    +0.000 A 
ATOM      6  C   UNL     1       2.471   4.575  17.945  0.00  0.00    +0.000 A 
ATOM      7  C   UNL     1       3.434   3.677  17.466  0.00  0.00    +0.000 A 
ATOM      8  C   UNL     1       3.637   2.498  18.187  0.00  0.00    +0.000 A 
ATOM      9  C   UNL     1       2.927   2.242  19.370  0.00  0.00    +0.000 A 
ENDBRANCH   1   7
BRANCH   1  10
ATOM     10  C   UNL     1       5.542   3.912  16.150  0.00  0.00    +0.000 C 
BRANCH  10  11
ATOM     11  C   UNL     1       6.277   4.992  16.929  0.00  0.00    +0.000 A 
ATOM     12  C   UNL     1       6.190   6.406  16.674  0.00  0.00    +0.000 A 
ATOM     13  C   UNL     1       6.964   7.152  17.534  0.00  0.00    +0.000 A 
ATOM     14  S   UNL     1       7.795   6.176  18.661  0.00  0.00    +0.000 S 
ATOM     15  C   UNL     1       7.123   4.749  18.000  0.00  0.00    +0.000 A 
ENDBRANCH  10  11
BRANCH  10  16
ATOM     16  C   UNL     1       6.044   3.935  14.715  0.00  0.00    +0.000 C 
ATOM     17  N   UNL     1       6.462   3.955  13.525  0.00  0.00    +0.000 NA
ENDBRANCH  10  16
ENDBRANCH   1  10
TORSDOF 4
ENDMDL
MODEL 3
REMARK VINA RESULT:      -6.0      0.680      1.063
REMARK  Name = 
REMARK  5 active torsions:
REMARK  status: ('A' for Active; 'I' for Inactive)
REMARK    1  A    between atoms: C_1  and  C_2
REMARK    2  A    between atoms: C_5  and  N_6
REMARK    3  A    between atoms: N_6  and  C_7
REMARK    4  A    between atoms: C_7  and  C_8
REMARK    5  A    between atoms: C_7  and  C_10
REMARK                            x       y       z     vdW  Elec       q    Type
REMARK                         _______ _______ _______ _____ _____    ______ ____
ROOT
ATOM      1  N   UNL     1       4.027   4.083  16.309  0.00  0.00    +0.000 N 
ATOM      2  H   UNL     1       3.534   3.681  15.515  0.00  0.00    +0.000 HD
ENDROOT
BRANCH   1   7
ATOM      3  C   UNL     1       1.350   2.885  21.235  0.00  0.00    +0.000 C 
ATOM      4  C   UNL     1       2.045   3.207  19.945  0.00  0.00    +0.000 A 
ATOM      5  C   UNL     1       2.711   2.221  19.215  0.00  0.00    +0.000 A 
ATOM      6  C   UNL     1       3.361   2.545  18.020  0.00  0.00    +0.000 A 
ATOM      7  C   UNL     1       3.342   3.849  17.504  0.00  0.00    +0.000 A 
ATOM      8  C   UNL     1       2.692   4.832  18.253  0.00  0.00    +0.000 A 
ATOM      9  C   UNL     1       2.050   4.518  19.459  0.00  0.00    +0.000 A 
ENDBRANCH   1   7
BRANCH   1  10
ATOM     10  C   UNL     1       5.484   3.908  16.225  0.00  0.00    +0.000 C 
BRANCH  10  11
ATOM     11  C   UNL     1       6.268   4.946  17.014  0.00  0.00    +0.000 A 
ATOM     12  C   UNL     1       6.398   6.335  16.661  0.00  0.00    +0.000 A 
ATOM     13  C   UNL     1       7.167   7.044  17.557  0.00  0.00    +0.000 A 
ATOM     14  S   UNL     1       7.733   6.063  18.834  0.00  0.00    +0.000 S 
ATOM     15  C   UNL     1       6.953   4.684  18.191  0.00  0.00    +0.000 A 
ENDBRANCH  10  11
BRANCH  10  16
ATOM     16  C   UNL     1       6.019   3.890  14.802  0.00  0.00    +0.000 C 
ATOM     17  N   UNL     1       6.463   3.876  13.622  0.00  0.00    +0.000 NA
ENDBRANCH  10  16
ENDBRANCH   1  10
TORSDOF 4
ENDMDL
MODEL 4
REMARK VINA RESULT:      -6.0      4.150      5.834
REMARK  Name = 
REMARK  5 active torsions:
REMARK  status: ('A' for Active; 'I' for Inactive)
REMARK    1  A    between atoms: C_1  and  C_2
REMARK    2  A    between atoms: C_5  and  N_6
REMARK    3  A    between atoms: N_6  and  C_7
REMARK    4  A    between atoms: C_7  and  C_8
REMARK    5  A    between atoms: C_7  and  C_10
REMARK                            x       y       z     vdW  Elec       q    Type
REMARK                         _______ _______ _______ _____ _____    ______ ____
ROOT
ATOM      1  N   UNL     1       2.832   6.408  20.117  0.00  0.00    +0.000 N 
ATOM      2  H   UNL     1       3.416   6.518  20.943  0.00  0.00    +0.000 HD
ENDROOT
BRANCH   1   7
ATOM      3  C   UNL     1      -0.070  11.146  18.705  0.00  0.00    +0.000 C 
ATOM      4  C   UNL     1       0.689   9.909  19.084  0.00  0.00    +0.000 A 
ATOM      5  C   UNL     1       1.430   9.195  18.140  0.00  0.00    +0.000 A 
ATOM      6  C   UNL     1       2.122   8.038  18.513  0.00  0.00    +0.000 A 
ATOM      7  C   UNL     1       2.121   7.577  19.837  0.00  0.00    +0.000 A 
ATOM      8  C   UNL     1       1.359   8.285  20.769  0.00  0.00    +0.000 A 
ATOM      9  C   UNL     1       0.651   9.439  20.400  0.00  0.00    +0.000 A 
ENDBRANCH   1   7
BRANCH   1  10
ATOM     10  C   UNL     1       3.495   5.651  19.045  0.00  0.00    +0.000 C 
BRANCH  10  11
ATOM     11  C   UNL     1       2.822   4.323  18.734  0.00  0.00    +0.000 A 
ATOM     12  C   UNL     1       3.370   3.288  17.896  0.00  0.00    +0.000 A 
ATOM     13  C   UNL     1       2.542   2.193  17.789  0.00  0.00    +0.000 A 
ATOM     14  S   UNL     1       1.108   2.383  18.694  0.00  0.00    +0.000 S 
ATOM     15  C   UNL     1       1.588   3.933  19.231  0.00  0.00    +0.000 A 
ENDBRANCH  10  11
BRANCH  10  16
ATOM     16  C   UNL     1       4.970   5.387  19.303  0.00  0.00    +0.000 C 
ATOM     17  N   UNL     1       6.194   5.168  19.516  0.00  0.00    +0.000 NA
ENDBRANCH  10  16
ENDBRANCH   1  10
TORSDOF 4
ENDMDL
MODEL 5
REMARK VINA RESULT:      -6.0      2.297      3.445
REMARK  Name = 
REMARK  5 active torsions:
REMARK  status: ('A' for Active; 'I' for Inactive)
REMARK    1  A    between atoms: C_1  and  C_2
REMARK    2  A    between atoms: C_5  and  N_6
REMARK    3  A    between atoms: N_6  and  C_7
REMARK    4  A    between atoms: C_7  and  C_8
REMARK    5  A    between atoms: C_7  and  C_10
REMARK                            x       y       z     vdW  Elec       q    Type
REMARK                         _______ _______ _______ _____ _____    ______ ____
ROOT
ATOM      1  N   UNL     1       5.387   3.643  16.706  0.00  0.00    +0.000 N 
ATOM      2  H   UNL     1       6.247   3.294  17.123  0.00  0.00    +0.000 HD
ENDROOT
BRANCH   1   7
ATOM      3  C   UNL     1       0.899   3.521  20.270  0.00  0.00    +0.000 C 
ATOM      4  C   UNL     1       2.079   3.556  19.345  0.00  0.00    +0.000 A 
ATOM      5  C   UNL     1       1.914   3.637  17.961  0.00  0.00    +0.000 A 
ATOM      6  C   UNL     1       3.028   3.657  17.117  0.00  0.00    +0.000 A 
ATOM      7  C   UNL     1       4.335   3.629  17.624  0.00  0.00    +0.000 A 
ATOM      8  C   UNL     1       4.490   3.526  19.008  0.00  0.00    +0.000 A 
ATOM      9  C   UNL     1       3.377   3.491  19.861  0.00  0.00    +0.000 A 
ENDBRANCH   1   7
BRANCH   1  10
ATOM     10  C   UNL     1       5.609   4.800  15.825  0.00  0.00    +0.000 C 
BRANCH  10  11
ATOM     11  C   UNL     1       5.993   4.416  14.404  0.00  0.00    +0.000 A 
ATOM     12  C   UNL     1       5.204   3.598  13.521  0.00  0.00    +0.000 A 
ATOM     13  C   UNL     1       5.797   3.413  12.292  0.00  0.00    +0.000 A 
ATOM     14  S   UNL     1       7.296   4.221  12.175  0.00  0.00    +0.000 S 
ATOM     15  C   UNL     1       7.158   4.820  13.770  0.00  0.00    +0.000 A 
ENDBRANCH  10  11
BRANCH  10  16
ATOM     16  C   UNL     1       6.645   5.781  16.349  0.00  0.00    +0.000 C 
ATOM     17  N   UNL     1       7.505   6.594  16.784  0.00  0.00    +0.000 NA
ENDBRANCH  10  16
ENDBRANCH   1  10
TORSDOF 4
ENDMDL
MODEL 6
REMARK VINA RESULT:      -6.0      3.919      5.608
REMARK  Name = 
REMARK  5 active torsions:
REMARK  status: ('A' for Active; 'I' for Inactive)
REMARK    1  A    between atoms: C_1  and  C_2
REMARK    2  A    between atoms: C_5  and  N_6
REMARK    3  A    between atoms: N_6  and  C_7
REMARK    4  A    between atoms: C_7  and  C_8
REMARK    5  A    between atoms: C_7  and  C_10
REMARK                            x       y       z     vdW  Elec       q    Type
REMARK                         _______ _______ _______ _____ _____    ______ ____
ROOT
ATOM      1  N   UNL     1       3.067   6.214  20.057  0.00  0.00    +0.000 N 
ATOM      2  H   UNL     1       3.571   6.317  20.936  0.00  0.00    +0.000 HD
ENDROOT
BRANCH   1   7
ATOM      3  C   UNL     1       0.084  10.872  18.551  0.00  0.00    +0.000 C 
ATOM      4  C   UNL     1       0.864   9.657  18.955  0.00  0.00    +0.000 A 
ATOM      5  C   UNL     1       1.650   8.961  18.034  0.00  0.00    +0.000 A 
ATOM      6  C   UNL     1       2.361   7.823  18.430  0.00  0.00    +0.000 A 
ATOM      7  C   UNL     1       2.334   7.364  19.755  0.00  0.00    +0.000 A 
ATOM      8  C   UNL     1       1.528   8.054  20.663  0.00  0.00    +0.000 A 
ATOM      9  C   UNL     1       0.801   9.188  20.271  0.00  0.00    +0.000 A 
ENDBRANCH   1   7
BRANCH   1  10
ATOM     10  C   UNL     1       3.854   5.524  19.025  0.00  0.00    +0.000 C 
BRANCH  10  11
ATOM     11  C   UNL     1       3.350   4.124  18.711  0.00  0.00    +0.000 A 
ATOM     12  C   UNL     1       1.989   3.781  18.393  0.00  0.00    +0.000 A 
ATOM     13  C   UNL     1       1.819   2.436  18.154  0.00  0.00    +0.000 A 
ATOM     14  S   UNL     1       3.282   1.569  18.298  0.00  0.00    +0.000 S 
ATOM     15  C   UNL     1       4.149   2.991  18.682  0.00  0.00    +0.000 A 
ENDBRANCH  10  11
BRANCH  10  16
ATOM     16  C   UNL     1       5.339   5.435  19.342  0.00  0.00    +0.000 C 
ATOM     17  N   UNL     1       6.570   5.362  19.605  0.00  0.00    +0.000 NA
ENDBRANCH  10  16
ENDBRANCH   1  10
TORSDOF 4
ENDMDL
MODEL 7
REMARK VINA RESULT:      -5.9      4.028      5.766
REMARK  Name = 
REMARK  5 active torsions:
REMARK  status: ('A' for Active; 'I' for Inactive)
REMARK    1  A    between atoms: C_1  and  C_2
REMARK    2  A    between atoms: C_5  and  N_6
REMARK    3  A    between atoms: N_6  and  C_7
REMARK    4  A    between atoms: C_7  and  C_8
REMARK    5  A    between atoms: C_7  and  C_10
REMARK                            x       y       z     vdW  Elec       q    Type
REMARK                         _______ _______ _______ _____ _____    ______ ____
ROOT
ATOM      1  N   UNL     1       3.003   6.437  19.975  0.00  0.00    +0.000 N 
ATOM      2  H   UNL     1       3.559   6.634  20.804  0.00  0.00    +0.000 HD
ENDROOT
BRANCH   1   7
ATOM      3  C   UNL     1      -0.145  11.053  18.693  0.00  0.00    +0.000 C 
ATOM      4  C   UNL     1       0.678   9.843  19.018  0.00  0.00    +0.000 A 
ATOM      5  C   UNL     1       0.711   9.314  20.310  0.00  0.00    +0.000 A 
ATOM      6  C   UNL     1       1.495   8.190  20.594  0.00  0.00    +0.000 A 
ATOM      7  C   UNL     1       2.242   7.546  19.598  0.00  0.00    +0.000 A 
ATOM      8  C   UNL     1       2.220   8.095  18.314  0.00  0.00    +0.000 A 
ATOM      9  C   UNL     1       1.448   9.230  18.025  0.00  0.00    +0.000 A 
ENDBRANCH   1   7
BRANCH   1  10
ATOM     10  C   UNL     1       3.732   5.643  18.974  0.00  0.00    +0.000 C 
BRANCH  10  11
ATOM     11  C   UNL     1       3.097   4.290  18.693  0.00  0.00    +0.000 A 
ATOM     12  C   UNL     1       1.687   4.004  18.748  0.00  0.00    +0.000 A 
ATOM     13  C   UNL     1       1.397   2.692  18.447  0.00  0.00    +0.000 A 
ATOM     14  S   UNL     1       2.800   1.790  18.086  0.00  0.00    +0.000 S 
ATOM     15  C   UNL     1       3.803   3.152  18.333  0.00  0.00    +0.000 A 
ENDBRANCH  10  11
BRANCH  10  16
ATOM     16  C   UNL     1       5.196   5.420  19.316  0.00  0.00    +0.000 C 
ATOM     17  N   UNL     1       6.410   5.234  19.600  0.00  0.00    +0.000 NA
ENDBRANCH  10  16
ENDBRANCH   1  10
TORSDOF 4
ENDMDL
MODEL 8
REMARK VINA RESULT:      -5.9      4.163      5.857
REMARK  Name = 
REMARK  5 active torsions:
REMARK  status: ('A' for Active; 'I' for Inactive)
REMARK    1  A    between atoms: C_1  and  C_2
REMARK    2  A    between atoms: C_5  and  N_6
REMARK    3  A    between atoms: N_6  and  C_7
REMARK    4  A    between atoms: C_7  and  C_8
REMARK    5  A    between atoms: C_7  and  C_10
REMARK                            x       y       z     vdW  Elec       q    Type
REMARK                         _______ _______ _______ _____ _____    ______ ____
ROOT
ATOM      1  N   UNL     1       2.846   6.480  19.993  0.00  0.00    +0.000 N 
ATOM      2  H   UNL     1       3.406   6.657  20.824  0.00  0.00    +0.000 HD
ENDROOT
BRANCH   1   7
ATOM      3  C   UNL     1      -0.120  11.211  18.697  0.00  0.00    +0.000 C 
ATOM      4  C   UNL     1       0.656   9.971  19.026  0.00  0.00    +0.000 A 
ATOM      5  C   UNL     1       0.668   9.446  20.320  0.00  0.00    +0.000 A 
ATOM      6  C   UNL     1       1.408   8.294  20.607  0.00  0.00    +0.000 A 
ATOM      7  C   UNL     1       2.128   7.617  19.613  0.00  0.00    +0.000 A 
ATOM      8  C   UNL     1       2.128   8.162  18.327  0.00  0.00    +0.000 A 
ATOM      9  C   UNL     1       1.400   9.325  18.034  0.00  0.00    +0.000 A 
ENDBRANCH   1   7
BRANCH   1  10
ATOM     10  C   UNL     1       3.547   5.659  18.995  0.00  0.00    +0.000 C 
BRANCH  10  11
ATOM     11  C   UNL     1       2.910   4.296  18.773  0.00  0.00    +0.000 A 
ATOM     12  C   UNL     1       3.535   3.182  18.110  0.00  0.00    +0.000 A 
ATOM     13  C   UNL     1       2.724   2.071  18.051  0.00  0.00    +0.000 A 
ATOM     14  S   UNL     1       1.211   2.341  18.794  0.00  0.00    +0.000 S 
ATOM     15  C   UNL     1       1.636   3.947  19.196  0.00  0.00    +0.000 A 
ENDBRANCH  10  11
BRANCH  10  16
ATOM     16  C   UNL     1       5.022   5.449  19.300  0.00  0.00    +0.000 C 
ATOM     17  N   UNL     1       6.245   5.275  19.553  0.00  0.00    +0.000 NA
ENDBRANCH  10  16
ENDBRANCH   1  10
TORSDOF 4
ENDMDL
MODEL 9
REMARK VINA RESULT:      -5.9      1.161      1.889
REMARK  Name = 
REMARK  5 active torsions:
REMARK  status: ('A' for Active; 'I' for Inactive)
REMARK    1  A    between atoms: C_1  and  C_2
REMARK    2  A    between atoms: C_5  and  N_6
REMARK    3  A    between atoms: N_6  and  C_7
REMARK    4  A    between atoms: C_7  and  C_8
REMARK    5  A    between atoms: C_7  and  C_10
REMARK                            x       y       z     vdW  Elec       q    Type
REMARK                         _______ _______ _______ _____ _____    ______ ____
ROOT
ATOM      1  N   UNL     1       4.860   4.417  15.855  0.00  0.00    +0.000 N 
ATOM      2  H   UNL     1       4.465   3.902  15.072  0.00  0.00    +0.000 HD
ENDROOT
BRANCH   1   7
ATOM      3  C   UNL     1       1.666   3.870  20.583  0.00  0.00    +0.000 C 
ATOM      4  C   UNL     1       2.506   4.004  19.349  0.00  0.00    +0.000 A 
ATOM      5  C   UNL     1       2.661   5.235  18.708  0.00  0.00    +0.000 A 
ATOM      6  C   UNL     1       3.441   5.336  17.551  0.00  0.00    +0.000 A 
ATOM      7  C   UNL     1       4.112   4.226  17.019  0.00  0.00    +0.000 A 
ATOM      8  C   UNL     1       3.933   2.995  17.654  0.00  0.00    +0.000 A 
ATOM      9  C   UNL     1       3.141   2.883  18.806  0.00  0.00    +0.000 A 
ENDBRANCH   1   7
BRANCH   1  10
ATOM     10  C   UNL     1       6.330   4.374  15.884  0.00  0.00    +0.000 C 
BRANCH  10  11
ATOM     11  C   UNL     1       6.938   5.173  17.026  0.00  0.00    +0.000 A 
ATOM     12  C   UNL     1       7.158   6.596  17.023  0.00  0.00    +0.000 A 
ATOM     13  C   UNL     1       7.725   7.051  18.192  0.00  0.00    +0.000 A 
ATOM     14  S   UNL     1       7.993   5.789  19.310  0.00  0.00    +0.000 S 
ATOM     15  C   UNL     1       7.352   4.627  18.232  0.00  0.00    +0.000 A 
ENDBRANCH  10  11
BRANCH  10  16
ATOM     16  C   UNL     1       6.982   4.826  14.588  0.00  0.00    +0.000 C 
ATOM     17  N   UNL     1       7.523   5.201  13.512  0.00  0.00    +0.000 NA
ENDBRANCH  10  16
ENDBRANCH   1  10
TORSDOF 4
ENDMDL
