MODEL 1
REMARK VINA RESULT:      -8.2      0.000      0.000
REMARK  Name = 
REMARK  8 active torsions:
REMARK  status: ('A' for Active; 'I' for Inactive)
REMARK    1  A    between atoms: C_1  and  N_2
REMARK    2  A    between atoms: C_6  and  C_8
REMARK    3  A    between atoms: C_8  and  N_9
REMARK    4  A    between atoms: N_9  and  C_10
REMARK    5  A    between atoms: C_12  and  C_13
REMARK    6  A    between atoms: C_16  and  C_17
REMARK    7  A    between atoms: C_20  and  S_21
REMARK    8  A    between atoms: S_21  and  C_22
REMARK                            x       y       z     vdW  Elec       q    Type
REMARK                         _______ _______ _______ _____ _____    ______ ____
ROOT
ATOM      1  C   UNL     1       0.353   9.190  20.563  0.00  0.00    +0.000 A 
ATOM      2  C   UNL     1       0.704   9.596  19.266  0.00  0.00    +0.000 A 
ATOM      3  C   UNL     1       1.600   8.862  18.477  0.00  0.00    +0.000 A 
ATOM      4  C   UNL     1       2.224   7.702  18.963  0.00  0.00    +0.000 A 
ATOM      5  C   UNL     1       1.875   7.302  20.266  0.00  0.00    +0.000 A 
ATOM      6  C   UNL     1       0.961   8.023  21.041  0.00  0.00    +0.000 A 
ENDROOT
BRANCH   4   7
ATOM      7  C   UNL     1       3.234   6.960  18.170  0.00  0.00    +0.000 A 
ATOM      8  C   UNL     1       4.116   7.624  17.293  0.00  0.00    +0.000 A 
ATOM      9  C   UNL     1       5.125   6.941  16.608  0.00  0.00    +0.000 A 
ATOM     10  C   UNL     1       5.279   5.571  16.806  0.00  0.00    +0.000 A 
ATOM     11  C   UNL     1       4.396   4.870  17.625  0.00  0.00    +0.000 A 
ATOM     12  C   UNL     1       3.382   5.562  18.292  0.00  0.00    +0.000 A 
BRANCH  10  13
ATOM     13  S   UNL     1       6.615   4.710  16.014  0.00  0.00    +0.000 S 
ATOM     14  C   UNL     1       7.728   4.392  17.363  0.00  0.00    +0.000 C 
ATOM     15  O   UNL     1       6.101   3.439  15.545  0.00  0.00    +0.000 OA
ATOM     16  O   UNL     1       7.260   5.637  15.106  0.00  0.00    +0.000 OA
ENDBRANCH  10  13
ENDBRANCH   4   7
BRANCH   1  19
ATOM     17  C   UNL     1      -0.468  11.491  21.521  0.00  0.00    +0.000 C 
ATOM     18  C   UNL     1      -0.087  10.639  22.696  0.00  0.00    +0.000 C 
ATOM     19  C   UNL     1      -0.590   9.981  21.437  0.00  0.00    +0.000 C 
BRANCH  17  20
ATOM     20  N   UNL     1      -1.668  12.330  21.646  0.00  0.00    +0.000 NA
ATOM     21  H   UNL     1      -2.485  11.792  21.946  0.00  0.00    +0.000 HD
BRANCH  20  22
ATOM     22  C   UNL     1      -1.991  13.013  20.390  0.00  0.00    +0.000 C 
BRANCH  22  28
ATOM     23  C   UNL     1      -3.445  10.355  14.754  0.00  0.00    +0.000 C 
ATOM     24  N   UNL     1      -3.472  10.431  16.213  0.00  0.00    +0.000 NA
ATOM     25  C   UNL     1      -4.618  11.241  16.677  0.00  0.00    +0.000 C 
ATOM     26  C   UNL     1      -4.671  11.335  18.214  0.00  0.00    +0.000 C 
ATOM     27  N   UNL     1      -3.391  11.781  18.766  0.00  0.00    +0.000 N 
ATOM     28  C   UNL     1      -3.380  12.619  19.875  0.00  0.00    +0.000 C 
ATOM     29  O   UNL     1      -4.417  13.021  20.405  0.00  0.00    +0.000 OA
ATOM     30  C   UNL     1      -2.225  11.044  18.265  0.00  0.00    +0.000 C 
ATOM     31  C   UNL     1      -2.213  10.992  16.730  0.00  0.00    +0.000 C 
ENDBRANCH  22  28
ENDBRANCH  20  22
ENDBRANCH  17  20
ENDBRANCH   1  19
TORSDOF 6
ENDMDL
MODEL 2
REMARK VINA RESULT:      -7.7      0.937      1.560
REMARK  Name = 
REMARK  8 active torsions:
REMARK  status: ('A' for Active; 'I' for Inactive)
REMARK    1  A    between atoms: C_1  and  N_2
REMARK    2  A    between atoms: C_6  and  C_8
REMARK    3  A    between atoms: C_8  and  N_9
REMARK    4  A    between atoms: N_9  and  C_10
REMARK    5  A    between atoms: C_12  and  C_13
REMARK    6  A    between atoms: C_16  and  C_17
REMARK    7  A    between atoms: C_20  and  S_21
REMARK    8  A    between atoms: S_21  and  C_22
REMARK                            x       y       z     vdW  Elec       q    Type
REMARK                         _______ _______ _______ _____ _____    ______ ____
ROOT
ATOM      1  C   UNL     1       0.707   8.788  20.587  0.00  0.00    +0.000 A 
ATOM      2  C   UNL     1       1.235   7.540  20.956  0.00  0.00    +0.000 A 
ATOM      3  C   UNL     1       2.133   6.844  20.136  0.00  0.00    +0.000 A 
ATOM      4  C   UNL     1       2.517   7.343  18.882  0.00  0.00    +0.000 A 
ATOM      5  C   UNL     1       1.981   8.590  18.513  0.00  0.00    +0.000 A 
ATOM      6  C   UNL     1       1.105   9.294  19.344  0.00  0.00    +0.000 A 
ENDROOT
BRANCH   4   7
ATOM      7  C   UNL     1       3.403   6.580  17.969  0.00  0.00    +0.000 A 
ATOM      8  C   UNL     1       3.315   5.177  17.857  0.00  0.00    +0.000 A 
ATOM      9  C   UNL     1       4.088   4.462  16.938  0.00  0.00    +0.000 A 
ATOM     10  C   UNL     1       4.957   5.151  16.094  0.00  0.00    +0.000 A 
ATOM     11  C   UNL     1       5.110   6.530  16.208  0.00  0.00    +0.000 A 
ATOM     12  C   UNL     1       4.343   7.232  17.142  0.00  0.00    +0.000 A 
BRANCH  10  13
ATOM     13  S   UNL     1       5.874   4.264  14.859  0.00  0.00    +0.000 S 
ATOM     14  C   UNL     1       7.277   5.319  14.582  0.00  0.00    +0.000 C 
ATOM     15  O   UNL     1       6.346   3.034  15.462  0.00  0.00    +0.000 OA
ATOM     16  O   UNL     1       5.078   4.245  13.648  0.00  0.00    +0.000 OA
ENDBRANCH  10  13
ENDBRANCH   4   7
BRANCH   1  19
ATOM     17  C   UNL     1      -0.115  11.031  21.674  0.00  0.00    +0.000 C 
ATOM     18  C   UNL     1       0.134  10.065  22.796  0.00  0.00    +0.000 C 
ATOM     19  C   UNL     1      -0.281   9.540  21.446  0.00  0.00    +0.000 C 
BRANCH  17  20
ATOM     20  N   UNL     1      -1.291  11.905  21.774  0.00  0.00    +0.000 NA
ATOM     21  H   UNL     1      -2.152  11.377  21.938  0.00  0.00    +0.000 HD
BRANCH  20  22
ATOM     22  C   UNL     1      -1.467  12.724  20.570  0.00  0.00    +0.000 C 
BRANCH  22  28
ATOM     23  C   UNL     1      -3.456  10.368  14.963  0.00  0.00    +0.000 C 
ATOM     24  N   UNL     1      -3.476  10.476  16.421  0.00  0.00    +0.000 NA
ATOM     25  C   UNL     1      -4.406  11.539  16.857  0.00  0.00    +0.000 C 
ATOM     26  C   UNL     1      -4.447  11.672  18.391  0.00  0.00    +0.000 C 
ATOM     27  N   UNL     1      -3.103  11.819  18.951  0.00  0.00    +0.000 N 
ATOM     28  C   UNL     1      -2.906  12.653  20.046  0.00  0.00    +0.000 C 
ATOM     29  O   UNL     1      -3.825  13.295  20.556  0.00  0.00    +0.000 OA
ATOM     30  C   UNL     1      -2.136  10.823  18.476  0.00  0.00    +0.000 C 
ATOM     31  C   UNL     1      -2.125  10.739  16.943  0.00  0.00    +0.000 C 
ENDBRANCH  22  28
ENDBRANCH  20  22
ENDBRANCH  17  20
ENDBRANCH   1  19
TORSDOF 6
ENDMDL
MODEL 3
REMARK VINA RESULT:      -7.7      3.291      4.534
REMARK  Name = 
REMARK  8 active torsions:
REMARK  status: ('A' for Active; 'I' for Inactive)
REMARK    1  A    between atoms: C_1  and  N_2
REMARK    2  A    between atoms: C_6  and  C_8
REMARK    3  A    between atoms: C_8  and  N_9
REMARK    4  A    between atoms: N_9  and  C_10
REMARK    5  A    between atoms: C_12  and  C_13
REMARK    6  A    between atoms: C_16  and  C_17
REMARK    7  A    between atoms: C_20  and  S_21
REMARK    8  A    between atoms: S_21  and  C_22
REMARK                            x       y       z     vdW  Elec       q    Type
REMARK                         _______ _______ _______ _____ _____    ______ ____
ROOT
ATOM      1  C   UNL     1       0.620   9.353  20.043  0.00  0.00    +0.000 A 
ATOM      2  C   UNL     1       0.929   9.611  18.698  0.00  0.00    +0.000 A 
ATOM      3  C   UNL     1       1.796   8.787  17.966  0.00  0.00    +0.000 A 
ATOM      4  C   UNL     1       2.430   7.684  18.557  0.00  0.00    +0.000 A 
ATOM      5  C   UNL     1       2.122   7.432  19.906  0.00  0.00    +0.000 A 
ATOM      6  C   UNL     1       1.239   8.241  20.627  0.00  0.00    +0.000 A 
ENDROOT
BRANCH   4   7
ATOM      7  C   UNL     1       3.410   6.850  17.818  0.00  0.00    +0.000 A 
ATOM      8  C   UNL     1       4.514   7.424  17.154  0.00  0.00    +0.000 A 
ATOM      9  C   UNL     1       5.486   6.639  16.529  0.00  0.00    +0.000 A 
ATOM     10  C   UNL     1       5.376   5.250  16.573  0.00  0.00    +0.000 A 
ATOM     11  C   UNL     1       4.274   4.647  17.175  0.00  0.00    +0.000 A 
ATOM     12  C   UNL     1       3.301   5.444  17.784  0.00  0.00    +0.000 A 
BRANCH  10  13
ATOM     13  S   UNL     1       6.653   4.241  15.864  0.00  0.00    +0.000 S 
ATOM     14  C   UNL     1       6.977   5.052  14.316  0.00  0.00    +0.000 C 
ATOM     15  O   UNL     1       7.831   4.374  16.698  0.00  0.00    +0.000 OA
ATOM     16  O   UNL     1       6.081   2.940  15.581  0.00  0.00    +0.000 OA
ENDBRANCH  10  13
ENDBRANCH   4   7
BRANCH   1  19
ATOM     17  C   UNL     1       0.276  11.434  21.605  0.00  0.00    +0.000 C 
ATOM     18  C   UNL     1      -0.218  10.233  22.359  0.00  0.00    +0.000 C 
ATOM     19  C   UNL     1      -0.290  10.243  20.854  0.00  0.00    +0.000 C 
BRANCH  17  20
ATOM     20  N   UNL     1      -0.496  12.678  21.721  0.00  0.00    +0.000 NA
ATOM     21  H   UNL     1      -1.496  12.527  21.568  0.00  0.00    +0.000 HD
BRANCH  20  22
ATOM     22  C   UNL     1      -0.027  13.702  20.782  0.00  0.00    +0.000 C 
BRANCH  22  28
ATOM     23  C   UNL     1       5.576  14.686  17.855  0.00  0.00    +0.000 C 
ATOM     24  N   UNL     1       4.378  15.118  18.572  0.00  0.00    +0.000 NA
ATOM     25  C   UNL     1       4.596  15.076  20.033  0.00  0.00    +0.000 C 
ATOM     26  C   UNL     1       3.347  15.530  20.813  0.00  0.00    +0.000 C 
ATOM     27  N   UNL     1       2.155  14.795  20.388  0.00  0.00    +0.000 N 
ATOM     28  C   UNL     1       1.192  14.453  21.330  0.00  0.00    +0.000 C 
ATOM     29  O   UNL     1       1.313  14.730  22.524  0.00  0.00    +0.000 OA
ATOM     30  C   UNL     1       1.954  14.754  18.935  0.00  0.00    +0.000 C 
ATOM     31  C   UNL     1       3.222  14.284  18.207  0.00  0.00    +0.000 C 
ENDBRANCH  22  28
ENDBRANCH  20  22
ENDBRANCH  17  20
ENDBRANCH   1  19
TORSDOF 6
ENDMDL
MODEL 4
REMARK VINA RESULT:      -7.7      1.353      1.987
REMARK  Name = 
REMARK  8 active torsions:
REMARK  status: ('A' for Active; 'I' for Inactive)
REMARK    1  A    between atoms: C_1  and  N_2
REMARK    2  A    between atoms: C_6  and  C_8
REMARK    3  A    between atoms: C_8  and  N_9
REMARK    4  A    between atoms: N_9  and  C_10
REMARK    5  A    between atoms: C_12  and  C_13
REMARK    6  A    between atoms: C_16  and  C_17
REMARK    7  A    between atoms: C_20  and  S_21
REMARK    8  A    between atoms: S_21  and  C_22
REMARK                            x       y       z     vdW  Elec       q    Type
REMARK                         _______ _______ _______ _____ _____    ______ ____
ROOT
ATOM      1  C   UNL     1       0.400   9.114  20.609  0.00  0.00    +0.000 A 
ATOM      2  C   UNL     1       0.736   9.556  19.319  0.00  0.00    +0.000 A 
ATOM      3  C   UNL     1       1.628   8.848  18.502  0.00  0.00    +0.000 A 
ATOM      4  C   UNL     1       2.262   7.680  18.951  0.00  0.00    +0.000 A 
ATOM      5  C   UNL     1       1.929   7.244  20.246  0.00  0.00    +0.000 A 
ATOM      6  C   UNL     1       1.020   7.939  21.049  0.00  0.00    +0.000 A 
ENDROOT
BRANCH   4   7
ATOM      7  C   UNL     1       3.268   6.965  18.128  0.00  0.00    +0.000 A 
ATOM      8  C   UNL     1       4.362   7.640  17.548  0.00  0.00    +0.000 A 
ATOM      9  C   UNL     1       5.358   6.958  16.844  0.00  0.00    +0.000 A 
ATOM     10  C   UNL     1       5.283   5.572  16.722  0.00  0.00    +0.000 A 
ATOM     11  C   UNL     1       4.193   4.875  17.237  0.00  0.00    +0.000 A 
ATOM     12  C   UNL     1       3.196   5.570  17.926  0.00  0.00    +0.000 A 
BRANCH  10  13
ATOM     13  S   UNL     1       6.590   4.686  15.911  0.00  0.00    +0.000 S 
ATOM     14  C   UNL     1       7.726   4.365  17.240  0.00  0.00    +0.000 C 
ATOM     15  O   UNL     1       6.049   3.418  15.464  0.00  0.00    +0.000 OA
ATOM     16  O   UNL     1       7.229   5.595  14.981  0.00  0.00    +0.000 OA
ENDBRANCH  10  13
ENDBRANCH   4   7
BRANCH   1  19
ATOM     17  C   UNL     1      -0.020  11.025  22.358  0.00  0.00    +0.000 C 
ATOM     18  C   UNL     1      -0.432   9.736  23.009  0.00  0.00    +0.000 C 
ATOM     19  C   UNL     1      -0.538   9.877  21.512  0.00  0.00    +0.000 C 
BRANCH  17  20
ATOM     20  N   UNL     1      -0.855  12.209  22.599  0.00  0.00    +0.000 NA
ATOM     21  H   UNL     1      -1.811  12.083  22.257  0.00  0.00    +0.000 HD
BRANCH  20  22
ATOM     22  C   UNL     1      -0.290  13.412  21.979  0.00  0.00    +0.000 C 
BRANCH  22  28
ATOM     23  C   UNL     1      -4.184  10.918  17.557  0.00  0.00    +0.000 C 
ATOM     24  N   UNL     1      -3.287  11.944  18.085  0.00  0.00    +0.000 NA
ATOM     25  C   UNL     1      -1.885  11.659  17.712  0.00  0.00    +0.000 C 
ATOM     26  C   UNL     1      -0.917  12.728  18.255  0.00  0.00    +0.000 C 
ATOM     27  N   UNL     1      -1.100  12.933  19.692  0.00  0.00    +0.000 N 
ATOM     28  C   UNL     1       0.008  13.192  20.492  0.00  0.00    +0.000 C 
ATOM     29  O   UNL     1       1.151  13.237  20.035  0.00  0.00    +0.000 OA
ATOM     30  C   UNL     1      -2.493  13.142  20.103  0.00  0.00    +0.000 C 
ATOM     31  C   UNL     1      -3.412  12.045  19.548  0.00  0.00    +0.000 C 
ENDBRANCH  22  28
ENDBRANCH  20  22
ENDBRANCH  17  20
ENDBRANCH   1  19
TORSDOF 6
ENDMDL
MODEL 5
REMARK VINA RESULT:      -7.7      2.864      3.605
REMARK  Name = 
REMARK  8 active torsions:
REMARK  status: ('A' for Active; 'I' for Inactive)
REMARK    1  A    between atoms: C_1  and  N_2
REMARK    2  A    between atoms: C_6  and  C_8
REMARK    3  A    between atoms: C_8  and  N_9
REMARK    4  A    between atoms: N_9  and  C_10
REMARK    5  A    between atoms: C_12  and  C_13
REMARK    6  A    between atoms: C_16  and  C_17
REMARK    7  A    between atoms: C_20  and  S_21
REMARK    8  A    between atoms: S_21  and  C_22
REMARK                            x       y       z     vdW  Elec       q    Type
REMARK                         _______ _______ _______ _____ _____    ______ ____
ROOT
ATOM      1  C   UNL     1      -0.359  10.544  22.238  0.00  0.00    +0.000 A 
ATOM      2  C   UNL     1       0.466  10.799  21.131  0.00  0.00    +0.000 A 
ATOM      3  C   UNL     1       1.083   9.766  20.413  0.00  0.00    +0.000 A 
ATOM      4  C   UNL     1       0.938   8.423  20.792  0.00  0.00    +0.000 A 
ATOM      5  C   UNL     1       0.115   8.171  21.905  0.00  0.00    +0.000 A 
ATOM      6  C   UNL     1      -0.519   9.203  22.604  0.00  0.00    +0.000 A 
ENDROOT
BRANCH   4   7
ATOM      7  C   UNL     1       1.648   7.325  20.091  0.00  0.00    +0.000 A 
ATOM      8  C   UNL     1       1.694   6.019  20.621  0.00  0.00    +0.000 A 
ATOM      9  C   UNL     1       2.288   4.963  19.925  0.00  0.00    +0.000 A 
ATOM     10  C   UNL     1       2.836   5.197  18.665  0.00  0.00    +0.000 A 
ATOM     11  C   UNL     1       2.854   6.482  18.129  0.00  0.00    +0.000 A 
ATOM     12  C   UNL     1       2.271   7.532  18.842  0.00  0.00    +0.000 A 
BRANCH  10  13
ATOM     13  S   UNL     1       3.509   3.845  17.732  0.00  0.00    +0.000 S 
ATOM     14  C   UNL     1       4.717   4.644  16.703  0.00  0.00    +0.000 C 
ATOM     15  O   UNL     1       4.209   2.977  18.658  0.00  0.00    +0.000 OA
ATOM     16  O   UNL     1       2.457   3.332  16.877  0.00  0.00    +0.000 OA
ENDBRANCH  10  13
ENDBRANCH   4   7
BRANCH   1  19
ATOM     17  C   UNL     1      -2.422  12.096  22.710  0.00  0.00    +0.000 C 
ATOM     18  C   UNL     1      -1.256  12.995  22.412  0.00  0.00    +0.000 C 
ATOM     19  C   UNL     1      -1.011  11.646  23.038  0.00  0.00    +0.000 C 
BRANCH  17  20
ATOM     20  N   UNL     1      -3.342  12.503  23.780  0.00  0.00    +0.000 NA
ATOM     21  H   UNL     1      -3.794  11.702  24.227  0.00  0.00    +0.000 HD
BRANCH  20  22
ATOM     22  C   UNL     1      -4.381  13.415  23.291  0.00  0.00    +0.000 C 
BRANCH  22  28
ATOM     23  C   UNL     1      -7.430  13.335  17.666  0.00  0.00    +0.000 C 
ATOM     24  N   UNL     1      -6.803  12.705  18.826  0.00  0.00    +0.000 NA
ATOM     25  C   UNL     1      -7.784  12.505  19.913  0.00  0.00    +0.000 C 
ATOM     26  C   UNL     1      -7.148  11.840  21.148  0.00  0.00    +0.000 C 
ATOM     27  N   UNL     1      -5.948  12.556  21.582  0.00  0.00    +0.000 N 
ATOM     28  C   UNL     1      -5.670  12.664  22.940  0.00  0.00    +0.000 C 
ATOM     29  O   UNL     1      -6.413  12.192  23.802  0.00  0.00    +0.000 OA
ATOM     30  C   UNL     1      -4.988  12.837  20.508  0.00  0.00    +0.000 C 
ATOM     31  C   UNL     1      -5.670  13.511  19.309  0.00  0.00    +0.000 C 
ENDBRANCH  22  28
ENDBRANCH  20  22
ENDBRANCH  17  20
ENDBRANCH   1  19
TORSDOF 6
ENDMDL
MODEL 6
REMARK VINA RESULT:      -7.6      4.824      9.829
REMARK  Name = 
REMARK  8 active torsions:
REMARK  status: ('A' for Active; 'I' for Inactive)
REMARK    1  A    between atoms: C_1  and  N_2
REMARK    2  A    between atoms: C_6  and  C_8
REMARK    3  A    between atoms: C_8  and  N_9
REMARK    4  A    between atoms: N_9  and  C_10
REMARK    5  A    between atoms: C_12  and  C_13
REMARK    6  A    between atoms: C_16  and  C_17
REMARK    7  A    between atoms: C_20  and  S_21
REMARK    8  A    between atoms: S_21  and  C_22
REMARK                            x       y       z     vdW  Elec       q    Type
REMARK                         _______ _______ _______ _____ _____    ______ ____
ROOT
ATOM      1  C   UNL     1       3.166   7.348  18.102  0.00  0.00    +0.000 A 
ATOM      2  C   UNL     1       2.720   7.019  19.392  0.00  0.00    +0.000 A 
ATOM      3  C   UNL     1       1.817   7.831  20.093  0.00  0.00    +0.000 A 
ATOM      4  C   UNL     1       1.347   9.038  19.553  0.00  0.00    +0.000 A 
ATOM      5  C   UNL     1       1.802   9.367  18.263  0.00  0.00    +0.000 A 
ATOM      6  C   UNL     1       2.682   8.543  17.556  0.00  0.00    +0.000 A 
ENDROOT
BRANCH   4   7
ATOM      7  C   UNL     1       0.455   9.946  20.315  0.00  0.00    +0.000 A 
ATOM      8  C   UNL     1      -0.379  10.878  19.663  0.00  0.00    +0.000 A 
ATOM      9  C   UNL     1      -1.283  11.676  20.370  0.00  0.00    +0.000 A 
ATOM     10  C   UNL     1      -1.379  11.540  21.753  0.00  0.00    +0.000 A 
ATOM     11  C   UNL     1      -0.537  10.667  22.438  0.00  0.00    +0.000 A 
ATOM     12  C   UNL     1       0.372   9.885  21.722  0.00  0.00    +0.000 A 
BRANCH  10  13
ATOM     13  S   UNL     1      -2.589  12.481  22.650  0.00  0.00    +0.000 S 
ATOM     14  C   UNL     1      -1.604  13.737  23.433  0.00  0.00    +0.000 C 
ATOM     15  O   UNL     1      -3.451  13.124  21.680  0.00  0.00    +0.000 OA
ATOM     16  O   UNL     1      -3.134  11.625  23.685  0.00  0.00    +0.000 OA
ENDBRANCH  10  13
ENDBRANCH   4   7
BRANCH   1  19
ATOM     17  C   UNL     1       5.602   6.943  17.213  0.00  0.00    +0.000 C 
ATOM     18  C   UNL     1       4.697   6.966  16.015  0.00  0.00    +0.000 C 
ATOM     19  C   UNL     1       4.157   6.499  17.343  0.00  0.00    +0.000 C 
BRANCH  17  20
ATOM     20  N   UNL     1       6.689   5.955  17.227  0.00  0.00    +0.000 NA
ATOM     21  H   UNL     1       7.299   6.040  16.410  0.00  0.00    +0.000 HD
BRANCH  20  22
ATOM     22  C   UNL     1       6.179   4.581  17.290  0.00  0.00    +0.000 C 
BRANCH  22  28
ATOM     23  C   UNL     1       0.478   2.236  19.004  0.00  0.00    +0.000 C 
ATOM     24  N   UNL     1       1.939   2.233  18.967  0.00  0.00    +0.000 NA
ATOM     25  C   UNL     1       2.496   3.021  20.087  0.00  0.00    +0.000 C 
ATOM     26  C   UNL     1       4.036   3.033  20.072  0.00  0.00    +0.000 C 
ATOM     27  N   UNL     1       4.555   3.443  18.767  0.00  0.00    +0.000 N 
ATOM     28  C   UNL     1       5.706   4.221  18.703  0.00  0.00    +0.000 C 
ATOM     29  O   UNL     1       6.301   4.598  19.713  0.00  0.00    +0.000 OA
ATOM     30  C   UNL     1       3.964   2.731  17.628  0.00  0.00    +0.000 C 
ATOM     31  C   UNL     1       2.430   2.761  17.683  0.00  0.00    +0.000 C 
ENDBRANCH  22  28
ENDBRANCH  20  22
ENDBRANCH  17  20
ENDBRANCH   1  19
TORSDOF 6
ENDMDL
MODEL 7
REMARK VINA RESULT:      -7.6      3.241      5.215
REMARK  Name = 
REMARK  8 active torsions:
REMARK  status: ('A' for Active; 'I' for Inactive)
REMARK    1  A    between atoms: C_1  and  N_2
REMARK    2  A    between atoms: C_6  and  C_8
REMARK    3  A    between atoms: C_8  and  N_9
REMARK    4  A    between atoms: N_9  and  C_10
REMARK    5  A    between atoms: C_12  and  C_13
REMARK    6  A    between atoms: C_16  and  C_17
REMARK    7  A    between atoms: C_20  and  S_21
REMARK    8  A    between atoms: S_21  and  C_22
REMARK                            x       y       z     vdW  Elec       q    Type
REMARK                         _______ _______ _______ _____ _____    ______ ____
ROOT
ATOM      1  C   UNL     1       0.279  11.042  19.790  0.00  0.00    +0.000 A 
ATOM      2  C   UNL     1       0.279  10.197  20.912  0.00  0.00    +0.000 A 
ATOM      3  C   UNL     1       0.879   8.931  20.886  0.00  0.00    +0.000 A 
ATOM      4  C   UNL     1       1.476   8.427  19.720  0.00  0.00    +0.000 A 
ATOM      5  C   UNL     1       1.468   9.274  18.596  0.00  0.00    +0.000 A 
ATOM      6  C   UNL     1       0.891  10.547  18.633  0.00  0.00    +0.000 A 
ENDROOT
BRANCH   4   7
ATOM      7  C   UNL     1       2.043   7.059  19.654  0.00  0.00    +0.000 A 
ATOM      8  C   UNL     1       2.944   6.682  18.636  0.00  0.00    +0.000 A 
ATOM      9  C   UNL     1       3.547   5.421  18.618  0.00  0.00    +0.000 A 
ATOM     10  C   UNL     1       3.269   4.515  19.639  0.00  0.00    +0.000 A 
ATOM     11  C   UNL     1       2.348   4.831  20.634  0.00  0.00    +0.000 A 
ATOM     12  C   UNL     1       1.739   6.089  20.633  0.00  0.00    +0.000 A 
BRANCH  10  13
ATOM     13  S   UNL     1       4.101   2.947  19.677  0.00  0.00    +0.000 S 
ATOM     14  C   UNL     1       3.368   2.083  18.308  0.00  0.00    +0.000 C 
ATOM     15  O   UNL     1       5.497   3.183  19.365  0.00  0.00    +0.000 OA
ATOM     16  O   UNL     1       3.712   2.271  20.898  0.00  0.00    +0.000 OA
ENDBRANCH  10  13
ENDBRANCH   4   7
BRANCH   1  19
ATOM     17  C   UNL     1      -1.837  12.538  19.380  0.00  0.00    +0.000 C 
ATOM     18  C   UNL     1      -0.748  13.067  18.492  0.00  0.00    +0.000 C 
ATOM     19  C   UNL     1      -0.384  12.398  19.792  0.00  0.00    +0.000 C 
BRANCH  17  20
ATOM     20  N   UNL     1      -2.710  13.515  20.045  0.00  0.00    +0.000 NA
ATOM     21  H   UNL     1      -2.182  14.173  20.624  0.00  0.00    +0.000 HD
BRANCH  20  22
ATOM     22  C   UNL     1      -3.723  12.863  20.881  0.00  0.00    +0.000 C 
BRANCH  22  28
ATOM     23  C   UNL     1      -4.326  17.598  25.142  0.00  0.00    +0.000 C 
ATOM     24  N   UNL     1      -4.506  16.225  24.673  0.00  0.00    +0.000 NA
ATOM     25  C   UNL     1      -3.344  15.387  25.041  0.00  0.00    +0.000 C 
ATOM     26  C   UNL     1      -3.510  13.933  24.560  0.00  0.00    +0.000 C 
ATOM     27  N   UNL     1      -3.832  13.875  23.134  0.00  0.00    +0.000 N 
ATOM     28  C   UNL     1      -3.311  12.847  22.357  0.00  0.00    +0.000 C 
ATOM     29  O   UNL     1      -2.565  11.985  22.823  0.00  0.00    +0.000 OA
ATOM     30  C   UNL     1      -4.933  14.756  22.725  0.00  0.00    +0.000 C 
ATOM     31  C   UNL     1      -4.713  16.193  23.217  0.00  0.00    +0.000 C 
ENDBRANCH  22  28
ENDBRANCH  20  22
ENDBRANCH  17  20
ENDBRANCH   1  19
TORSDOF 6
ENDMDL
MODEL 8
REMARK VINA RESULT:      -7.4      3.461      4.877
REMARK  Name = 
REMARK  8 active torsions:
REMARK  status: ('A' for Active; 'I' for Inactive)
REMARK    1  A    between atoms: C_1  and  N_2
REMARK    2  A    between atoms: C_6  and  C_8
REMARK    3  A    between atoms: C_8  and  N_9
REMARK    4  A    between atoms: N_9  and  C_10
REMARK    5  A    between atoms: C_12  and  C_13
REMARK    6  A    between atoms: C_16  and  C_17
REMARK    7  A    between atoms: C_20  and  S_21
REMARK    8  A    between atoms: S_21  and  C_22
REMARK                            x       y       z     vdW  Elec       q    Type
REMARK                         _______ _______ _______ _____ _____    ______ ____
ROOT
ATOM      1  C   UNL     1      -0.217  10.838  21.030  0.00  0.00    +0.000 A 
ATOM      2  C   UNL     1       0.166   9.793  21.885  0.00  0.00    +0.000 A 
ATOM      3  C   UNL     1       0.934   8.710  21.435  0.00  0.00    +0.000 A 
ATOM      4  C   UNL     1       1.325   8.597  20.093  0.00  0.00    +0.000 A 
ATOM      5  C   UNL     1       0.934   9.643  19.237  0.00  0.00    +0.000 A 
ATOM      6  C   UNL     1       0.189  10.734  19.694  0.00  0.00    +0.000 A 
ENDROOT
BRANCH   4   7
ATOM      7  C   UNL     1       2.069   7.419  19.585  0.00  0.00    +0.000 A 
ATOM      8  C   UNL     1       2.765   7.458  18.360  0.00  0.00    +0.000 A 
ATOM      9  C   UNL     1       3.538   6.380  17.918  0.00  0.00    +0.000 A 
ATOM     10  C   UNL     1       3.639   5.240  18.713  0.00  0.00    +0.000 A 
ATOM     11  C   UNL     1       2.926   5.143  19.905  0.00  0.00    +0.000 A 
ATOM     12  C   UNL     1       2.146   6.222  20.329  0.00  0.00    +0.000 A 
BRANCH  10  13
ATOM     13  S   UNL     1       4.692   3.903  18.207  0.00  0.00    +0.000 S 
ATOM     14  C   UNL     1       5.149   4.370  16.554  0.00  0.00    +0.000 C 
ATOM     15  O   UNL     1       5.882   3.944  19.033  0.00  0.00    +0.000 OA
ATOM     16  O   UNL     1       3.878   2.707  18.128  0.00  0.00    +0.000 OA
ENDBRANCH  10  13
ENDBRANCH   4   7
BRANCH   1  19
ATOM     17  C   UNL     1      -0.416  13.215  22.122  0.00  0.00    +0.000 C 
ATOM     18  C   UNL     1      -1.233  12.277  22.962  0.00  0.00    +0.000 C 
ATOM     19  C   UNL     1      -1.065  11.998  21.491  0.00  0.00    +0.000 C 
BRANCH  17  20
ATOM     20  N   UNL     1      -0.956  14.559  21.877  0.00  0.00    +0.000 NA
ATOM     21  H   UNL     1      -1.802  14.537  21.302  0.00  0.00    +0.000 HD
BRANCH  20  22
ATOM     22  C   UNL     1       0.027  15.434  21.230  0.00  0.00    +0.000 C 
BRANCH  22  28
ATOM     23  C   UNL     1       5.880  15.475  18.646  0.00  0.00    +0.000 C 
ATOM     24  N   UNL     1       4.636  14.832  19.062  0.00  0.00    +0.000 NA
ATOM     25  C   UNL     1       3.628  14.885  17.982  0.00  0.00    +0.000 C 
ATOM     26  C   UNL     1       2.306  14.211  18.394  0.00  0.00    +0.000 C 
ATOM     27  N   UNL     1       1.812  14.738  19.667  0.00  0.00    +0.000 N 
ATOM     28  C   UNL     1       0.444  14.894  19.857  0.00  0.00    +0.000 C 
ATOM     29  O   UNL     1      -0.376  14.622  18.979  0.00  0.00    +0.000 OA
ATOM     30  C   UNL     1       2.813  14.769  20.740  0.00  0.00    +0.000 C 
ATOM     31  C   UNL     1       4.105  15.462  20.281  0.00  0.00    +0.000 C 
ENDBRANCH  22  28
ENDBRANCH  20  22
ENDBRANCH  17  20
ENDBRANCH   1  19
TORSDOF 6
ENDMDL
MODEL 9
REMARK VINA RESULT:      -7.4      3.413      4.860
REMARK  Name = 
REMARK  8 active torsions:
REMARK  status: ('A' for Active; 'I' for Inactive)
REMARK    1  A    between atoms: C_1  and  N_2
REMARK    2  A    between atoms: C_6  and  C_8
REMARK    3  A    between atoms: C_8  and  N_9
REMARK    4  A    between atoms: N_9  and  C_10
REMARK    5  A    between atoms: C_12  and  C_13
REMARK    6  A    between atoms: C_16  and  C_17
REMARK    7  A    between atoms: C_20  and  S_21
REMARK    8  A    between atoms: S_21  and  C_22
REMARK                            x       y       z     vdW  Elec       q    Type
REMARK                         _______ _______ _______ _____ _____    ______ ____
ROOT
ATOM      1  C   UNL     1      -0.402  10.779  21.207  0.00  0.00    +0.000 A 
ATOM      2  C   UNL     1      -0.212   9.699  22.084  0.00  0.00    +0.000 A 
ATOM      3  C   UNL     1       0.560   8.584  21.729  0.00  0.00    +0.000 A 
ATOM      4  C   UNL     1       1.149   8.474  20.460  0.00  0.00    +0.000 A 
ATOM      5  C   UNL     1       0.951   9.555  19.582  0.00  0.00    +0.000 A 
ATOM      6  C   UNL     1       0.201  10.677  19.947  0.00  0.00    +0.000 A 
ENDROOT
BRANCH   4   7
ATOM      7  C   UNL     1       1.901   7.266  20.043  0.00  0.00    +0.000 A 
ATOM      8  C   UNL     1       1.820   6.059  20.769  0.00  0.00    +0.000 A 
ATOM      9  C   UNL     1       2.457   4.895  20.333  0.00  0.00    +0.000 A 
ATOM     10  C   UNL     1       3.181   4.915  19.142  0.00  0.00    +0.000 A 
ATOM     11  C   UNL     1       3.326   6.099  18.423  0.00  0.00    +0.000 A 
ATOM     12  C   UNL     1       2.696   7.261  18.877  0.00  0.00    +0.000 A 
BRANCH  10  13
ATOM     13  S   UNL     1       3.917   3.419  18.531  0.00  0.00    +0.000 S 
ATOM     14  C   UNL     1       2.713   2.186  18.967  0.00  0.00    +0.000 C 
ATOM     15  O   UNL     1       3.964   3.512  17.086  0.00  0.00    +0.000 OA
ATOM     16  O   UNL     1       5.117   3.171  19.305  0.00  0.00    +0.000 OA
ENDBRANCH  10  13
ENDBRANCH   4   7
BRANCH   1  19
ATOM     17  C   UNL     1      -0.743  13.004  22.555  0.00  0.00    +0.000 C 
ATOM     18  C   UNL     1      -1.871  12.087  22.930  0.00  0.00    +0.000 C 
ATOM     19  C   UNL     1      -1.250  11.976  21.562  0.00  0.00    +0.000 C 
BRANCH  17  20
ATOM     20  N   UNL     1      -1.053  14.429  22.377  0.00  0.00    +0.000 NA
ATOM     21  H   UNL     1      -1.639  14.597  21.555  0.00  0.00    +0.000 HD
BRANCH  20  22
ATOM     22  C   UNL     1       0.162  15.242  22.260  0.00  0.00    +0.000 C 
BRANCH  22  28
ATOM     23  C   UNL     1       4.847  14.837  17.921  0.00  0.00    +0.000 C 
ATOM     24  N   UNL     1       3.453  14.770  18.355  0.00  0.00    +0.000 NA
ATOM     25  C   UNL     1       2.803  16.093  18.245  0.00  0.00    +0.000 C 
ATOM     26  C   UNL     1       1.331  16.050  18.694  0.00  0.00    +0.000 C 
ATOM     27  N   UNL     1       1.195  15.452  20.023  0.00  0.00    +0.000 N 
ATOM     28  C   UNL     1       0.238  15.948  20.902  0.00  0.00    +0.000 C 
ATOM     29  O   UNL     1      -0.494  16.895  20.609  0.00  0.00    +0.000 OA
ATOM     30  C   UNL     1       1.895  14.172  20.186  0.00  0.00    +0.000 C 
ATOM     31  C   UNL     1       3.359  14.273  19.737  0.00  0.00    +0.000 C 
ENDBRANCH  22  28
ENDBRANCH  20  22
ENDBRANCH  17  20
ENDBRANCH   1  19
TORSDOF 6
ENDMDL
