MODEL 1
REMARK VINA RESULT:      -7.2      0.000      0.000
REMARK  Name = 
REMARK  6 active torsions:
REMARK  status: ('A' for Active; 'I' for Inactive)
REMARK    1  A    between atoms: C_1  and  N_2
REMARK    2  A    between atoms: C_6  and  S_7
REMARK    3  A    between atoms: S_7  and  C_8
REMARK    4  A    between atoms: C_8  and  C_9
REMARK    5  A    between atoms: N_11  and  C_12
REMARK    6  A    between atoms: C_15  and  N_16
REMARK                            x       y       z     vdW  Elec       q    Type
REMARK                         _______ _______ _______ _____ _____    ______ ____
ROOT
ATOM      1  C   UNL     1       6.025   5.431  17.781  0.00  0.00    +0.000 C 
ATOM      2  O   UNL     1       6.657   6.273  18.416  0.00  0.00    +0.000 OA
ATOM      3  N   UNL     1       4.646   5.310  17.737  0.00  0.00    +0.000 N 
ATOM      4  H   UNL     1       4.273   4.441  17.351  0.00  0.00    +0.000 HD
ENDROOT
BRANCH   3   5
ATOM      5  C   UNL     1       3.702   6.182  18.317  0.00  0.00    +0.000 A 
ATOM      6  C   UNL     1       3.095   5.946  19.545  0.00  0.00    +0.000 A 
ATOM      7  C   UNL     1       2.208   6.883  20.090  0.00  0.00    +0.000 A 
ATOM      8  C   UNL     1       1.907   8.086  19.439  0.00  0.00    +0.000 A 
ATOM      9  C   UNL     1       2.504   8.294  18.188  0.00  0.00    +0.000 A 
ATOM     10  C   UNL     1       3.393   7.358  17.634  0.00  0.00    +0.000 A 
BRANCH   8  11
ATOM     11  N   UNL     1       1.131   9.038  20.077  0.00  0.00    +0.000 N 
ATOM     12  C   UNL     1       0.536  10.155  19.331  0.00  0.00    +0.000 C 
ATOM     13  C   UNL     1       0.342  11.342  20.288  0.00  0.00    +0.000 C 
ATOM     14  O   UNL     1      -0.456  10.982  21.429  0.00  0.00    +0.000 OA
ATOM     15  C   UNL     1       0.172   9.910  22.156  0.00  0.00    +0.000 C 
ATOM     16  C   UNL     1       0.357   8.663  21.275  0.00  0.00    +0.000 C 
ENDBRANCH   8  11
ENDBRANCH   3   5
BRANCH   1  17
ATOM     17  C   UNL     1       6.756   4.377  16.968  0.00  0.00    +0.000 C 
BRANCH  17  18
ATOM     18  S   UNL     1       5.800   3.944  15.486  0.00  0.00    +0.000 S 
BRANCH  18  24
ATOM     19  C   UNL     1       5.863   3.272  12.324  0.00  0.00    +0.000 C 
ATOM     20  N   UNL     1       6.758   4.215  12.943  0.00  0.00    +0.000 N 
ATOM     21  C   UNL     1       7.702   4.966  12.307  0.00  0.00    +0.000 A 
ATOM     22  N   UNL     1       8.294   5.757  13.173  0.00  0.00    +0.000 NA
ATOM     23  N   UNL     1       7.741   5.510  14.408  0.00  0.00    +0.000 NA
ATOM     24  C   UNL     1       6.825   4.581  14.253  0.00  0.00    +0.000 A 
ENDBRANCH  18  24
ENDBRANCH  17  18
ENDBRANCH   1  17
TORSDOF 5
ENDMDL
MODEL 2
REMARK VINA RESULT:      -7.1      2.749      3.817
REMARK  Name = 
REMARK  6 active torsions:
REMARK  status: ('A' for Active; 'I' for Inactive)
REMARK    1  A    between atoms: C_1  and  N_2
REMARK    2  A    between atoms: C_6  and  S_7
REMARK    3  A    between atoms: S_7  and  C_8
REMARK    4  A    between atoms: C_8  and  C_9
REMARK    5  A    between atoms: N_11  and  C_12
REMARK    6  A    between atoms: C_15  and  N_16
REMARK                            x       y       z     vdW  Elec       q    Type
REMARK                         _______ _______ _______ _____ _____    ______ ____
ROOT
ATOM      1  C   UNL     1       2.491   4.653  19.398  0.00  0.00    +0.000 C 
ATOM      2  O   UNL     1       1.313   4.420  19.665  0.00  0.00    +0.000 OA
ATOM      3  N   UNL     1       3.035   5.899  19.133  0.00  0.00    +0.000 N 
ATOM      4  H   UNL     1       3.968   5.913  18.718  0.00  0.00    +0.000 HD
ENDROOT
BRANCH   3   5
ATOM      5  C   UNL     1       2.380   7.144  19.221  0.00  0.00    +0.000 A 
ATOM      6  C   UNL     1       2.205   7.995  18.136  0.00  0.00    +0.000 A 
ATOM      7  C   UNL     1       1.494   9.192  18.282  0.00  0.00    +0.000 A 
ATOM      8  C   UNL     1       0.924   9.573  19.503  0.00  0.00    +0.000 A 
ATOM      9  C   UNL     1       1.134   8.718  20.593  0.00  0.00    +0.000 A 
ATOM     10  C   UNL     1       1.849   7.516  20.456  0.00  0.00    +0.000 A 
BRANCH   8  11
ATOM     11  N   UNL     1       0.117  10.697  19.566  0.00  0.00    +0.000 N 
ATOM     12  C   UNL     1      -0.680  11.124  18.408  0.00  0.00    +0.000 C 
ATOM     13  C   UNL     1      -0.903  12.642  18.493  0.00  0.00    +0.000 C 
ATOM     14  O   UNL     1      -1.527  13.020  19.733  0.00  0.00    +0.000 OA
ATOM     15  C   UNL     1      -0.706  12.618  20.845  0.00  0.00    +0.000 C 
ATOM     16  C   UNL     1      -0.475  11.097  20.856  0.00  0.00    +0.000 C 
ENDBRANCH   8  11
ENDBRANCH   3   5
BRANCH   1  17
ATOM     17  C   UNL     1       3.494   3.516  19.306  0.00  0.00    +0.000 C 
BRANCH  17  18
ATOM     18  S   UNL     1       4.509   3.688  17.810  0.00  0.00    +0.000 S 
BRANCH  18  24
ATOM     19  C   UNL     1       7.098   4.869  16.274  0.00  0.00    +0.000 C 
ATOM     20  N   UNL     1       6.927   4.952  17.701  0.00  0.00    +0.000 N 
ATOM     21  C   UNL     1       7.778   5.554  18.581  0.00  0.00    +0.000 A 
ATOM     22  N   UNL     1       7.279   5.489  19.795  0.00  0.00    +0.000 NA
ATOM     23  N   UNL     1       6.082   4.816  19.716  0.00  0.00    +0.000 NA
ATOM     24  C   UNL     1       5.888   4.498  18.456  0.00  0.00    +0.000 A 
ENDBRANCH  18  24
ENDBRANCH  17  18
ENDBRANCH   1  17
TORSDOF 5
ENDMDL
MODEL 3
REMARK VINA RESULT:      -7.1      3.592      5.299
REMARK  Name = 
REMARK  6 active torsions:
REMARK  status: ('A' for Active; 'I' for Inactive)
REMARK    1  A    between atoms: C_1  and  N_2
REMARK    2  A    between atoms: C_6  and  S_7
REMARK    3  A    between atoms: S_7  and  C_8
REMARK    4  A    between atoms: C_8  and  C_9
REMARK    5  A    between atoms: N_11  and  C_12
REMARK    6  A    between atoms: C_15  and  N_16
REMARK                            x       y       z     vdW  Elec       q    Type
REMARK                         _______ _______ _______ _____ _____    ______ ____
ROOT
ATOM      1  C   UNL     1       3.236   4.552  17.781  0.00  0.00    +0.000 C 
ATOM      2  O   UNL     1       2.147   4.428  17.225  0.00  0.00    +0.000 OA
ATOM      3  N   UNL     1       3.672   5.666  18.479  0.00  0.00    +0.000 N 
ATOM      4  H   UNL     1       4.669   5.711  18.696  0.00  0.00    +0.000 HD
ENDROOT
BRANCH   3   5
ATOM      5  C   UNL     1       2.924   6.823  18.779  0.00  0.00    +0.000 A 
ATOM      6  C   UNL     1       2.733   7.866  17.881  0.00  0.00    +0.000 A 
ATOM      7  C   UNL     1       1.929   8.960  18.224  0.00  0.00    +0.000 A 
ATOM      8  C   UNL     1       1.282   9.045  19.464  0.00  0.00    +0.000 A 
ATOM      9  C   UNL     1       1.509   8.000  20.368  0.00  0.00    +0.000 A 
ATOM     10  C   UNL     1       2.316   6.900  20.032  0.00  0.00    +0.000 A 
BRANCH   8  11
ATOM     11  N   UNL     1       0.393  10.078  19.706  0.00  0.00    +0.000 N 
ATOM     12  C   UNL     1       0.556  10.962  20.867  0.00  0.00    +0.000 C 
ATOM     13  C   UNL     1      -0.822  11.514  21.268  0.00  0.00    +0.000 C 
ATOM     14  O   UNL     1      -1.463  12.191  20.173  0.00  0.00    +0.000 OA
ATOM     15  C   UNL     1      -1.639  11.288  19.065  0.00  0.00    +0.000 C 
ATOM     16  C   UNL     1      -0.294  10.728  18.573  0.00  0.00    +0.000 C 
ENDBRANCH   8  11
ENDBRANCH   3   5
BRANCH   1  17
ATOM     17  C   UNL     1       4.261   3.433  17.716  0.00  0.00    +0.000 C 
BRANCH  17  18
ATOM     18  S   UNL     1       3.512   1.858  18.224  0.00  0.00    +0.000 S 
BRANCH  18  24
ATOM     19  C   UNL     1       0.437   2.335  19.101  0.00  0.00    +0.000 C 
ATOM     20  N   UNL     1       1.543   2.474  20.012  0.00  0.00    +0.000 N 
ATOM     21  C   UNL     1       1.459   2.776  21.339  0.00  0.00    +0.000 A 
ATOM     22  N   UNL     1       2.661   2.765  21.872  0.00  0.00    +0.000 NA
ATOM     23  N   UNL     1       3.556   2.465  20.872  0.00  0.00    +0.000 NA
ATOM     24  C   UNL     1       2.870   2.298  19.763  0.00  0.00    +0.000 A 
ENDBRANCH  18  24
ENDBRANCH  17  18
ENDBRANCH   1  17
TORSDOF 5
ENDMDL
MODEL 4
REMARK VINA RESULT:      -7.1      2.879      3.909
REMARK  Name = 
REMARK  6 active torsions:
REMARK  status: ('A' for Active; 'I' for Inactive)
REMARK    1  A    between atoms: C_1  and  N_2
REMARK    2  A    between atoms: C_6  and  S_7
REMARK    3  A    between atoms: S_7  and  C_8
REMARK    4  A    between atoms: C_8  and  C_9
REMARK    5  A    between atoms: N_11  and  C_12
REMARK    6  A    between atoms: C_15  and  N_16
REMARK                            x       y       z     vdW  Elec       q    Type
REMARK                         _______ _______ _______ _____ _____    ______ ____
ROOT
ATOM      1  C   UNL     1       2.408   4.899  19.955  0.00  0.00    +0.000 C 
ATOM      2  O   UNL     1       1.211   4.635  20.048  0.00  0.00    +0.000 OA
ATOM      3  N   UNL     1       2.947   6.144  19.674  0.00  0.00    +0.000 N 
ATOM      4  H   UNL     1       3.935   6.167  19.413  0.00  0.00    +0.000 HD
ENDROOT
BRANCH   3   5
ATOM      5  C   UNL     1       2.247   7.360  19.547  0.00  0.00    +0.000 A 
ATOM      6  C   UNL     1       1.612   7.993  20.609  0.00  0.00    +0.000 A 
ATOM      7  C   UNL     1       0.983   9.230  20.425  0.00  0.00    +0.000 A 
ATOM      8  C   UNL     1       0.975   9.881  19.185  0.00  0.00    +0.000 A 
ATOM      9  C   UNL     1       1.594   9.216  18.118  0.00  0.00    +0.000 A 
ATOM     10  C   UNL     1       2.225   7.973  18.294  0.00  0.00    +0.000 A 
BRANCH   8  11
ATOM     11  N   UNL     1       0.458  11.161  19.083  0.00  0.00    +0.000 N 
ATOM     12  C   UNL     1       1.333  12.316  18.841  0.00  0.00    +0.000 C 
ATOM     13  C   UNL     1       0.669  13.572  19.428  0.00  0.00    +0.000 C 
ATOM     14  O   UNL     1      -0.647  13.782  18.885  0.00  0.00    +0.000 OA
ATOM     15  C   UNL     1      -1.487  12.648  19.168  0.00  0.00    +0.000 C 
ATOM     16  C   UNL     1      -0.912  11.354  18.570  0.00  0.00    +0.000 C 
ENDBRANCH   8  11
ENDBRANCH   3   5
BRANCH   1  17
ATOM     17  C   UNL     1       3.449   3.806  20.123  0.00  0.00    +0.000 C 
BRANCH  17  18
ATOM     18  S   UNL     1       4.212   3.407  18.524  0.00  0.00    +0.000 S 
BRANCH  18  24
ATOM     19  C   UNL     1       6.318   4.208  16.205  0.00  0.00    +0.000 C 
ATOM     20  N   UNL     1       6.493   4.578  17.585  0.00  0.00    +0.000 N 
ATOM     21  C   UNL     1       7.512   5.327  18.095  0.00  0.00    +0.000 A 
ATOM     22  N   UNL     1       7.322   5.516  19.382  0.00  0.00    +0.000 NA
ATOM     23  N   UNL     1       6.162   4.863  19.731  0.00  0.00    +0.000 NA
ATOM     24  C   UNL     1       5.680   4.304  18.644  0.00  0.00    +0.000 A 
ENDBRANCH  18  24
ENDBRANCH  17  18
ENDBRANCH   1  17
TORSDOF 5
ENDMDL
MODEL 5
REMARK VINA RESULT:      -7.0      0.583      1.158
REMARK  Name = 
REMARK  6 active torsions:
REMARK  status: ('A' for Active; 'I' for Inactive)
REMARK    1  A    between atoms: C_1  and  N_2
REMARK    2  A    between atoms: C_6  and  S_7
REMARK    3  A    between atoms: S_7  and  C_8
REMARK    4  A    between atoms: C_8  and  C_9
REMARK    5  A    between atoms: N_11  and  C_12
REMARK    6  A    between atoms: C_15  and  N_16
REMARK                            x       y       z     vdW  Elec       q    Type
REMARK                         _______ _______ _______ _____ _____    ______ ____
ROOT
ATOM      1  C   UNL     1       6.053   5.586  17.695  0.00  0.00    +0.000 C 
ATOM      2  O   UNL     1       6.679   6.512  18.207  0.00  0.00    +0.000 OA
ATOM      3  N   UNL     1       4.675   5.444  17.678  0.00  0.00    +0.000 N 
ATOM      4  H   UNL     1       4.311   4.527  17.414  0.00  0.00    +0.000 HD
ENDROOT
BRANCH   3   5
ATOM      5  C   UNL     1       3.724   6.375  18.143  0.00  0.00    +0.000 A 
ATOM      6  C   UNL     1       3.105   6.282  19.384  0.00  0.00    +0.000 A 
ATOM      7  C   UNL     1       2.212   7.273  19.807  0.00  0.00    +0.000 A 
ATOM      8  C   UNL     1       1.915   8.391  19.017  0.00  0.00    +0.000 A 
ATOM      9  C   UNL     1       2.524   8.454  17.757  0.00  0.00    +0.000 A 
ATOM     10  C   UNL     1       3.420   7.462  17.324  0.00  0.00    +0.000 A 
BRANCH   8  11
ATOM     11  N   UNL     1       1.131   9.410  19.532  0.00  0.00    +0.000 N 
ATOM     12  C   UNL     1       0.809   9.468  20.964  0.00  0.00    +0.000 C 
ATOM     13  C   UNL     1      -0.527  10.209  21.141  0.00  0.00    +0.000 C 
ATOM     14  O   UNL     1      -0.491  11.520  20.552  0.00  0.00    +0.000 OA
ATOM     15  C   UNL     1      -0.207  11.425  19.144  0.00  0.00    +0.000 C 
ATOM     16  C   UNL     1       1.143  10.735  18.885  0.00  0.00    +0.000 C 
ENDBRANCH   8  11
ENDBRANCH   3   5
BRANCH   1  17
ATOM     17  C   UNL     1       6.793   4.441  17.025  0.00  0.00    +0.000 C 
BRANCH  17  18
ATOM     18  S   UNL     1       5.883   3.871  15.560  0.00  0.00    +0.000 S 
BRANCH  18  24
ATOM     19  C   UNL     1       5.833   3.274  12.383  0.00  0.00    +0.000 C 
ATOM     20  N   UNL     1       6.738   4.214  12.989  0.00  0.00    +0.000 N 
ATOM     21  C   UNL     1       7.647   4.993  12.336  0.00  0.00    +0.000 A 
ATOM     22  N   UNL     1       8.262   5.772  13.198  0.00  0.00    +0.000 NA
ATOM     23  N   UNL     1       7.761   5.488  14.447  0.00  0.00    +0.000 NA
ATOM     24  C   UNL     1       6.851   4.551  14.304  0.00  0.00    +0.000 A 
ENDBRANCH  18  24
ENDBRANCH  17  18
ENDBRANCH   1  17
TORSDOF 5
ENDMDL
MODEL 6
REMARK VINA RESULT:      -7.0      2.810      4.027
REMARK  Name = 
REMARK  6 active torsions:
REMARK  status: ('A' for Active; 'I' for Inactive)
REMARK    1  A    between atoms: C_1  and  N_2
REMARK    2  A    between atoms: C_6  and  S_7
REMARK    3  A    between atoms: S_7  and  C_8
REMARK    4  A    between atoms: C_8  and  C_9
REMARK    5  A    between atoms: N_11  and  C_12
REMARK    6  A    between atoms: C_15  and  N_16
REMARK                            x       y       z     vdW  Elec       q    Type
REMARK                         _______ _______ _______ _____ _____    ______ ____
ROOT
ATOM      1  C   UNL     1       2.356   4.800  19.964  0.00  0.00    +0.000 C 
ATOM      2  O   UNL     1       1.166   4.585  20.183  0.00  0.00    +0.000 OA
ATOM      3  N   UNL     1       2.921   6.032  19.677  0.00  0.00    +0.000 N 
ATOM      4  H   UNL     1       3.873   6.025  19.306  0.00  0.00    +0.000 HD
ENDROOT
BRANCH   3   5
ATOM      5  C   UNL     1       2.272   7.283  19.684  0.00  0.00    +0.000 A 
ATOM      6  C   UNL     1       2.182   8.105  18.567  0.00  0.00    +0.000 A 
ATOM      7  C   UNL     1       1.471   9.310  18.629  0.00  0.00    +0.000 A 
ATOM      8  C   UNL     1       0.819   9.728  19.796  0.00  0.00    +0.000 A 
ATOM      9  C   UNL     1       0.944   8.902  20.920  0.00  0.00    +0.000 A 
ATOM     10  C   UNL     1       1.658   7.693  20.867  0.00  0.00    +0.000 A 
BRANCH   8  11
ATOM     11  N   UNL     1       0.019  10.858  19.770  0.00  0.00    +0.000 N 
ATOM     12  C   UNL     1      -0.623  11.361  20.992  0.00  0.00    +0.000 C 
ATOM     13  C   UNL     1      -1.900  12.122  20.602  0.00  0.00    +0.000 C 
ATOM     14  O   UNL     1      -1.625  13.185  19.673  0.00  0.00    +0.000 OA
ATOM     15  C   UNL     1      -1.029  12.655  18.475  0.00  0.00    +0.000 C 
ATOM     16  C   UNL     1       0.286  11.916  18.777  0.00  0.00    +0.000 C 
ENDBRANCH   8  11
ENDBRANCH   3   5
BRANCH   1  17
ATOM     17  C   UNL     1       3.355   3.656  19.965  0.00  0.00    +0.000 C 
BRANCH  17  18
ATOM     18  S   UNL     1       4.120   3.482  18.327  0.00  0.00    +0.000 S 
BRANCH  18  24
ATOM     19  C   UNL     1       6.445   4.226  16.208  0.00  0.00    +0.000 C 
ATOM     20  N   UNL     1       6.519   4.567  17.604  0.00  0.00    +0.000 N 
ATOM     21  C   UNL     1       7.522   5.264  18.211  0.00  0.00    +0.000 A 
ATOM     22  N   UNL     1       7.232   5.442  19.481  0.00  0.00    +0.000 NA
ATOM     23  N   UNL     1       6.021   4.835  19.719  0.00  0.00    +0.000 NA
ATOM     24  C   UNL     1       5.609   4.313  18.585  0.00  0.00    +0.000 A 
ENDBRANCH  18  24
ENDBRANCH  17  18
ENDBRANCH   1  17
TORSDOF 5
ENDMDL
MODEL 7
REMARK VINA RESULT:      -6.9      2.962      4.109
REMARK  Name = 
REMARK  6 active torsions:
REMARK  status: ('A' for Active; 'I' for Inactive)
REMARK    1  A    between atoms: C_1  and  N_2
REMARK    2  A    between atoms: C_6  and  S_7
REMARK    3  A    between atoms: S_7  and  C_8
REMARK    4  A    between atoms: C_8  and  C_9
REMARK    5  A    between atoms: N_11  and  C_12
REMARK    6  A    between atoms: C_15  and  N_16
REMARK                            x       y       z     vdW  Elec       q    Type
REMARK                         _______ _______ _______ _____ _____    ______ ____
ROOT
ATOM      1  C   UNL     1       2.213   4.638  19.566  0.00  0.00    +0.000 C 
ATOM      2  O   UNL     1       1.338   4.521  18.711  0.00  0.00    +0.000 OA
ATOM      3  N   UNL     1       2.694   5.830  20.083  0.00  0.00    +0.000 N 
ATOM      4  H   UNL     1       3.562   5.781  20.618  0.00  0.00    +0.000 HD
ENDROOT
BRANCH   3   5
ATOM      5  C   UNL     1       2.207   7.125  19.814  0.00  0.00    +0.000 A 
ATOM      6  C   UNL     1       2.358   7.760  18.587  0.00  0.00    +0.000 A 
ATOM      7  C   UNL     1       1.799   9.026  18.369  0.00  0.00    +0.000 A 
ATOM      8  C   UNL     1       1.064   9.692  19.358  0.00  0.00    +0.000 A 
ATOM      9  C   UNL     1       0.947   9.051  20.599  0.00  0.00    +0.000 A 
ATOM     10  C   UNL     1       1.507   7.783  20.826  0.00  0.00    +0.000 A 
BRANCH   8  11
ATOM     11  N   UNL     1       0.419  10.879  19.054  0.00  0.00    +0.000 N 
ATOM     12  C   UNL     1      -1.046  10.945  18.969  0.00  0.00    +0.000 C 
ATOM     13  C   UNL     1      -1.435  12.082  18.010  0.00  0.00    +0.000 C 
ATOM     14  O   UNL     1      -0.871  13.340  18.419  0.00  0.00    +0.000 OA
ATOM     15  C   UNL     1       0.565  13.251  18.459  0.00  0.00    +0.000 C 
ATOM     16  C   UNL     1       1.037  12.162  19.438  0.00  0.00    +0.000 C 
ENDBRANCH   8  11
ENDBRANCH   3   5
BRANCH   1  17
ATOM     17  C   UNL     1       2.896   3.406  20.136  0.00  0.00    +0.000 C 
BRANCH  17  18
ATOM     18  S   UNL     1       3.991   2.658  18.895  0.00  0.00    +0.000 S 
BRANCH  18  24
ATOM     19  C   UNL     1       5.313   3.996  16.265  0.00  0.00    +0.000 C 
ATOM     20  N   UNL     1       5.696   4.357  17.605  0.00  0.00    +0.000 N 
ATOM     21  C   UNL     1       6.609   5.308  17.953  0.00  0.00    +0.000 A 
ATOM     22  N   UNL     1       6.665   5.410  19.263  0.00  0.00    +0.000 NA
ATOM     23  N   UNL     1       5.783   4.495  19.789  0.00  0.00    +0.000 NA
ATOM     24  C   UNL     1       5.213   3.870  18.782  0.00  0.00    +0.000 A 
ENDBRANCH  18  24
ENDBRANCH  17  18
ENDBRANCH   1  17
TORSDOF 5
ENDMDL
MODEL 8
REMARK VINA RESULT:      -6.9      2.579      3.465
REMARK  Name = 
REMARK  6 active torsions:
REMARK  status: ('A' for Active; 'I' for Inactive)
REMARK    1  A    between atoms: C_1  and  N_2
REMARK    2  A    between atoms: C_6  and  S_7
REMARK    3  A    between atoms: S_7  and  C_8
REMARK    4  A    between atoms: C_8  and  C_9
REMARK    5  A    between atoms: N_11  and  C_12
REMARK    6  A    between atoms: C_15  and  N_16
REMARK                            x       y       z     vdW  Elec       q    Type
REMARK                         _______ _______ _______ _____ _____    ______ ____
ROOT
ATOM      1  C   UNL     1       2.361   4.454  18.990  0.00  0.00    +0.000 C 
ATOM      2  O   UNL     1       1.172   4.207  19.181  0.00  0.00    +0.000 OA
ATOM      3  N   UNL     1       2.935   5.714  18.951  0.00  0.00    +0.000 N 
ATOM      4  H   UNL     1       3.881   5.776  18.570  0.00  0.00    +0.000 HD
ENDROOT
BRANCH   3   5
ATOM      5  C   UNL     1       2.300   6.942  19.227  0.00  0.00    +0.000 A 
ATOM      6  C   UNL     1       1.804   7.283  20.480  0.00  0.00    +0.000 A 
ATOM      7  C   UNL     1       1.235   8.543  20.698  0.00  0.00    +0.000 A 
ATOM      8  C   UNL     1       1.153   9.506  19.685  0.00  0.00    +0.000 A 
ATOM      9  C   UNL     1       1.630   9.135  18.421  0.00  0.00    +0.000 A 
ATOM     10  C   UNL     1       2.200   7.872  18.192  0.00  0.00    +0.000 A 
BRANCH   8  11
ATOM     11  N   UNL     1       0.705  10.782  19.982  0.00  0.00    +0.000 N 
ATOM     12  C   UNL     1       1.047  11.925  19.125  0.00  0.00    +0.000 C 
ATOM     13  C   UNL     1       1.034  13.205  19.977  0.00  0.00    +0.000 C 
ATOM     14  O   UNL     1      -0.232  13.395  20.633  0.00  0.00    +0.000 OA
ATOM     15  C   UNL     1      -0.520  12.275  21.490  0.00  0.00    +0.000 C 
ATOM     16  C   UNL     1      -0.572  10.957  20.699  0.00  0.00    +0.000 C 
ENDBRANCH   8  11
ENDBRANCH   3   5
BRANCH   1  17
ATOM     17  C   UNL     1       3.347   3.326  18.737  0.00  0.00    +0.000 C 
BRANCH  17  18
ATOM     18  S   UNL     1       4.333   3.668  17.251  0.00  0.00    +0.000 S 
BRANCH  18  24
ATOM     19  C   UNL     1       7.067   4.651  15.832  0.00  0.00    +0.000 C 
ATOM     20  N   UNL     1       6.860   4.705  17.256  0.00  0.00    +0.000 N 
ATOM     21  C   UNL     1       7.734   5.196  18.179  0.00  0.00    +0.000 A 
ATOM     22  N   UNL     1       7.193   5.139  19.375  0.00  0.00    +0.000 NA
ATOM     23  N   UNL     1       5.942   4.583  19.240  0.00  0.00    +0.000 NA
ATOM     24  C   UNL     1       5.759   4.326  17.964  0.00  0.00    +0.000 A 
ENDBRANCH  18  24
ENDBRANCH  17  18
ENDBRANCH   1  17
TORSDOF 5
ENDMDL
MODEL 9
REMARK VINA RESULT:      -6.9      2.696      3.806
REMARK  Name = 
REMARK  6 active torsions:
REMARK  status: ('A' for Active; 'I' for Inactive)
REMARK    1  A    between atoms: C_1  and  N_2
REMARK    2  A    between atoms: C_6  and  S_7
REMARK    3  A    between atoms: S_7  and  C_8
REMARK    4  A    between atoms: C_8  and  C_9
REMARK    5  A    between atoms: N_11  and  C_12
REMARK    6  A    between atoms: C_15  and  N_16
REMARK                            x       y       z     vdW  Elec       q    Type
REMARK                         _______ _______ _______ _____ _____    ______ ____
ROOT
ATOM      1  C   UNL     1       2.403   4.963  19.582  0.00  0.00    +0.000 C 
ATOM      2  O   UNL     1       1.287   4.668  19.159  0.00  0.00    +0.000 OA
ATOM      3  N   UNL     1       2.864   6.244  19.838  0.00  0.00    +0.000 N 
ATOM      4  H   UNL     1       3.871   6.350  19.975  0.00  0.00    +0.000 HD
ENDROOT
BRANCH   3   5
ATOM      5  C   UNL     1       2.122   7.440  19.769  0.00  0.00    +0.000 A 
ATOM      6  C   UNL     1       1.436   7.979  20.851  0.00  0.00    +0.000 A 
ATOM      7  C   UNL     1       0.765   9.202  20.727  0.00  0.00    +0.000 A 
ATOM      8  C   UNL     1       0.766   9.932  19.531  0.00  0.00    +0.000 A 
ATOM      9  C   UNL     1       1.437   9.360  18.442  0.00  0.00    +0.000 A 
ATOM     10  C   UNL     1       2.110   8.132  18.557  0.00  0.00    +0.000 A 
BRANCH   8  11
ATOM     11  N   UNL     1       0.203  11.196  19.496  0.00  0.00    +0.000 N 
ATOM     12  C   UNL     1      -0.907  11.558  20.387  0.00  0.00    +0.000 C 
ATOM     13  C   UNL     1      -1.737  12.666  19.720  0.00  0.00    +0.000 C 
ATOM     14  O   UNL     1      -0.931  13.809  19.388  0.00  0.00    +0.000 OA
ATOM     15  C   UNL     1       0.125  13.428  18.487  0.00  0.00    +0.000 C 
ATOM     16  C   UNL     1       1.034  12.351  19.105  0.00  0.00    +0.000 C 
ENDBRANCH   8  11
ENDBRANCH   3   5
BRANCH   1  17
ATOM     17  C   UNL     1       3.433   3.879  19.845  0.00  0.00    +0.000 C 
BRANCH  17  18
ATOM     18  S   UNL     1       4.147   3.291  18.282  0.00  0.00    +0.000 S 
BRANCH  18  24
ATOM     19  C   UNL     1       6.100   4.027  15.813  0.00  0.00    +0.000 C 
ATOM     20  N   UNL     1       6.399   4.372  17.178  0.00  0.00    +0.000 N 
ATOM     21  C   UNL     1       7.487   5.070  17.613  0.00  0.00    +0.000 A 
ATOM     22  N   UNL     1       7.405   5.251  18.912  0.00  0.00    +0.000 NA
ATOM     23  N   UNL     1       6.248   4.646  19.345  0.00  0.00    +0.000 NA
ATOM     24  C   UNL     1       5.659   4.122  18.294  0.00  0.00    +0.000 A 
ENDBRANCH  18  24
ENDBRANCH  17  18
ENDBRANCH   1  17
TORSDOF 5
ENDMDL
