MODEL 1
REMARK VINA RESULT:      -8.3      0.000      0.000
REMARK  Name = 
REMARK  18 active torsions:
REMARK  status: ('A' for Active; 'I' for Inactive)
REMARK    1  A    between atoms: C_1  and  O_2
REMARK    2  A    between atoms: O_2  and  C_3
REMARK    3  A    between atoms: C_3  and  C_5
REMARK    4  A    between atoms: C_5  and  C_6
REMARK    5  A    between atoms: C_6  and  O_7
REMARK    6  A    between atoms: C_6  and  C_8
REMARK    7  A    between atoms: C_8  and  C_9
REMARK    8  A    between atoms: C_8  and  N_16
REMARK    9  A    between atoms: C_9  and  C_10
REMARK   10  A    between atoms: C_17  and  C_19
REMARK   11  A    between atoms: C_19  and  C_20
REMARK   12  A    between atoms: C_19  and  N_25
REMARK   13  A    between atoms: C_20  and  C_21
REMARK   14  A    between atoms: C_21  and  C_22
REMARK   15  A    between atoms: N_25  and  C_26
REMARK   16  A    between atoms: C_27  and  O_29
REMARK   17  A    between atoms: O_29  and  C_30
REMARK   18  A    between atoms: C_30  and  C_31
REMARK                            x       y       z     vdW  Elec       q    Type
REMARK                         _______ _______ _______ _____ _____    ______ ____
ROOT
ATOM      1  N   UNL     1       4.291   5.864  17.979  0.00  0.00    +0.000 N 
ATOM      2  C   UNL     1       2.962   5.692  18.336  0.00  0.00    +0.000 C 
ATOM      3  O   UNL     1       2.212   4.939  17.722  0.00  0.00    +0.000 OA
ATOM      4  H   UNL     1       4.894   6.288  18.670  0.00  0.00    +0.000 HD
ENDROOT
BRANCH   1   5
ATOM      5  C   UNL     1       4.970   5.050  16.939  0.00  0.00    +0.000 C 
BRANCH   5   6
ATOM      6  C   UNL     1       5.392   5.905  15.718  0.00  0.00    +0.000 C 
BRANCH   6   7
ATOM      7  C   UNL     1       5.882   5.132  14.527  0.00  0.00    +0.000 A 
ATOM      8  C   UNL     1       7.151   5.374  13.988  0.00  0.00    +0.000 A 
ATOM      9  C   UNL     1       7.584   4.663  12.871  0.00  0.00    +0.000 A 
ATOM     10  C   UNL     1       6.758   3.696  12.298  0.00  0.00    +0.000 A 
ATOM     11  C   UNL     1       5.505   3.431  12.849  0.00  0.00    +0.000 A 
ATOM     12  C   UNL     1       5.070   4.141  13.963  0.00  0.00    +0.000 A 
ENDBRANCH   6   7
ENDBRANCH   5   6
BRANCH   5  13
ATOM     13  C   UNL     1       6.161   4.247  17.569  0.00  0.00    +0.000 C 
BRANCH  13  14
ATOM     14  O   UNL     1       5.760   3.799  18.875  0.00  0.00    +0.000 OA
ATOM     15  H   UNL     1       6.395   4.103  19.544  0.00  0.00    +0.000 HD
ENDBRANCH  13  14
BRANCH  13  16
ATOM     16  C   UNL     1       7.456   5.058  17.644  0.00  0.00    +0.000 C 
BRANCH  16  17
ATOM     17  C   UNL     1       7.627   5.811  18.938  0.00  0.00    +0.000 C 
ATOM     18  O   UNL     1       7.171   5.413  20.003  0.00  0.00    +0.000 OA
BRANCH  17  20
ATOM     19  C   UNL     1       7.760   7.753  17.635  0.00  0.00    +0.000 C 
ATOM     20  O   UNL     1       8.251   7.003  18.752  0.00  0.00    +0.000 OA
ENDBRANCH  17  20
ENDBRANCH  16  17
ENDBRANCH  13  16
ENDBRANCH   5  13
ENDBRANCH   1   5
BRANCH   2  21
ATOM     21  C   UNL     1       2.483   6.527  19.558  0.00  0.00    +0.000 C 
BRANCH  21  22
ATOM     22  N   UNL     1       1.870   7.837  19.215  0.00  0.00    +0.000 N 
ATOM     23  C   UNL     1       2.013   8.387  17.871  0.00  0.00    +0.000 C 
ATOM     24  C   UNL     1       1.443   8.679  20.240  0.00  0.00    +0.000 C 
ATOM     25  O   UNL     1       1.421   8.362  21.422  0.00  0.00    +0.000 OA
BRANCH  24  26
ATOM     26  O   UNL     1       1.014   9.879  19.763  0.00  0.00    +0.000 OA
BRANCH  26  27
ATOM     27  C   UNL     1       1.160  11.019  20.618  0.00  0.00    +0.000 C 
BRANCH  27  28
ATOM     28  C   UNL     1      -0.179  11.469  21.141  0.00  0.00    +0.000 A 
ATOM     29  C   UNL     1      -1.081  12.159  20.317  0.00  0.00    +0.000 A 
ATOM     30  C   UNL     1      -2.327  12.558  20.809  0.00  0.00    +0.000 A 
ATOM     31  C   UNL     1      -2.679  12.280  22.129  0.00  0.00    +0.000 A 
ATOM     32  C   UNL     1      -1.785  11.603  22.957  0.00  0.00    +0.000 A 
ATOM     33  C   UNL     1      -0.541  11.203  22.467  0.00  0.00    +0.000 A 
ENDBRANCH  27  28
ENDBRANCH  26  27
ENDBRANCH  24  26
ENDBRANCH  21  22
BRANCH  21  34
ATOM     34  C   UNL     1       1.620   5.693  20.531  0.00  0.00    +0.000 C 
BRANCH  34  35
ATOM     35  C   UNL     1       2.340   4.535  21.222  0.00  0.00    +0.000 C 
BRANCH  35  36
ATOM     36  C   UNL     1       1.525   3.258  21.180  0.00  0.00    +0.000 C 
ATOM     37  N   UNL     1       0.654   3.178  20.128  0.00  0.00    +0.000 N 
ATOM     38  O   UNL     1       1.630   2.335  21.986  0.00  0.00    +0.000 OA
ATOM     39  H   UNL     1       0.497   3.934  19.485  0.00  0.00    +0.000 HD
ATOM     40  H   UNL     1       0.077   2.347  20.061  0.00  0.00    +0.000 HD
ENDBRANCH  35  36
ENDBRANCH  34  35
ENDBRANCH  21  34
ENDBRANCH   2  21
TORSDOF 16
ENDMDL
MODEL 2
REMARK VINA RESULT:      -8.0      2.978      8.149
REMARK  Name = 
REMARK  18 active torsions:
REMARK  status: ('A' for Active; 'I' for Inactive)
REMARK    1  A    between atoms: C_1  and  O_2
REMARK    2  A    between atoms: O_2  and  C_3
REMARK    3  A    between atoms: C_3  and  C_5
REMARK    4  A    between atoms: C_5  and  C_6
REMARK    5  A    between atoms: C_6  and  O_7
REMARK    6  A    between atoms: C_6  and  C_8
REMARK    7  A    between atoms: C_8  and  C_9
REMARK    8  A    between atoms: C_8  and  N_16
REMARK    9  A    between atoms: C_9  and  C_10
REMARK   10  A    between atoms: C_17  and  C_19
REMARK   11  A    between atoms: C_19  and  C_20
REMARK   12  A    between atoms: C_19  and  N_25
REMARK   13  A    between atoms: C_20  and  C_21
REMARK   14  A    between atoms: C_21  and  C_22
REMARK   15  A    between atoms: N_25  and  C_26
REMARK   16  A    between atoms: C_27  and  O_29
REMARK   17  A    between atoms: O_29  and  C_30
REMARK   18  A    between atoms: C_30  and  C_31
REMARK                            x       y       z     vdW  Elec       q    Type
REMARK                         _______ _______ _______ _____ _____    ______ ____
ROOT
ATOM      1  N   UNL     1       4.017   5.682  18.594  0.00  0.00    +0.000 N 
ATOM      2  C   UNL     1       5.342   5.352  18.834  0.00  0.00    +0.000 C 
ATOM      3  O   UNL     1       5.706   4.823  19.881  0.00  0.00    +0.000 OA
ATOM      4  H   UNL     1       3.763   5.869  17.635  0.00  0.00    +0.000 HD
ENDROOT
BRANCH   1   5
ATOM      5  C   UNL     1       2.902   5.290  19.494  0.00  0.00    +0.000 C 
BRANCH   5   6
ATOM      6  C   UNL     1       2.477   6.450  20.429  0.00  0.00    +0.000 C 
BRANCH   6   7
ATOM      7  C   UNL     1       1.990   7.691  19.737  0.00  0.00    +0.000 A 
ATOM      8  C   UNL     1       1.148   8.596  20.396  0.00  0.00    +0.000 A 
ATOM      9  C   UNL     1       0.688   9.732  19.736  0.00  0.00    +0.000 A 
ATOM     10  C   UNL     1       1.080   9.980  18.421  0.00  0.00    +0.000 A 
ATOM     11  C   UNL     1       1.943   9.098  17.770  0.00  0.00    +0.000 A 
ATOM     12  C   UNL     1       2.400   7.960  18.426  0.00  0.00    +0.000 A 
ENDBRANCH   6   7
ENDBRANCH   5   6
BRANCH   5  13
ATOM     13  C   UNL     1       1.709   4.706  18.659  0.00  0.00    +0.000 C 
BRANCH  13  14
ATOM     14  O   UNL     1       0.813   4.038  19.564  0.00  0.00    +0.000 OA
ATOM     15  H   UNL     1       1.031   3.093  19.616  0.00  0.00    +0.000 HD
ENDBRANCH  13  14
BRANCH  13  16
ATOM     16  C   UNL     1       2.163   3.761  17.546  0.00  0.00    +0.000 C 
BRANCH  16  17
ATOM     17  C   UNL     1       2.545   2.387  18.032  0.00  0.00    +0.000 C 
ATOM     18  O   UNL     1       1.717   1.540  18.343  0.00  0.00    +0.000 OA
BRANCH  17  20
ATOM     19  C   UNL     1       4.307   1.841  19.475  0.00  0.00    +0.000 C 
ATOM     20  O   UNL     1       3.890   2.253  18.169  0.00  0.00    +0.000 OA
ENDBRANCH  17  20
ENDBRANCH  16  17
ENDBRANCH  13  16
ENDBRANCH   5  13
ENDBRANCH   1   5
BRANCH   2  21
ATOM     21  C   UNL     1       6.338   5.709  17.694  0.00  0.00    +0.000 C 
BRANCH  21  22
ATOM     22  N   UNL     1       7.438   6.626  18.093  0.00  0.00    +0.000 N 
ATOM     23  C   UNL     1       8.270   6.318  19.251  0.00  0.00    +0.000 C 
ATOM     24  C   UNL     1       7.472   7.918  17.571  0.00  0.00    +0.000 C 
ATOM     25  O   UNL     1       6.718   8.322  16.695  0.00  0.00    +0.000 OA
BRANCH  24  26
ATOM     26  O   UNL     1       8.470   8.660  18.122  0.00  0.00    +0.000 OA
BRANCH  26  27
ATOM     27  C   UNL     1       8.207  10.048  18.358  0.00  0.00    +0.000 C 
BRANCH  27  28
ATOM     28  C   UNL     1       9.451  10.754  18.831  0.00  0.00    +0.000 A 
ATOM     29  C   UNL     1       9.626  11.083  20.183  0.00  0.00    +0.000 A 
ATOM     30  C   UNL     1      10.791  11.724  20.612  0.00  0.00    +0.000 A 
ATOM     31  C   UNL     1      11.787  12.051  19.693  0.00  0.00    +0.000 A 
ATOM     32  C   UNL     1      11.618  11.737  18.345  0.00  0.00    +0.000 A 
ATOM     33  C   UNL     1      10.455  11.096  17.916  0.00  0.00    +0.000 A 
ENDBRANCH  27  28
ENDBRANCH  26  27
ENDBRANCH  24  26
ENDBRANCH  21  22
BRANCH  21  34
ATOM     34  C   UNL     1       6.839   4.455  16.944  0.00  0.00    +0.000 C 
BRANCH  34  35
ATOM     35  C   UNL     1       5.989   4.016  15.752  0.00  0.00    +0.000 C 
BRANCH  35  36
ATOM     36  C   UNL     1       6.650   4.356  14.432  0.00  0.00    +0.000 C 
ATOM     37  N   UNL     1       7.578   5.359  14.506  0.00  0.00    +0.000 N 
ATOM     38  O   UNL     1       6.422   3.783  13.368  0.00  0.00    +0.000 OA
ATOM     39  H   UNL     1       7.748   5.890  15.342  0.00  0.00    +0.000 HD
ATOM     40  H   UNL     1       8.042   5.631  13.646  0.00  0.00    +0.000 HD
ENDBRANCH  35  36
ENDBRANCH  34  35
ENDBRANCH  21  34
ENDBRANCH   2  21
TORSDOF 16
ENDMDL
MODEL 3
REMARK VINA RESULT:      -7.9      1.196      1.934
REMARK  Name = 
REMARK  18 active torsions:
REMARK  status: ('A' for Active; 'I' for Inactive)
REMARK    1  A    between atoms: C_1  and  O_2
REMARK    2  A    between atoms: O_2  and  C_3
REMARK    3  A    between atoms: C_3  and  C_5
REMARK    4  A    between atoms: C_5  and  C_6
REMARK    5  A    between atoms: C_6  and  O_7
REMARK    6  A    between atoms: C_6  and  C_8
REMARK    7  A    between atoms: C_8  and  C_9
REMARK    8  A    between atoms: C_8  and  N_16
REMARK    9  A    between atoms: C_9  and  C_10
REMARK   10  A    between atoms: C_17  and  C_19
REMARK   11  A    between atoms: C_19  and  C_20
REMARK   12  A    between atoms: C_19  and  N_25
REMARK   13  A    between atoms: C_20  and  C_21
REMARK   14  A    between atoms: C_21  and  C_22
REMARK   15  A    between atoms: N_25  and  C_26
REMARK   16  A    between atoms: C_27  and  O_29
REMARK   17  A    between atoms: O_29  and  C_30
REMARK   18  A    between atoms: C_30  and  C_31
REMARK                            x       y       z     vdW  Elec       q    Type
REMARK                         _______ _______ _______ _____ _____    ______ ____
ROOT
ATOM      1  N   UNL     1       4.399   5.776  17.970  0.00  0.00    +0.000 N 
ATOM      2  C   UNL     1       3.063   5.629  18.309  0.00  0.00    +0.000 C 
ATOM      3  O   UNL     1       2.301   4.907  17.669  0.00  0.00    +0.000 OA
ATOM      4  H   UNL     1       5.004   6.169  18.676  0.00  0.00    +0.000 HD
ENDROOT
BRANCH   1   5
ATOM      5  C   UNL     1       5.070   4.968  16.919  0.00  0.00    +0.000 C 
BRANCH   5   6
ATOM      6  C   UNL     1       5.526   5.840  15.722  0.00  0.00    +0.000 C 
BRANCH   6   7
ATOM      7  C   UNL     1       5.966   5.082  14.503  0.00  0.00    +0.000 A 
ATOM      8  C   UNL     1       5.128   4.130  13.909  0.00  0.00    +0.000 A 
ATOM      9  C   UNL     1       5.557   3.421  12.790  0.00  0.00    +0.000 A 
ATOM     10  C   UNL     1       6.817   3.670  12.249  0.00  0.00    +0.000 A 
ATOM     11  C   UNL     1       7.645   4.638  12.818  0.00  0.00    +0.000 A 
ATOM     12  C   UNL     1       7.220   5.345  13.938  0.00  0.00    +0.000 A 
ENDBRANCH   6   7
ENDBRANCH   5   6
BRANCH   5  13
ATOM     13  C   UNL     1       6.234   4.123  17.543  0.00  0.00    +0.000 C 
BRANCH  13  14
ATOM     14  O   UNL     1       5.788   3.614  18.812  0.00  0.00    +0.000 OA
ATOM     15  H   UNL     1       6.175   2.739  18.977  0.00  0.00    +0.000 HD
ENDBRANCH  13  14
BRANCH  13  16
ATOM     16  C   UNL     1       7.533   4.915  17.699  0.00  0.00    +0.000 C 
BRANCH  16  17
ATOM     17  C   UNL     1       7.578   5.770  18.940  0.00  0.00    +0.000 C 
ATOM     18  O   UNL     1       7.004   5.464  19.977  0.00  0.00    +0.000 OA
BRANCH  17  20
ATOM     19  C   UNL     1       7.703   7.727  17.659  0.00  0.00    +0.000 C 
ATOM     20  O   UNL     1       8.239   6.938  18.726  0.00  0.00    +0.000 OA
ENDBRANCH  17  20
ENDBRANCH  16  17
ENDBRANCH  13  16
ENDBRANCH   5  13
ENDBRANCH   1   5
BRANCH   2  21
ATOM     21  C   UNL     1       2.590   6.447  19.543  0.00  0.00    +0.000 C 
BRANCH  21  22
ATOM     22  N   UNL     1       1.947   7.748  19.219  0.00  0.00    +0.000 N 
ATOM     23  C   UNL     1       2.090   8.328  17.888  0.00  0.00    +0.000 C 
ATOM     24  C   UNL     1       1.488   8.559  20.255  0.00  0.00    +0.000 C 
ATOM     25  O   UNL     1       1.462   8.218  21.431  0.00  0.00    +0.000 OA
BRANCH  24  26
ATOM     26  O   UNL     1       1.034   9.757  19.797  0.00  0.00    +0.000 OA
BRANCH  26  27
ATOM     27  C   UNL     1       0.808  10.790  20.763  0.00  0.00    +0.000 C 
BRANCH  27  28
ATOM     28  C   UNL     1       0.851  12.147  20.113  0.00  0.00    +0.000 A 
ATOM     29  C   UNL     1       1.893  13.046  20.383  0.00  0.00    +0.000 A 
ATOM     30  C   UNL     1       1.931  14.298  19.762  0.00  0.00    +0.000 A 
ATOM     31  C   UNL     1       0.923  14.666  18.872  0.00  0.00    +0.000 A 
ATOM     32  C   UNL     1      -0.123  13.783  18.604  0.00  0.00    +0.000 A 
ATOM     33  C   UNL     1      -0.161  12.533  19.224  0.00  0.00    +0.000 A 
ENDBRANCH  27  28
ENDBRANCH  26  27
ENDBRANCH  24  26
ENDBRANCH  21  22
BRANCH  21  34
ATOM     34  C   UNL     1       1.760   5.592  20.526  0.00  0.00    +0.000 C 
BRANCH  34  35
ATOM     35  C   UNL     1       2.521   4.464  21.223  0.00  0.00    +0.000 C 
BRANCH  35  36
ATOM     36  C   UNL     1       2.115   3.101  20.701  0.00  0.00    +0.000 C 
ATOM     37  N   UNL     1       3.018   2.532  19.846  0.00  0.00    +0.000 N 
ATOM     38  O   UNL     1       1.084   2.510  21.018  0.00  0.00    +0.000 OA
ATOM     39  H   UNL     1       3.840   3.007  19.517  0.00  0.00    +0.000 HD
ATOM     40  H   UNL     1       2.787   1.623  19.459  0.00  0.00    +0.000 HD
ENDBRANCH  35  36
ENDBRANCH  34  35
ENDBRANCH  21  34
ENDBRANCH   2  21
TORSDOF 16
ENDMDL
MODEL 4
REMARK VINA RESULT:      -7.9      2.864      8.520
REMARK  Name = 
REMARK  18 active torsions:
REMARK  status: ('A' for Active; 'I' for Inactive)
REMARK    1  A    between atoms: C_1  and  O_2
REMARK    2  A    between atoms: O_2  and  C_3
REMARK    3  A    between atoms: C_3  and  C_5
REMARK    4  A    between atoms: C_5  and  C_6
REMARK    5  A    between atoms: C_6  and  O_7
REMARK    6  A    between atoms: C_6  and  C_8
REMARK    7  A    between atoms: C_8  and  C_9
REMARK    8  A    between atoms: C_8  and  N_16
REMARK    9  A    between atoms: C_9  and  C_10
REMARK   10  A    between atoms: C_17  and  C_19
REMARK   11  A    between atoms: C_19  and  C_20
REMARK   12  A    between atoms: C_19  and  N_25
REMARK   13  A    between atoms: C_20  and  C_21
REMARK   14  A    between atoms: C_21  and  C_22
REMARK   15  A    between atoms: N_25  and  C_26
REMARK   16  A    between atoms: C_27  and  O_29
REMARK   17  A    between atoms: O_29  and  C_30
REMARK   18  A    between atoms: C_30  and  C_31
REMARK                            x       y       z     vdW  Elec       q    Type
REMARK                         _______ _______ _______ _____ _____    ______ ____
ROOT
ATOM      1  N   UNL     1       4.343   6.740  17.895  0.00  0.00    +0.000 N 
ATOM      2  C   UNL     1       5.195   5.660  17.723  0.00  0.00    +0.000 C 
ATOM      3  O   UNL     1       4.899   4.528  18.094  0.00  0.00    +0.000 OA
ATOM      4  H   UNL     1       4.541   7.564  17.345  0.00  0.00    +0.000 HD
ENDROOT
BRANCH   1   5
ATOM      5  C   UNL     1       2.949   6.611  18.389  0.00  0.00    +0.000 C 
BRANCH   5   6
ATOM      6  C   UNL     1       2.899   6.220  19.887  0.00  0.00    +0.000 C 
BRANCH   6   7
ATOM      7  C   UNL     1       2.273   4.887  20.186  0.00  0.00    +0.000 A 
ATOM      8  C   UNL     1       1.477   4.240  19.232  0.00  0.00    +0.000 A 
ATOM      9  C   UNL     1       0.887   3.014  19.531  0.00  0.00    +0.000 A 
ATOM     10  C   UNL     1       1.102   2.422  20.775  0.00  0.00    +0.000 A 
ATOM     11  C   UNL     1       1.918   3.048  21.716  0.00  0.00    +0.000 A 
ATOM     12  C   UNL     1       2.506   4.274  21.422  0.00  0.00    +0.000 A 
ENDBRANCH   6   7
ENDBRANCH   5   6
BRANCH   5  13
ATOM     13  C   UNL     1       2.135   7.912  18.067  0.00  0.00    +0.000 C 
BRANCH  13  14
ATOM     14  O   UNL     1       2.935   8.741  17.206  0.00  0.00    +0.000 OA
ATOM     15  H   UNL     1       2.939   9.656  17.530  0.00  0.00    +0.000 HD
ENDBRANCH  13  14
BRANCH  13  16
ATOM     16  C   UNL     1       1.709   8.679  19.320  0.00  0.00    +0.000 C 
BRANCH  16  17
ATOM     17  C   UNL     1       0.602   9.672  19.079  0.00  0.00    +0.000 C 
ATOM     18  O   UNL     1       0.365  10.146  17.974  0.00  0.00    +0.000 OA
BRANCH  17  20
ATOM     19  C   UNL     1      -0.900  11.151  20.099  0.00  0.00    +0.000 C 
ATOM     20  O   UNL     1      -0.014  10.034  20.234  0.00  0.00    +0.000 OA
ENDBRANCH  17  20
ENDBRANCH  16  17
ENDBRANCH  13  16
ENDBRANCH   5  13
ENDBRANCH   1   5
BRANCH   2  21
ATOM     21  C   UNL     1       6.555   5.981  17.040  0.00  0.00    +0.000 C 
BRANCH  21  22
ATOM     22  N   UNL     1       7.567   6.607  17.931  0.00  0.00    +0.000 N 
ATOM     23  C   UNL     1       7.999   5.925  19.147  0.00  0.00    +0.000 C 
ATOM     24  C   UNL     1       7.861   7.961  17.785  0.00  0.00    +0.000 C 
ATOM     25  O   UNL     1       7.430   8.660  16.876  0.00  0.00    +0.000 OA
BRANCH  24  26
ATOM     26  O   UNL     1       8.717   8.400  18.746  0.00  0.00    +0.000 OA
BRANCH  26  27
ATOM     27  C   UNL     1       8.465   9.692  19.313  0.00  0.00    +0.000 C 
BRANCH  27  28
ATOM     28  C   UNL     1       9.655  10.596  19.127  0.00  0.00    +0.000 A 
ATOM     29  C   UNL     1      10.095  10.958  17.845  0.00  0.00    +0.000 A 
ATOM     30  C   UNL     1      11.191  11.811  17.686  0.00  0.00    +0.000 A 
ATOM     31  C   UNL     1      11.863  12.301  18.804  0.00  0.00    +0.000 A 
ATOM     32  C   UNL     1      11.440  11.938  20.082  0.00  0.00    +0.000 A 
ATOM     33  C   UNL     1      10.345  11.088  20.243  0.00  0.00    +0.000 A 
ENDBRANCH  27  28
ENDBRANCH  26  27
ENDBRANCH  24  26
ENDBRANCH  21  22
BRANCH  21  34
ATOM     34  C   UNL     1       7.110   4.774  16.251  0.00  0.00    +0.000 C 
BRANCH  34  35
ATOM     35  C   UNL     1       6.306   4.371  15.014  0.00  0.00    +0.000 C 
BRANCH  35  36
ATOM     36  C   UNL     1       7.072   4.634  13.733  0.00  0.00    +0.000 C 
ATOM     37  N   UNL     1       6.657   3.888  12.664  0.00  0.00    +0.000 N 
ATOM     38  O   UNL     1       7.974   5.461  13.616  0.00  0.00    +0.000 OA
ATOM     39  H   UNL     1       5.966   3.161  12.735  0.00  0.00    +0.000 HD
ATOM     40  H   UNL     1       7.146   4.019  11.785  0.00  0.00    +0.000 HD
ENDBRANCH  35  36
ENDBRANCH  34  35
ENDBRANCH  21  34
ENDBRANCH   2  21
TORSDOF 16
ENDMDL
MODEL 5
REMARK VINA RESULT:      -7.9      2.850      8.442
REMARK  Name = 
REMARK  18 active torsions:
REMARK  status: ('A' for Active; 'I' for Inactive)
REMARK    1  A    between atoms: C_1  and  O_2
REMARK    2  A    between atoms: O_2  and  C_3
REMARK    3  A    between atoms: C_3  and  C_5
REMARK    4  A    between atoms: C_5  and  C_6
REMARK    5  A    between atoms: C_6  and  O_7
REMARK    6  A    between atoms: C_6  and  C_8
REMARK    7  A    between atoms: C_8  and  C_9
REMARK    8  A    between atoms: C_8  and  N_16
REMARK    9  A    between atoms: C_9  and  C_10
REMARK   10  A    between atoms: C_17  and  C_19
REMARK   11  A    between atoms: C_19  and  C_20
REMARK   12  A    between atoms: C_19  and  N_25
REMARK   13  A    between atoms: C_20  and  C_21
REMARK   14  A    between atoms: C_21  and  C_22
REMARK   15  A    between atoms: N_25  and  C_26
REMARK   16  A    between atoms: C_27  and  O_29
REMARK   17  A    between atoms: O_29  and  C_30
REMARK   18  A    between atoms: C_30  and  C_31
REMARK                            x       y       z     vdW  Elec       q    Type
REMARK                         _______ _______ _______ _____ _____    ______ ____
ROOT
ATOM      1  N   UNL     1       4.150   6.449  18.201  0.00  0.00    +0.000 N 
ATOM      2  C   UNL     1       5.175   5.524  18.324  0.00  0.00    +0.000 C 
ATOM      3  O   UNL     1       5.109   4.574  19.101  0.00  0.00    +0.000 OA
ATOM      4  H   UNL     1       4.166   7.036  17.379  0.00  0.00    +0.000 HD
ENDROOT
BRANCH   1   5
ATOM      5  C   UNL     1       2.829   6.300  18.863  0.00  0.00    +0.000 C 
BRANCH   5   6
ATOM      6  C   UNL     1       1.841   7.416  18.442  0.00  0.00    +0.000 C 
BRANCH   6   7
ATOM      7  C   UNL     1       1.445   8.372  19.531  0.00  0.00    +0.000 A 
ATOM      8  C   UNL     1       1.070   9.687  19.228  0.00  0.00    +0.000 A 
ATOM      9  C   UNL     1       0.724  10.568  20.250  0.00  0.00    +0.000 A 
ATOM     10  C   UNL     1       0.735  10.136  21.575  0.00  0.00    +0.000 A 
ATOM     11  C   UNL     1       1.078   8.819  21.880  0.00  0.00    +0.000 A 
ATOM     12  C   UNL     1       1.427   7.938  20.861  0.00  0.00    +0.000 A 
ENDBRANCH   6   7
ENDBRANCH   5   6
BRANCH   5  13
ATOM     13  C   UNL     1       2.263   4.856  18.627  0.00  0.00    +0.000 C 
BRANCH  13  14
ATOM     14  O   UNL     1       1.455   4.880  17.437  0.00  0.00    +0.000 OA
ATOM     15  H   UNL     1       1.861   5.455  16.768  0.00  0.00    +0.000 HD
ENDBRANCH  13  14
BRANCH  13  16
ATOM     16  C   UNL     1       1.463   4.324  19.817  0.00  0.00    +0.000 C 
BRANCH  16  17
ATOM     17  C   UNL     1       1.064   2.877  19.683  0.00  0.00    +0.000 C 
ATOM     18  O   UNL     1       0.192   2.498  18.912  0.00  0.00    +0.000 OA
BRANCH  17  20
ATOM     19  C   UNL     1       1.797   2.640  21.895  0.00  0.00    +0.000 C 
ATOM     20  O   UNL     1       1.715   2.087  20.577  0.00  0.00    +0.000 OA
ENDBRANCH  17  20
ENDBRANCH  16  17
ENDBRANCH  13  16
ENDBRANCH   5  13
ENDBRANCH   1   5
BRANCH   2  21
ATOM     21  C   UNL     1       6.417   5.775  17.424  0.00  0.00    +0.000 C 
BRANCH  21  22
ATOM     22  N   UNL     1       7.446   6.670  18.018  0.00  0.00    +0.000 N 
ATOM     23  C   UNL     1       8.188   6.253  19.203  0.00  0.00    +0.000 C 
ATOM     24  C   UNL     1       7.477   8.013  17.649  0.00  0.00    +0.000 C 
ATOM     25  O   UNL     1       6.785   8.495  16.761  0.00  0.00    +0.000 OA
BRANCH  24  26
ATOM     26  O   UNL     1       8.397   8.714  18.365  0.00  0.00    +0.000 OA
BRANCH  26  27
ATOM     27  C   UNL     1       8.878   9.939  17.801  0.00  0.00    +0.000 C 
BRANCH  27  28
ATOM     28  C   UNL     1       9.585  10.765  18.843  0.00  0.00    +0.000 A 
ATOM     29  C   UNL     1       9.180  10.735  20.186  0.00  0.00    +0.000 A 
ATOM     30  C   UNL     1       9.855  11.494  21.147  0.00  0.00    +0.000 A 
ATOM     31  C   UNL     1      10.932  12.296  20.774  0.00  0.00    +0.000 A 
ATOM     32  C   UNL     1      11.335  12.340  19.440  0.00  0.00    +0.000 A 
ATOM     33  C   UNL     1      10.663  11.582  18.479  0.00  0.00    +0.000 A 
ENDBRANCH  27  28
ENDBRANCH  26  27
ENDBRANCH  24  26
ENDBRANCH  21  22
BRANCH  21  34
ATOM     34  C   UNL     1       7.009   4.462  16.867  0.00  0.00    +0.000 C 
BRANCH  34  35
ATOM     35  C   UNL     1       6.200   3.795  15.753  0.00  0.00    +0.000 C 
BRANCH  35  36
ATOM     36  C   UNL     1       6.634   4.268  14.381  0.00  0.00    +0.000 C 
ATOM     37  N   UNL     1       6.332   3.404  13.364  0.00  0.00    +0.000 N 
ATOM     38  O   UNL     1       7.186   5.344  14.154  0.00  0.00    +0.000 OA
ATOM     39  H   UNL     1       5.937   2.493  13.516  0.00  0.00    +0.000 HD
ATOM     40  H   UNL     1       6.611   3.670  12.426  0.00  0.00    +0.000 HD
ENDBRANCH  35  36
ENDBRANCH  34  35
ENDBRANCH  21  34
ENDBRANCH   2  21
TORSDOF 16
ENDMDL
MODEL 6
REMARK VINA RESULT:      -7.7      2.560      4.797
REMARK  Name = 
REMARK  18 active torsions:
REMARK  status: ('A' for Active; 'I' for Inactive)
REMARK    1  A    between atoms: C_1  and  O_2
REMARK    2  A    between atoms: O_2  and  C_3
REMARK    3  A    between atoms: C_3  and  C_5
REMARK    4  A    between atoms: C_5  and  C_6
REMARK    5  A    between atoms: C_6  and  O_7
REMARK    6  A    between atoms: C_6  and  C_8
REMARK    7  A    between atoms: C_8  and  C_9
REMARK    8  A    between atoms: C_8  and  N_16
REMARK    9  A    between atoms: C_9  and  C_10
REMARK   10  A    between atoms: C_17  and  C_19
REMARK   11  A    between atoms: C_19  and  C_20
REMARK   12  A    between atoms: C_19  and  N_25
REMARK   13  A    between atoms: C_20  and  C_21
REMARK   14  A    between atoms: C_21  and  C_22
REMARK   15  A    between atoms: N_25  and  C_26
REMARK   16  A    between atoms: C_27  and  O_29
REMARK   17  A    between atoms: O_29  and  C_30
REMARK   18  A    between atoms: C_30  and  C_31
REMARK                            x       y       z     vdW  Elec       q    Type
REMARK                         _______ _______ _______ _____ _____    ______ ____
ROOT
ATOM      1  N   UNL     1       2.284   7.756  18.971  0.00  0.00    +0.000 N 
ATOM      2  C   UNL     1       1.765   8.999  18.642  0.00  0.00    +0.000 C 
ATOM      3  O   UNL     1       1.932   9.505  17.536  0.00  0.00    +0.000 OA
ATOM      4  H   UNL     1       1.896   7.305  19.788  0.00  0.00    +0.000 HD
ENDROOT
BRANCH   1   5
ATOM      5  C   UNL     1       2.942   6.859  17.988  0.00  0.00    +0.000 C 
BRANCH   5   6
ATOM      6  C   UNL     1       4.361   7.354  17.611  0.00  0.00    +0.000 C 
BRANCH   6   7
ATOM      7  C   UNL     1       5.264   6.321  16.999  0.00  0.00    +0.000 A 
ATOM      8  C   UNL     1       5.140   5.970  15.649  0.00  0.00    +0.000 A 
ATOM      9  C   UNL     1       5.971   4.997  15.101  0.00  0.00    +0.000 A 
ATOM     10  C   UNL     1       6.941   4.382  15.892  0.00  0.00    +0.000 A 
ATOM     11  C   UNL     1       7.088   4.750  17.230  0.00  0.00    +0.000 A 
ATOM     12  C   UNL     1       6.257   5.719  17.780  0.00  0.00    +0.000 A 
ENDBRANCH   6   7
ENDBRANCH   5   6
BRANCH   5  13
ATOM     13  C   UNL     1       2.926   5.379  18.506  0.00  0.00    +0.000 C 
BRANCH  13  14
ATOM     14  O   UNL     1       1.973   4.639  17.723  0.00  0.00    +0.000 OA
ATOM     15  H   UNL     1       1.539   3.966  18.271  0.00  0.00    +0.000 HD
ENDBRANCH  13  14
BRANCH  13  16
ATOM     16  C   UNL     1       2.608   5.270  19.998  0.00  0.00    +0.000 C 
BRANCH  16  17
ATOM     17  C   UNL     1       2.600   3.854  20.516  0.00  0.00    +0.000 C 
ATOM     18  O   UNL     1       2.262   3.567  21.658  0.00  0.00    +0.000 OA
BRANCH  17  20
ATOM     19  C   UNL     1       4.310   2.336  20.008  0.00  0.00    +0.000 C 
ATOM     20  O   UNL     1       3.095   2.978  19.604  0.00  0.00    +0.000 OA
ENDBRANCH  17  20
ENDBRANCH  16  17
ENDBRANCH  13  16
ENDBRANCH   5  13
ENDBRANCH   1   5
BRANCH   2  21
ATOM     21  C   UNL     1       0.970   9.714  19.771  0.00  0.00    +0.000 C 
BRANCH  21  22
ATOM     22  N   UNL     1      -0.295  10.358  19.330  0.00  0.00    +0.000 N 
ATOM     23  C   UNL     1      -1.074   9.780  18.240  0.00  0.00    +0.000 C 
ATOM     24  C   UNL     1      -0.569  11.666  19.726  0.00  0.00    +0.000 C 
ATOM     25  O   UNL     1       0.110  12.294  20.529  0.00  0.00    +0.000 OA
BRANCH  24  26
ATOM     26  O   UNL     1      -1.703  12.144  19.146  0.00  0.00    +0.000 OA
BRANCH  26  27
ATOM     27  C   UNL     1      -2.796  12.475  20.010  0.00  0.00    +0.000 C 
BRANCH  27  28
ATOM     28  C   UNL     1      -4.113  12.230  19.321  0.00  0.00    +0.000 A 
ATOM     29  C   UNL     1      -5.317  12.681  19.882  0.00  0.00    +0.000 A 
ATOM     30  C   UNL     1      -6.532  12.461  19.226  0.00  0.00    +0.000 A 
ATOM     31  C   UNL     1      -6.555  11.782  18.009  0.00  0.00    +0.000 A 
ATOM     32  C   UNL     1      -5.365  11.321  17.449  0.00  0.00    +0.000 A 
ATOM     33  C   UNL     1      -4.151  11.540  18.103  0.00  0.00    +0.000 A 
ENDBRANCH  27  28
ENDBRANCH  26  27
ENDBRANCH  24  26
ENDBRANCH  21  22
BRANCH  21  34
ATOM     34  C   UNL     1       0.788   8.816  21.015  0.00  0.00    +0.000 C 
BRANCH  34  35
ATOM     35  C   UNL     1      -0.534   8.988  21.763  0.00  0.00    +0.000 C 
BRANCH  35  36
ATOM     36  C   UNL     1      -0.374   9.847  23.002  0.00  0.00    +0.000 C 
ATOM     37  N   UNL     1      -1.249  10.895  23.078  0.00  0.00    +0.000 N 
ATOM     38  O   UNL     1       0.439   9.635  23.899  0.00  0.00    +0.000 OA
ATOM     39  H   UNL     1      -1.887  11.135  22.339  0.00  0.00    +0.000 HD
ATOM     40  H   UNL     1      -1.176  11.507  23.884  0.00  0.00    +0.000 HD
ENDBRANCH  35  36
ENDBRANCH  34  35
ENDBRANCH  21  34
ENDBRANCH   2  21
TORSDOF 16
ENDMDL
MODEL 7
REMARK VINA RESULT:      -7.7      4.147     10.593
REMARK  Name = 
REMARK  18 active torsions:
REMARK  status: ('A' for Active; 'I' for Inactive)
REMARK    1  A    between atoms: C_1  and  O_2
REMARK    2  A    between atoms: O_2  and  C_3
REMARK    3  A    between atoms: C_3  and  C_5
REMARK    4  A    between atoms: C_5  and  C_6
REMARK    5  A    between atoms: C_6  and  O_7
REMARK    6  A    between atoms: C_6  and  C_8
REMARK    7  A    between atoms: C_8  and  C_9
REMARK    8  A    between atoms: C_8  and  N_16
REMARK    9  A    between atoms: C_9  and  C_10
REMARK   10  A    between atoms: C_17  and  C_19
REMARK   11  A    between atoms: C_19  and  C_20
REMARK   12  A    between atoms: C_19  and  N_25
REMARK   13  A    between atoms: C_20  and  C_21
REMARK   14  A    between atoms: C_21  and  C_22
REMARK   15  A    between atoms: N_25  and  C_26
REMARK   16  A    between atoms: C_27  and  O_29
REMARK   17  A    between atoms: O_29  and  C_30
REMARK   18  A    between atoms: C_30  and  C_31
REMARK                            x       y       z     vdW  Elec       q    Type
REMARK                         _______ _______ _______ _____ _____    ______ ____
ROOT
ATOM      1  N   UNL     1      -0.654  12.374  21.062  0.00  0.00    +0.000 N 
ATOM      2  C   UNL     1       0.503  11.782  20.581  0.00  0.00    +0.000 C 
ATOM      3  O   UNL     1       1.620  12.130  20.954  0.00  0.00    +0.000 OA
ATOM      4  H   UNL     1      -1.517  11.871  20.909  0.00  0.00    +0.000 HD
ENDROOT
BRANCH   1   5
ATOM      5  C   UNL     1      -0.668  13.358  22.174  0.00  0.00    +0.000 C 
BRANCH   5   6
ATOM      6  C   UNL     1      -1.165  14.750  21.709  0.00  0.00    +0.000 C 
BRANCH   6   7
ATOM      7  C   UNL     1      -0.321  15.421  20.662  0.00  0.00    +0.000 A 
ATOM      8  C   UNL     1      -0.894  15.892  19.474  0.00  0.00    +0.000 A 
ATOM      9  C   UNL     1      -0.096  16.493  18.504  0.00  0.00    +0.000 A 
ATOM     10  C   UNL     1       1.273  16.643  18.724  0.00  0.00    +0.000 A 
ATOM     11  C   UNL     1       1.843  16.203  19.918  0.00  0.00    +0.000 A 
ATOM     12  C   UNL     1       1.048  15.599  20.887  0.00  0.00    +0.000 A 
ENDBRANCH   6   7
ENDBRANCH   5   6
BRANCH   5  13
ATOM     13  C   UNL     1      -1.477  12.793  23.392  0.00  0.00    +0.000 C 
BRANCH  13  14
ATOM     14  O   UNL     1      -1.673  11.383  23.185  0.00  0.00    +0.000 OA
ATOM     15  H   UNL     1      -0.838  10.963  22.923  0.00  0.00    +0.000 HD
ENDBRANCH  13  14
BRANCH  13  16
ATOM     16  C   UNL     1      -2.815  13.503  23.605  0.00  0.00    +0.000 C 
BRANCH  16  17
ATOM     17  C   UNL     1      -4.004  12.577  23.588  0.00  0.00    +0.000 C 
ATOM     18  O   UNL     1      -4.442  12.042  24.599  0.00  0.00    +0.000 OA
BRANCH  17  20
ATOM     19  C   UNL     1      -5.549  13.176  21.933  0.00  0.00    +0.000 C 
ATOM     20  O   UNL     1      -4.450  12.346  22.326  0.00  0.00    +0.000 OA
ENDBRANCH  17  20
ENDBRANCH  16  17
ENDBRANCH  13  16
ENDBRANCH   5  13
ENDBRANCH   1   5
BRANCH   2  21
ATOM     21  C   UNL     1       0.293  10.656  19.529  0.00  0.00    +0.000 C 
BRANCH  21  22
ATOM     22  N   UNL     1       0.885   9.343  19.895  0.00  0.00    +0.000 N 
ATOM     23  C   UNL     1       0.805   8.857  21.268  0.00  0.00    +0.000 C 
ATOM     24  C   UNL     1       1.783   8.732  19.022  0.00  0.00    +0.000 C 
ATOM     25  O   UNL     1       2.032   9.145  17.896  0.00  0.00    +0.000 OA
BRANCH  24  26
ATOM     26  O   UNL     1       2.317   7.600  19.555  0.00  0.00    +0.000 OA
BRANCH  26  27
ATOM     27  C   UNL     1       2.747   6.581  18.644  0.00  0.00    +0.000 C 
BRANCH  27  28
ATOM     28  C   UNL     1       2.094   5.264  18.971  0.00  0.00    +0.000 A 
ATOM     29  C   UNL     1       1.808   4.329  17.964  0.00  0.00    +0.000 A 
ATOM     30  C   UNL     1       1.215   3.104  18.282  0.00  0.00    +0.000 A 
ATOM     31  C   UNL     1       0.895   2.805  19.605  0.00  0.00    +0.000 A 
ATOM     32  C   UNL     1       1.166   3.732  20.611  0.00  0.00    +0.000 A 
ATOM     33  C   UNL     1       1.758   4.956  20.295  0.00  0.00    +0.000 A 
ENDBRANCH  27  28
ENDBRANCH  26  27
ENDBRANCH  24  26
ENDBRANCH  21  22
BRANCH  21  34
ATOM     34  C   UNL     1      -1.180  10.549  19.076  0.00  0.00    +0.000 C 
BRANCH  34  35
ATOM     35  C   UNL     1      -1.393  10.176  17.609  0.00  0.00    +0.000 C 
BRANCH  35  36
ATOM     36  C   UNL     1      -2.687  10.745  17.063  0.00  0.00    +0.000 C 
ATOM     37  N   UNL     1      -2.571  11.330  15.831  0.00  0.00    +0.000 N 
ATOM     38  O   UNL     1      -3.774  10.681  17.633  0.00  0.00    +0.000 OA
ATOM     39  H   UNL     1      -1.692  11.454  15.361  0.00  0.00    +0.000 HD
ATOM     40  H   UNL     1      -3.408  11.736  15.426  0.00  0.00    +0.000 HD
ENDBRANCH  35  36
ENDBRANCH  34  35
ENDBRANCH  21  34
ENDBRANCH   2  21
TORSDOF 16
ENDMDL
MODEL 8
REMARK VINA RESULT:      -7.7      2.907      8.386
REMARK  Name = 
REMARK  18 active torsions:
REMARK  status: ('A' for Active; 'I' for Inactive)
REMARK    1  A    between atoms: C_1  and  O_2
REMARK    2  A    between atoms: O_2  and  C_3
REMARK    3  A    between atoms: C_3  and  C_5
REMARK    4  A    between atoms: C_5  and  C_6
REMARK    5  A    between atoms: C_6  and  O_7
REMARK    6  A    between atoms: C_6  and  C_8
REMARK    7  A    between atoms: C_8  and  C_9
REMARK    8  A    between atoms: C_8  and  N_16
REMARK    9  A    between atoms: C_9  and  C_10
REMARK   10  A    between atoms: C_17  and  C_19
REMARK   11  A    between atoms: C_19  and  C_20
REMARK   12  A    between atoms: C_19  and  N_25
REMARK   13  A    between atoms: C_20  and  C_21
REMARK   14  A    between atoms: C_21  and  C_22
REMARK   15  A    between atoms: N_25  and  C_26
REMARK   16  A    between atoms: C_27  and  O_29
REMARK   17  A    between atoms: O_29  and  C_30
REMARK   18  A    between atoms: C_30  and  C_31
REMARK                            x       y       z     vdW  Elec       q    Type
REMARK                         _______ _______ _______ _____ _____    ______ ____
ROOT
ATOM      1  N   UNL     1       4.202   6.755  17.654  0.00  0.00    +0.000 N 
ATOM      2  C   UNL     1       5.257   6.003  18.146  0.00  0.00    +0.000 C 
ATOM      3  O   UNL     1       5.143   5.287  19.137  0.00  0.00    +0.000 OA
ATOM      4  H   UNL     1       4.297   7.106  16.712  0.00  0.00    +0.000 HD
ENDROOT
BRANCH   1   5
ATOM      5  C   UNL     1       2.813   6.650  18.168  0.00  0.00    +0.000 C 
BRANCH   5   6
ATOM      6  C   UNL     1       2.770   6.082  19.609  0.00  0.00    +0.000 C 
BRANCH   6   7
ATOM      7  C   UNL     1       2.113   4.740  19.755  0.00  0.00    +0.000 A 
ATOM      8  C   UNL     1       1.635   4.050  18.633  0.00  0.00    +0.000 A 
ATOM      9  C   UNL     1       1.011   2.815  18.786  0.00  0.00    +0.000 A 
ATOM     10  C   UNL     1       0.875   2.255  20.056  0.00  0.00    +0.000 A 
ATOM     11  C   UNL     1       1.375   2.924  21.172  0.00  0.00    +0.000 A 
ATOM     12  C   UNL     1       1.997   4.159  21.023  0.00  0.00    +0.000 A 
ENDBRANCH   6   7
ENDBRANCH   5   6
BRANCH   5  13
ATOM     13  C   UNL     1       2.075   8.027  18.029  0.00  0.00    +0.000 C 
BRANCH  13  14
ATOM     14  O   UNL     1       2.966   8.950  17.380  0.00  0.00    +0.000 OA
ATOM     15  H   UNL     1       3.773   9.064  17.907  0.00  0.00    +0.000 HD
ENDBRANCH  13  14
BRANCH  13  16
ATOM     16  C   UNL     1       1.591   8.586  19.367  0.00  0.00    +0.000 C 
BRANCH  16  17
ATOM     17  C   UNL     1       0.648   9.754  19.233  0.00  0.00    +0.000 C 
ATOM     18  O   UNL     1       0.707  10.551  18.305  0.00  0.00    +0.000 OA
BRANCH  17  20
ATOM     19  C   UNL     1       0.047   8.882  21.322  0.00  0.00    +0.000 C 
ATOM     20  O   UNL     1      -0.187   9.856  20.299  0.00  0.00    +0.000 OA
ENDBRANCH  17  20
ENDBRANCH  16  17
ENDBRANCH  13  16
ENDBRANCH   5  13
ENDBRANCH   1   5
BRANCH   2  21
ATOM     21  C   UNL     1       6.596   6.136  17.367  0.00  0.00    +0.000 C 
BRANCH  21  22
ATOM     22  N   UNL     1       7.688   6.810  18.118  0.00  0.00    +0.000 N 
ATOM     23  C   UNL     1       8.278   6.172  19.290  0.00  0.00    +0.000 C 
ATOM     24  C   UNL     1       7.927   8.166  17.904  0.00  0.00    +0.000 C 
ATOM     25  O   UNL     1       7.374   8.830  17.036  0.00  0.00    +0.000 OA
BRANCH  24  26
ATOM     26  O   UNL     1       8.878   8.652  18.747  0.00  0.00    +0.000 OA
BRANCH  26  27
ATOM     27  C   UNL     1       8.658   9.949  19.312  0.00  0.00    +0.000 C 
BRANCH  27  28
ATOM     28  C   UNL     1       9.869  10.825  19.125  0.00  0.00    +0.000 A 
ATOM     29  C   UNL     1      10.589  11.309  20.228  0.00  0.00    +0.000 A 
ATOM     30  C   UNL     1      11.720  12.108  20.041  0.00  0.00    +0.000 A 
ATOM     31  C   UNL     1      12.137  12.439  18.752  0.00  0.00    +0.000 A 
ATOM     32  C   UNL     1      11.422  11.970  17.650  0.00  0.00    +0.000 A 
ATOM     33  C   UNL     1      10.292  11.171  17.835  0.00  0.00    +0.000 A 
ENDBRANCH  27  28
ENDBRANCH  26  27
ENDBRANCH  24  26
ENDBRANCH  21  22
BRANCH  21  34
ATOM     34  C   UNL     1       7.036   4.799  16.731  0.00  0.00    +0.000 C 
BRANCH  34  35
ATOM     35  C   UNL     1       7.200   4.815  15.211  0.00  0.00    +0.000 C 
BRANCH  35  36
ATOM     36  C   UNL     1       6.008   4.198  14.509  0.00  0.00    +0.000 C 
ATOM     37  N   UNL     1       6.325   3.458  13.403  0.00  0.00    +0.000 N 
ATOM     38  O   UNL     1       4.842   4.304  14.886  0.00  0.00    +0.000 OA
ATOM     39  H   UNL     1       7.256   3.396  13.030  0.00  0.00    +0.000 HD
ATOM     40  H   UNL     1       5.560   3.032  12.890  0.00  0.00    +0.000 HD
ENDBRANCH  35  36
ENDBRANCH  34  35
ENDBRANCH  21  34
ENDBRANCH   2  21
TORSDOF 16
ENDMDL
MODEL 9
REMARK VINA RESULT:      -7.6      3.377      6.242
REMARK  Name = 
REMARK  18 active torsions:
REMARK  status: ('A' for Active; 'I' for Inactive)
REMARK    1  A    between atoms: C_1  and  O_2
REMARK    2  A    between atoms: O_2  and  C_3
REMARK    3  A    between atoms: C_3  and  C_5
REMARK    4  A    between atoms: C_5  and  C_6
REMARK    5  A    between atoms: C_6  and  O_7
REMARK    6  A    between atoms: C_6  and  C_8
REMARK    7  A    between atoms: C_8  and  C_9
REMARK    8  A    between atoms: C_8  and  N_16
REMARK    9  A    between atoms: C_9  and  C_10
REMARK   10  A    between atoms: C_17  and  C_19
REMARK   11  A    between atoms: C_19  and  C_20
REMARK   12  A    between atoms: C_19  and  N_25
REMARK   13  A    between atoms: C_20  and  C_21
REMARK   14  A    between atoms: C_21  and  C_22
REMARK   15  A    between atoms: N_25  and  C_26
REMARK   16  A    between atoms: C_27  and  O_29
REMARK   17  A    between atoms: O_29  and  C_30
REMARK   18  A    between atoms: C_30  and  C_31
REMARK                            x       y       z     vdW  Elec       q    Type
REMARK                         _______ _______ _______ _____ _____    ______ ____
ROOT
ATOM      1  N   UNL     1       1.935   8.147  18.382  0.00  0.00    +0.000 N 
ATOM      2  C   UNL     1       1.400   8.801  19.481  0.00  0.00    +0.000 C 
ATOM      3  O   UNL     1       1.527   8.370  20.624  0.00  0.00    +0.000 OA
ATOM      4  H   UNL     1       2.010   8.683  17.529  0.00  0.00    +0.000 HD
ENDROOT
BRANCH   1   5
ATOM      5  C   UNL     1       2.836   6.971  18.489  0.00  0.00    +0.000 C 
BRANCH   5   6
ATOM      6  C   UNL     1       2.151   5.671  17.997  0.00  0.00    +0.000 C 
BRANCH   6   7
ATOM      7  C   UNL     1       1.886   4.640  19.057  0.00  0.00    +0.000 A 
ATOM      8  C   UNL     1       1.332   3.397  18.726  0.00  0.00    +0.000 A 
ATOM      9  C   UNL     1       1.074   2.459  19.723  0.00  0.00    +0.000 A 
ATOM     10  C   UNL     1       1.383   2.751  21.051  0.00  0.00    +0.000 A 
ATOM     11  C   UNL     1       1.963   3.975  21.382  0.00  0.00    +0.000 A 
ATOM     12  C   UNL     1       2.218   4.915  20.389  0.00  0.00    +0.000 A 
ENDBRANCH   6   7
ENDBRANCH   5   6
BRANCH   5  13
ATOM     13  C   UNL     1       4.196   7.260  17.764  0.00  0.00    +0.000 C 
BRANCH  13  14
ATOM     14  O   UNL     1       3.917   7.543  16.382  0.00  0.00    +0.000 OA
ATOM     15  H   UNL     1       3.700   8.483  16.269  0.00  0.00    +0.000 HD
ENDBRANCH  13  14
BRANCH  13  16
ATOM     16  C   UNL     1       5.200   6.114  17.894  0.00  0.00    +0.000 C 
BRANCH  16  17
ATOM     17  C   UNL     1       5.790   5.671  16.580  0.00  0.00    +0.000 C 
ATOM     18  O   UNL     1       5.103   5.358  15.616  0.00  0.00    +0.000 OA
BRANCH  17  20
ATOM     19  C   UNL     1       7.638   5.031  17.868  0.00  0.00    +0.000 C 
ATOM     20  O   UNL     1       7.144   5.574  16.640  0.00  0.00    +0.000 OA
ENDBRANCH  17  20
ENDBRANCH  16  17
ENDBRANCH  13  16
ENDBRANCH   5  13
ENDBRANCH   1   5
BRANCH   2  21
ATOM     21  C   UNL     1       0.616  10.107  19.169  0.00  0.00    +0.000 C 
BRANCH  21  22
ATOM     22  N   UNL     1       1.445  11.342  19.157  0.00  0.00    +0.000 N 
ATOM     23  C   UNL     1       2.387  11.586  18.070  0.00  0.00    +0.000 C 
ATOM     24  C   UNL     1       1.559  12.097  20.322  0.00  0.00    +0.000 C 
ATOM     25  O   UNL     1       0.916  11.884  21.343  0.00  0.00    +0.000 OA
BRANCH  24  26
ATOM     26  O   UNL     1       2.439  13.125  20.176  0.00  0.00    +0.000 OA
BRANCH  26  27
ATOM     27  C   UNL     1       1.960  14.447  20.447  0.00  0.00    +0.000 C 
BRANCH  27  28
ATOM     28  C   UNL     1       2.212  15.357  19.273  0.00  0.00    +0.000 A 
ATOM     29  C   UNL     1       3.260  15.105  18.375  0.00  0.00    +0.000 A 
ATOM     30  C   UNL     1       3.475  15.948  17.281  0.00  0.00    +0.000 A 
ATOM     31  C   UNL     1       2.651  17.055  17.080  0.00  0.00    +0.000 A 
ATOM     32  C   UNL     1       1.613  17.319  17.973  0.00  0.00    +0.000 A 
ATOM     33  C   UNL     1       1.398  16.477  19.065  0.00  0.00    +0.000 A 
ENDBRANCH  27  28
ENDBRANCH  26  27
ENDBRANCH  24  26
ENDBRANCH  21  22
BRANCH  21  34
ATOM     34  C   UNL     1      -0.275   9.967  17.915  0.00  0.00    +0.000 C 
BRANCH  34  35
ATOM     35  C   UNL     1      -1.768  10.212  18.138  0.00  0.00    +0.000 C 
BRANCH  35  36
ATOM     36  C   UNL     1      -2.261  11.426  17.378  0.00  0.00    +0.000 C 
ATOM     37  N   UNL     1      -1.383  12.476  17.361  0.00  0.00    +0.000 N 
ATOM     38  O   UNL     1      -3.337  11.492  16.788  0.00  0.00    +0.000 OA
ATOM     39  H   UNL     1      -0.522  12.482  17.880  0.00  0.00    +0.000 HD
ATOM     40  H   UNL     1      -1.671  13.318  16.873  0.00  0.00    +0.000 HD
ENDBRANCH  35  36
ENDBRANCH  34  35
ENDBRANCH  21  34
ENDBRANCH   2  21
TORSDOF 16
ENDMDL
