MODEL 1
REMARK VINA RESULT:      -7.3      0.000      0.000
REMARK  Name = 
REMARK  5 active torsions:
REMARK  status: ('A' for Active; 'I' for Inactive)
REMARK    1  A    between atoms: C_1  and  O_2
REMARK    2  A    between atoms: O_2  and  C_3
REMARK    3  A    between atoms: C_8  and  C_9
REMARK    4  A    between atoms: N_11  and  C_12
REMARK    5  A    between atoms: C_12  and  C_13
REMARK                            x       y       z     vdW  Elec       q    Type
REMARK                         _______ _______ _______ _____ _____    ______ ____
ROOT
ATOM      1  C   UNL     1       2.001   8.562  18.477  0.00  0.00    +0.000 C 
ATOM      2  O   UNL     1       2.210   8.844  17.292  0.00  0.00    +0.000 OA
ATOM      3  N   UNL     1       1.454   9.480  19.355  0.00  0.00    +0.000 N 
ATOM      4  C   UNL     1       0.958  10.767  18.849  0.00  0.00    +0.000 C 
ATOM      5  C   UNL     1      -0.536  10.952  19.186  0.00  0.00    +0.000 C 
ATOM      6  N   UNL     1      -0.740  10.735  20.619  0.00  0.00    +0.000 N 
ATOM      7  C   UNL     1      -1.474  11.607  21.376  0.00  0.00    +0.000 A 
ATOM      8  N   UNL     1      -1.991  12.701  20.793  0.00  0.00    +0.000 NA
ATOM      9  C   UNL     1      -2.673  13.567  21.566  0.00  0.00    +0.000 A 
ATOM     10  C   UNL     1      -2.862  13.394  22.912  0.00  0.00    +0.000 A 
ATOM     11  C   UNL     1      -2.306  12.253  23.427  0.00  0.00    +0.000 A 
ATOM     12  N   UNL     1      -1.622  11.360  22.688  0.00  0.00    +0.000 NA
ATOM     13  C   UNL     1      -0.241   9.479  21.178  0.00  0.00    +0.000 C 
ATOM     14  C   UNL     1       1.242   9.292  20.799  0.00  0.00    +0.000 C 
ENDROOT
BRANCH   1  15
ATOM     15  C   UNL     1       2.418   7.186  19.002  0.00  0.00    +0.000 C 
BRANCH  15  18
ATOM     16  C   UNL     1       3.687   5.448  17.777  0.00  0.00    +0.000 C 
ATOM     17  O   UNL     1       2.762   4.642  17.864  0.00  0.00    +0.000 OA
ATOM     18  N   UNL     1       3.601   6.706  18.315  0.00  0.00    +0.000 N 
ATOM     19  H   UNL     1       4.394   7.336  18.223  0.00  0.00    +0.000 HD
BRANCH  16  25
ATOM     20  C   UNL     1       6.189   4.788  17.681  0.00  0.00    +0.000 A 
ATOM     21  C   UNL     1       7.299   4.483  16.875  0.00  0.00    +0.000 A 
ATOM     22  C   UNL     1       7.181   4.399  15.486  0.00  0.00    +0.000 A 
ATOM     23  C   UNL     1       5.956   4.632  14.879  0.00  0.00    +0.000 A 
ATOM     24  C   UNL     1       4.851   4.966  15.664  0.00  0.00    +0.000 A 
ATOM     25  C   UNL     1       4.950   5.060  17.066  0.00  0.00    +0.000 A 
BRANCH  20  27
ATOM     26  C   UNL     1       7.356   5.659  19.561  0.00  0.00    +0.000 C 
ATOM     27  O   UNL     1       6.281   4.870  19.051  0.00  0.00    +0.000 OA
ENDBRANCH  20  27
ENDBRANCH  16  25
ENDBRANCH  15  18
ENDBRANCH   1  15
TORSDOF 4
ENDMDL
MODEL 2
REMARK VINA RESULT:      -7.2      5.996      8.692
REMARK  Name = 
REMARK  5 active torsions:
REMARK  status: ('A' for Active; 'I' for Inactive)
REMARK    1  A    between atoms: C_1  and  O_2
REMARK    2  A    between atoms: O_2  and  C_3
REMARK    3  A    between atoms: C_8  and  C_9
REMARK    4  A    between atoms: N_11  and  C_12
REMARK    5  A    between atoms: C_12  and  C_13
REMARK                            x       y       z     vdW  Elec       q    Type
REMARK                         _______ _______ _______ _____ _____    ______ ____
ROOT
ATOM      1  C   UNL     1       7.706   7.330  18.230  0.00  0.00    +0.000 C 
ATOM      2  O   UNL     1       8.716   6.980  18.852  0.00  0.00    +0.000 OA
ATOM      3  N   UNL     1       6.669   6.452  17.977  0.00  0.00    +0.000 N 
ATOM      4  C   UNL     1       6.679   5.117  18.590  0.00  0.00    +0.000 C 
ATOM      5  C   UNL     1       5.418   4.897  19.451  0.00  0.00    +0.000 C 
ATOM      6  N   UNL     1       4.228   5.199  18.655  0.00  0.00    +0.000 N 
ATOM      7  C   UNL     1       3.154   4.351  18.624  0.00  0.00    +0.000 A 
ATOM      8  N   UNL     1       3.212   3.202  19.318  0.00  0.00    +0.000 NA
ATOM      9  C   UNL     1       2.161   2.364  19.239  0.00  0.00    +0.000 A 
ATOM     10  C   UNL     1       1.045   2.617  18.487  0.00  0.00    +0.000 A 
ATOM     11  C   UNL     1       1.066   3.809  17.813  0.00  0.00    +0.000 A 
ATOM     12  N   UNL     1       2.092   4.678  17.869  0.00  0.00    +0.000 NA
ATOM     13  C   UNL     1       4.180   6.507  18.002  0.00  0.00    +0.000 C 
ATOM     14  C   UNL     1       5.465   6.725  17.177  0.00  0.00    +0.000 C 
ENDROOT
BRANCH   1  15
ATOM     15  C   UNL     1       7.632   8.753  17.669  0.00  0.00    +0.000 C 
BRANCH  15  18
ATOM     16  C   UNL     1       8.746  10.937  18.017  0.00  0.00    +0.000 C 
ATOM     17  O   UNL     1       7.898  11.531  17.353  0.00  0.00    +0.000 OA
ATOM     18  N   UNL     1       8.692   9.580  18.210  0.00  0.00    +0.000 N 
ATOM     19  H   UNL     1       9.419   9.132  18.762  0.00  0.00    +0.000 HD
BRANCH  16  25
ATOM     20  C   UNL     1       9.819  12.394  19.869  0.00  0.00    +0.000 A 
ATOM     21  C   UNL     1      10.949  13.109  20.302  0.00  0.00    +0.000 A 
ATOM     22  C   UNL     1      12.133  13.105  19.562  0.00  0.00    +0.000 A 
ATOM     23  C   UNL     1      12.203  12.398  18.370  0.00  0.00    +0.000 A 
ATOM     24  C   UNL     1      11.079  11.708  17.911  0.00  0.00    +0.000 A 
ATOM     25  C   UNL     1       9.875  11.703  18.642  0.00  0.00    +0.000 A 
BRANCH  20  27
ATOM     26  C   UNL     1       8.726  11.854  21.911  0.00  0.00    +0.000 C 
ATOM     27  O   UNL     1       8.646  12.379  20.585  0.00  0.00    +0.000 OA
ENDBRANCH  20  27
ENDBRANCH  16  25
ENDBRANCH  15  18
ENDBRANCH   1  15
TORSDOF 4
ENDMDL
MODEL 3
REMARK VINA RESULT:      -7.2      2.626      4.687
REMARK  Name = 
REMARK  5 active torsions:
REMARK  status: ('A' for Active; 'I' for Inactive)
REMARK    1  A    between atoms: C_1  and  O_2
REMARK    2  A    between atoms: O_2  and  C_3
REMARK    3  A    between atoms: C_8  and  C_9
REMARK    4  A    between atoms: N_11  and  C_12
REMARK    5  A    between atoms: C_12  and  C_13
REMARK                            x       y       z     vdW  Elec       q    Type
REMARK                         _______ _______ _______ _____ _____    ______ ____
ROOT
ATOM      1  C   UNL     1       2.566   2.889  19.014  0.00  0.00    +0.000 C 
ATOM      2  O   UNL     1       2.304   1.980  19.809  0.00  0.00    +0.000 OA
ATOM      3  N   UNL     1       1.952   4.125  19.098  0.00  0.00    +0.000 N 
ATOM      4  C   UNL     1       1.088   4.433  20.246  0.00  0.00    +0.000 C 
ATOM      5  C   UNL     1       1.602   5.674  21.004  0.00  0.00    +0.000 C 
ATOM      6  N   UNL     1       1.787   6.777  20.061  0.00  0.00    +0.000 N 
ATOM      7  C   UNL     1       1.309   8.032  20.326  0.00  0.00    +0.000 A 
ATOM      8  N   UNL     1       0.630   8.244  21.465  0.00  0.00    +0.000 NA
ATOM      9  C   UNL     1       0.133   9.475  21.686  0.00  0.00    +0.000 A 
ATOM     10  C   UNL     1       0.278  10.518  20.809  0.00  0.00    +0.000 A 
ATOM     11  C   UNL     1       0.984  10.220  19.675  0.00  0.00    +0.000 A 
ATOM     12  N   UNL     1       1.503   9.004  19.419  0.00  0.00    +0.000 NA
ATOM     13  C   UNL     1       2.618   6.515  18.886  0.00  0.00    +0.000 C 
ATOM     14  C   UNL     1       2.114   5.250  18.163  0.00  0.00    +0.000 C 
ENDROOT
BRANCH   1  15
ATOM     15  C   UNL     1       3.545   2.620  17.867  0.00  0.00    +0.000 C 
BRANCH  15  18
ATOM     16  C   UNL     1       5.376   4.129  18.571  0.00  0.00    +0.000 C 
ATOM     17  O   UNL     1       5.527   3.531  19.635  0.00  0.00    +0.000 OA
ATOM     18  N   UNL     1       4.424   3.753  17.659  0.00  0.00    +0.000 N 
ATOM     19  H   UNL     1       4.333   4.281  16.795  0.00  0.00    +0.000 HD
BRANCH  16  25
ATOM     20  C   UNL     1       6.139   6.120  17.103  0.00  0.00    +0.000 A 
ATOM     21  C   UNL     1       7.066   7.159  16.912  0.00  0.00    +0.000 A 
ATOM     22  C   UNL     1       8.060   7.422  17.857  0.00  0.00    +0.000 A 
ATOM     23  C   UNL     1       8.153   6.643  19.001  0.00  0.00    +0.000 A 
ATOM     24  C   UNL     1       7.258   5.587  19.190  0.00  0.00    +0.000 A 
ATOM     25  C   UNL     1       6.251   5.304  18.247  0.00  0.00    +0.000 A 
BRANCH  20  27
ATOM     26  C   UNL     1       5.586   5.455  14.887  0.00  0.00    +0.000 C 
ATOM     27  O   UNL     1       5.149   5.848  16.189  0.00  0.00    +0.000 OA
ENDBRANCH  20  27
ENDBRANCH  16  25
ENDBRANCH  15  18
ENDBRANCH   1  15
TORSDOF 4
ENDMDL
MODEL 4
REMARK VINA RESULT:      -7.2      3.526      9.014
REMARK  Name = 
REMARK  5 active torsions:
REMARK  status: ('A' for Active; 'I' for Inactive)
REMARK    1  A    between atoms: C_1  and  O_2
REMARK    2  A    between atoms: O_2  and  C_3
REMARK    3  A    between atoms: C_8  and  C_9
REMARK    4  A    between atoms: N_11  and  C_12
REMARK    5  A    between atoms: C_12  and  C_13
REMARK                            x       y       z     vdW  Elec       q    Type
REMARK                         _______ _______ _______ _____ _____    ______ ____
ROOT
ATOM      1  C   UNL     1      -0.433  11.024  22.256  0.00  0.00    +0.000 C 
ATOM      2  O   UNL     1      -0.792  10.691  23.391  0.00  0.00    +0.000 OA
ATOM      3  N   UNL     1       0.588  10.365  21.597  0.00  0.00    +0.000 N 
ATOM      4  C   UNL     1       1.160   9.142  22.176  0.00  0.00    +0.000 C 
ATOM      5  C   UNL     1       1.021   7.954  21.203  0.00  0.00    +0.000 C 
ATOM      6  N   UNL     1       1.566   8.329  19.898  0.00  0.00    +0.000 N 
ATOM      7  C   UNL     1       2.428   7.509  19.221  0.00  0.00    +0.000 A 
ATOM      8  N   UNL     1       2.802   6.349  19.785  0.00  0.00    +0.000 NA
ATOM      9  C   UNL     1       3.683   5.578  19.119  0.00  0.00    +0.000 A 
ATOM     10  C   UNL     1       4.220   5.917  17.906  0.00  0.00    +0.000 A 
ATOM     11  C   UNL     1       3.785   7.113  17.400  0.00  0.00    +0.000 A 
ATOM     12  N   UNL     1       2.902   7.910  18.029  0.00  0.00    +0.000 NA
ATOM     13  C   UNL     1       1.048   9.554  19.288  0.00  0.00    +0.000 C 
ATOM     14  C   UNL     1       1.160  10.722  20.288  0.00  0.00    +0.000 C 
ENDROOT
BRANCH   1  15
ATOM     15  C   UNL     1      -1.090  12.236  21.591  0.00  0.00    +0.000 C 
BRANCH  15  18
ATOM     16  C   UNL     1      -1.758  12.294  19.208  0.00  0.00    +0.000 C 
ATOM     17  O   UNL     1      -0.878  13.106  18.929  0.00  0.00    +0.000 OA
ATOM     18  N   UNL     1      -1.934  11.828  20.486  0.00  0.00    +0.000 N 
ATOM     19  H   UNL     1      -2.679  11.161  20.669  0.00  0.00    +0.000 HD
BRANCH  16  25
ATOM     20  C   UNL     1      -4.082  11.804  18.176  0.00  0.00    +0.000 A 
ATOM     21  C   UNL     1      -4.806  11.249  17.107  0.00  0.00    +0.000 A 
ATOM     22  C   UNL     1      -4.153  10.727  15.988  0.00  0.00    +0.000 A 
ATOM     23  C   UNL     1      -2.768  10.740  15.925  0.00  0.00    +0.000 A 
ATOM     24  C   UNL     1      -2.034  11.260  16.992  0.00  0.00    +0.000 A 
ATOM     25  C   UNL     1      -2.673  11.788  18.131  0.00  0.00    +0.000 A 
BRANCH  20  27
ATOM     26  C   UNL     1      -5.962  11.750  19.631  0.00  0.00    +0.000 C 
ATOM     27  O   UNL     1      -4.704  12.329  19.284  0.00  0.00    +0.000 OA
ENDBRANCH  20  27
ENDBRANCH  16  25
ENDBRANCH  15  18
ENDBRANCH   1  15
TORSDOF 4
ENDMDL
MODEL 5
REMARK VINA RESULT:      -7.1      6.556      9.365
REMARK  Name = 
REMARK  5 active torsions:
REMARK  status: ('A' for Active; 'I' for Inactive)
REMARK    1  A    between atoms: C_1  and  O_2
REMARK    2  A    between atoms: O_2  and  C_3
REMARK    3  A    between atoms: C_8  and  C_9
REMARK    4  A    between atoms: N_11  and  C_12
REMARK    5  A    between atoms: C_12  and  C_13
REMARK                            x       y       z     vdW  Elec       q    Type
REMARK                         _______ _______ _______ _____ _____    ______ ____
ROOT
ATOM      1  C   UNL     1       8.160   8.106  18.329  0.00  0.00    +0.000 C 
ATOM      2  O   UNL     1       9.094   7.999  19.131  0.00  0.00    +0.000 OA
ATOM      3  N   UNL     1       7.376   7.021  17.981  0.00  0.00    +0.000 N 
ATOM      4  C   UNL     1       7.539   5.746  18.691  0.00  0.00    +0.000 C 
ATOM      5  C   UNL     1       6.215   5.309  19.351  0.00  0.00    +0.000 C 
ATOM      6  N   UNL     1       5.147   5.324  18.352  0.00  0.00    +0.000 N 
ATOM      7  C   UNL     1       4.282   4.272  18.215  0.00  0.00    +0.000 A 
ATOM      8  N   UNL     1       4.441   3.191  18.997  0.00  0.00    +0.000 NA
ATOM      9  C   UNL     1       3.606   2.152  18.816  0.00  0.00    +0.000 A 
ATOM     10  C   UNL     1       2.610   2.136  17.876  0.00  0.00    +0.000 A 
ATOM     11  C   UNL     1       2.514   3.275  17.123  0.00  0.00    +0.000 A 
ATOM     12  N   UNL     1       3.324   4.338  17.275  0.00  0.00    +0.000 NA
ATOM     13  C   UNL     1       4.958   6.563  17.599  0.00  0.00    +0.000 C 
ATOM     14  C   UNL     1       6.299   7.005  16.978  0.00  0.00    +0.000 C 
ENDROOT
BRANCH   1  15
ATOM     15  C   UNL     1       7.908   9.456  17.653  0.00  0.00    +0.000 C 
BRANCH  15  18
ATOM     16  C   UNL     1       8.714  11.789  17.838  0.00  0.00    +0.000 C 
ATOM     17  O   UNL     1       7.788  12.216  17.150  0.00  0.00    +0.000 OA
ATOM     18  N   UNL     1       8.849  10.454  18.121  0.00  0.00    +0.000 N 
ATOM     19  H   UNL     1       9.634  10.148  18.689  0.00  0.00    +0.000 HD
BRANCH  16  25
ATOM     20  C   UNL     1      10.287  12.692  19.687  0.00  0.00    +0.000 A 
ATOM     21  C   UNL     1      11.198  13.687  20.079  0.00  0.00    +0.000 A 
ATOM     22  C   UNL     1      11.596  14.691  19.193  0.00  0.00    +0.000 A 
ATOM     23  C   UNL     1      11.080  14.724  17.907  0.00  0.00    +0.000 A 
ATOM     24  C   UNL     1      10.149  13.761  17.512  0.00  0.00    +0.000 A 
ATOM     25  C   UNL     1       9.733  12.742  18.391  0.00  0.00    +0.000 A 
BRANCH  20  27
ATOM     26  C   UNL     1       9.170  12.107  21.703  0.00  0.00    +0.000 C 
ATOM     27  O   UNL     1       9.886  11.691  20.540  0.00  0.00    +0.000 OA
ENDBRANCH  20  27
ENDBRANCH  16  25
ENDBRANCH  15  18
ENDBRANCH   1  15
TORSDOF 4
ENDMDL
MODEL 6
REMARK VINA RESULT:      -7.1      1.091      1.114
REMARK  Name = 
REMARK  5 active torsions:
REMARK  status: ('A' for Active; 'I' for Inactive)
REMARK    1  A    between atoms: C_1  and  O_2
REMARK    2  A    between atoms: O_2  and  C_3
REMARK    3  A    between atoms: C_8  and  C_9
REMARK    4  A    between atoms: N_11  and  C_12
REMARK    5  A    between atoms: C_12  and  C_13
REMARK                            x       y       z     vdW  Elec       q    Type
REMARK                         _______ _______ _______ _____ _____    ______ ____
ROOT
ATOM      1  C   UNL     1       1.845   9.101  18.393  0.00  0.00    +0.000 C 
ATOM      2  O   UNL     1       2.074   9.439  17.226  0.00  0.00    +0.000 OA
ATOM      3  N   UNL     1       1.271   9.972  19.300  0.00  0.00    +0.000 N 
ATOM      4  C   UNL     1       0.768  11.274  18.843  0.00  0.00    +0.000 C 
ATOM      5  C   UNL     1      -0.734  11.427  19.159  0.00  0.00    +0.000 C 
ATOM      6  N   UNL     1      -0.963  11.142  20.576  0.00  0.00    +0.000 N 
ATOM      7  C   UNL     1      -1.723  11.971  21.357  0.00  0.00    +0.000 A 
ATOM      8  N   UNL     1      -2.241  13.084  20.814  0.00  0.00    +0.000 NA
ATOM      9  C   UNL     1      -2.950  13.905  21.611  0.00  0.00    +0.000 A 
ATOM     10  C   UNL     1      -3.162  13.669  22.944  0.00  0.00    +0.000 A 
ATOM     11  C   UNL     1      -2.602  12.513  23.418  0.00  0.00    +0.000 A 
ATOM     12  N   UNL     1      -1.893  11.662  22.653  0.00  0.00    +0.000 NA
ATOM     13  C   UNL     1      -0.460   9.868  21.087  0.00  0.00    +0.000 C 
ATOM     14  C   UNL     1       1.033   9.715  20.730  0.00  0.00    +0.000 C 
ENDROOT
BRANCH   1  15
ATOM     15  C   UNL     1       2.270   7.707  18.863  0.00  0.00    +0.000 C 
BRANCH  15  18
ATOM     16  C   UNL     1       3.808   5.897  18.164  0.00  0.00    +0.000 C 
ATOM     17  O   UNL     1       3.426   5.156  19.068  0.00  0.00    +0.000 OA
ATOM     18  N   UNL     1       3.300   7.161  18.002  0.00  0.00    +0.000 N 
ATOM     19  H   UNL     1       3.651   7.739  17.243  0.00  0.00    +0.000 HD
BRANCH  16  25
ATOM     20  C   UNL     1       6.030   6.120  16.853  0.00  0.00    +0.000 A 
ATOM     21  C   UNL     1       6.897   5.565  15.897  0.00  0.00    +0.000 A 
ATOM     22  C   UNL     1       6.639   4.316  15.327  0.00  0.00    +0.000 A 
ATOM     23  C   UNL     1       5.503   3.609  15.693  0.00  0.00    +0.000 A 
ATOM     24  C   UNL     1       4.615   4.162  16.619  0.00  0.00    +0.000 A 
ATOM     25  C   UNL     1       4.857   5.421  17.202  0.00  0.00    +0.000 A 
BRANCH  20  27
ATOM     26  C   UNL     1       7.640   7.714  17.577  0.00  0.00    +0.000 C 
ATOM     27  O   UNL     1       6.268   7.345  17.431  0.00  0.00    +0.000 OA
ENDBRANCH  20  27
ENDBRANCH  16  25
ENDBRANCH  15  18
ENDBRANCH   1  15
TORSDOF 4
ENDMDL
MODEL 7
REMARK VINA RESULT:      -7.1      1.082      1.674
REMARK  Name = 
REMARK  5 active torsions:
REMARK  status: ('A' for Active; 'I' for Inactive)
REMARK    1  A    between atoms: C_1  and  O_2
REMARK    2  A    between atoms: O_2  and  C_3
REMARK    3  A    between atoms: C_8  and  C_9
REMARK    4  A    between atoms: N_11  and  C_12
REMARK    5  A    between atoms: C_12  and  C_13
REMARK                            x       y       z     vdW  Elec       q    Type
REMARK                         _______ _______ _______ _____ _____    ______ ____
ROOT
ATOM      1  C   UNL     1       1.761   9.099  18.556  0.00  0.00    +0.000 C 
ATOM      2  O   UNL     1       1.984   9.388  17.375  0.00  0.00    +0.000 OA
ATOM      3  N   UNL     1       1.187  10.007  19.428  0.00  0.00    +0.000 N 
ATOM      4  C   UNL     1       0.680  11.287  18.918  0.00  0.00    +0.000 C 
ATOM      5  C   UNL     1      -0.821  11.450  19.232  0.00  0.00    +0.000 C 
ATOM      6  N   UNL     1      -1.045  11.225  20.660  0.00  0.00    +0.000 N 
ATOM      7  C   UNL     1      -1.803  12.085  21.409  0.00  0.00    +0.000 A 
ATOM      8  N   UNL     1      -2.327  13.173  20.821  0.00  0.00    +0.000 NA
ATOM      9  C   UNL     1      -3.034  14.026  21.585  0.00  0.00    +0.000 A 
ATOM     10  C   UNL     1      -3.241  13.846  22.927  0.00  0.00    +0.000 A 
ATOM     11  C   UNL     1      -2.677  12.712  23.448  0.00  0.00    +0.000 A 
ATOM     12  N   UNL     1      -1.968  11.831  22.718  0.00  0.00    +0.000 NA
ATOM     13  C   UNL     1      -0.537   9.975  21.224  0.00  0.00    +0.000 C 
ATOM     14  C   UNL     1       0.955   9.811  20.868  0.00  0.00    +0.000 C 
ENDROOT
BRANCH   1  15
ATOM     15  C   UNL     1       2.190   7.727  19.083  0.00  0.00    +0.000 C 
BRANCH  15  18
ATOM     16  C   UNL     1       3.899   6.020  18.544  0.00  0.00    +0.000 C 
ATOM     17  O   UNL     1       3.843   5.536  19.672  0.00  0.00    +0.000 OA
ATOM     18  N   UNL     1       3.132   7.097  18.180  0.00  0.00    +0.000 N 
ATOM     19  H   UNL     1       3.216   7.466  17.237  0.00  0.00    +0.000 HD
BRANCH  16  25
ATOM     20  C   UNL     1       4.592   4.249  16.785  0.00  0.00    +0.000 A 
ATOM     21  C   UNL     1       5.580   3.791  15.897  0.00  0.00    +0.000 A 
ATOM     22  C   UNL     1       6.763   4.508  15.702  0.00  0.00    +0.000 A 
ATOM     23  C   UNL     1       6.983   5.685  16.401  0.00  0.00    +0.000 A 
ATOM     24  C   UNL     1       6.024   6.137  17.310  0.00  0.00    +0.000 A 
ATOM     25  C   UNL     1       4.827   5.427  17.523  0.00  0.00    +0.000 A 
BRANCH  20  27
ATOM     26  C   UNL     1       3.498   2.420  17.840  0.00  0.00    +0.000 C 
ATOM     27  O   UNL     1       3.417   3.563  16.988  0.00  0.00    +0.000 OA
ENDBRANCH  20  27
ENDBRANCH  16  25
ENDBRANCH  15  18
ENDBRANCH   1  15
TORSDOF 4
ENDMDL
MODEL 8
REMARK VINA RESULT:      -7.0      3.598      9.542
REMARK  Name = 
REMARK  5 active torsions:
REMARK  status: ('A' for Active; 'I' for Inactive)
REMARK    1  A    between atoms: C_1  and  O_2
REMARK    2  A    between atoms: O_2  and  C_3
REMARK    3  A    between atoms: C_8  and  C_9
REMARK    4  A    between atoms: N_11  and  C_12
REMARK    5  A    between atoms: C_12  and  C_13
REMARK                            x       y       z     vdW  Elec       q    Type
REMARK                         _______ _______ _______ _____ _____    ______ ____
ROOT
ATOM      1  C   UNL     1       1.119   9.473  19.670  0.00  0.00    +0.000 C 
ATOM      2  O   UNL     1       0.678   9.865  20.756  0.00  0.00    +0.000 OA
ATOM      3  N   UNL     1       1.891   8.331  19.570  0.00  0.00    +0.000 N 
ATOM      4  C   UNL     1       2.065   7.464  20.743  0.00  0.00    +0.000 C 
ATOM      5  C   UNL     1       1.571   6.033  20.449  0.00  0.00    +0.000 C 
ATOM      6  N   UNL     1       2.203   5.543  19.224  0.00  0.00    +0.000 N 
ATOM      7  C   UNL     1       2.774   4.300  19.162  0.00  0.00    +0.000 A 
ATOM      8  N   UNL     1       2.778   3.530  20.262  0.00  0.00    +0.000 NA
ATOM      9  C   UNL     1       3.382   2.329  20.190  0.00  0.00    +0.000 A 
ATOM     10  C   UNL     1       3.995   1.857  19.060  0.00  0.00    +0.000 A 
ATOM     11  C   UNL     1       3.944   2.702  17.984  0.00  0.00    +0.000 A 
ATOM     12  N   UNL     1       3.346   3.907  18.012  0.00  0.00    +0.000 NA
ATOM     13  C   UNL     1       2.080   6.382  18.032  0.00  0.00    +0.000 C 
ATOM     14  C   UNL     1       2.543   7.817  18.355  0.00  0.00    +0.000 C 
ENDROOT
BRANCH   1  15
ATOM     15  C   UNL     1       0.862  10.311  18.414  0.00  0.00    +0.000 C 
BRANCH  15  18
ATOM     16  C   UNL     1      -1.277  11.557  18.377  0.00  0.00    +0.000 C 
ATOM     17  O   UNL     1      -0.756  12.564  18.853  0.00  0.00    +0.000 OA
ATOM     18  N   UNL     1      -0.558  10.413  18.142  0.00  0.00    +0.000 N 
ATOM     19  H   UNL     1      -1.033   9.604  17.752  0.00  0.00    +0.000 HD
BRANCH  16  25
ATOM     20  C   UNL     1      -3.297  11.168  16.805  0.00  0.00    +0.000 A 
ATOM     21  C   UNL     1      -4.686  11.277  16.619  0.00  0.00    +0.000 A 
ATOM     22  C   UNL     1      -5.519  11.724  17.647  0.00  0.00    +0.000 A 
ATOM     23  C   UNL     1      -4.977  12.082  18.872  0.00  0.00    +0.000 A 
ATOM     24  C   UNL     1      -3.596  12.010  19.062  0.00  0.00    +0.000 A 
ATOM     25  C   UNL     1      -2.738  11.564  18.037  0.00  0.00    +0.000 A 
BRANCH  20  27
ATOM     26  C   UNL     1      -3.093  10.177  14.653  0.00  0.00    +0.000 C 
ATOM     27  O   UNL     1      -2.459  10.724  15.810  0.00  0.00    +0.000 OA
ENDBRANCH  20  27
ENDBRANCH  16  25
ENDBRANCH  15  18
ENDBRANCH   1  15
TORSDOF 4
ENDMDL
MODEL 9
REMARK VINA RESULT:      -7.0      3.379      9.949
REMARK  Name = 
REMARK  5 active torsions:
REMARK  status: ('A' for Active; 'I' for Inactive)
REMARK    1  A    between atoms: C_1  and  O_2
REMARK    2  A    between atoms: O_2  and  C_3
REMARK    3  A    between atoms: C_8  and  C_9
REMARK    4  A    between atoms: N_11  and  C_12
REMARK    5  A    between atoms: C_12  and  C_13
REMARK                            x       y       z     vdW  Elec       q    Type
REMARK                         _______ _______ _______ _____ _____    ______ ____
ROOT
ATOM      1  C   UNL     1       0.667  11.465  19.680  0.00  0.00    +0.000 C 
ATOM      2  O   UNL     1       0.708  12.207  18.692  0.00  0.00    +0.000 OA
ATOM      3  N   UNL     1       0.710  10.089  19.555  0.00  0.00    +0.000 N 
ATOM      4  C   UNL     1       0.970   9.483  18.242  0.00  0.00    +0.000 C 
ATOM      5  C   UNL     1       2.223   8.586  18.288  0.00  0.00    +0.000 C 
ATOM      6  N   UNL     1       2.097   7.632  19.390  0.00  0.00    +0.000 N 
ATOM      7  C   UNL     1       2.357   6.300  19.215  0.00  0.00    +0.000 A 
ATOM      8  N   UNL     1       2.706   5.858  17.996  0.00  0.00    +0.000 NA
ATOM      9  C   UNL     1       2.916   4.538  17.838  0.00  0.00    +0.000 A 
ATOM     10  C   UNL     1       2.787   3.625  18.850  0.00  0.00    +0.000 A 
ATOM     11  C   UNL     1       2.431   4.156  20.061  0.00  0.00    +0.000 A 
ATOM     12  N   UNL     1       2.218   5.470  20.263  0.00  0.00    +0.000 NA
ATOM     13  C   UNL     1       1.813   8.182  20.715  0.00  0.00    +0.000 C 
ATOM     14  C   UNL     1       0.580   9.106  20.643  0.00  0.00    +0.000 C 
ENDROOT
BRANCH   1  15
ATOM     15  C   UNL     1       0.498  12.083  21.071  0.00  0.00    +0.000 C 
BRANCH  15  18
ATOM     16  C   UNL     1      -1.554  11.943  22.447  0.00  0.00    +0.000 C 
ATOM     17  O   UNL     1      -1.005  11.228  23.283  0.00  0.00    +0.000 OA
ATOM     18  N   UNL     1      -0.892  12.395  21.334  0.00  0.00    +0.000 N 
ATOM     19  H   UNL     1      -1.390  12.979  20.668  0.00  0.00    +0.000 HD
BRANCH  16  25
ATOM     20  C   UNL     1      -3.894  12.665  21.605  0.00  0.00    +0.000 A 
ATOM     21  C   UNL     1      -5.197  13.070  21.942  0.00  0.00    +0.000 A 
ATOM     22  C   UNL     1      -5.617  13.114  23.273  0.00  0.00    +0.000 A 
ATOM     23  C   UNL     1      -4.739  12.767  24.289  0.00  0.00    +0.000 A 
ATOM     24  C   UNL     1      -3.432  12.391  23.972  0.00  0.00    +0.000 A 
ATOM     25  C   UNL     1      -2.988  12.344  22.636  0.00  0.00    +0.000 A 
BRANCH  20  27
ATOM     26  C   UNL     1      -4.430  12.199  19.335  0.00  0.00    +0.000 C 
ATOM     27  O   UNL     1      -3.461  12.608  20.301  0.00  0.00    +0.000 OA
ENDBRANCH  20  27
ENDBRANCH  16  25
ENDBRANCH  15  18
ENDBRANCH   1  15
TORSDOF 4
ENDMDL
