MODEL 1
REMARK VINA RESULT:      -7.1      0.000      0.000
REMARK  Name = 
REMARK  3 active torsions:
REMARK  status: ('A' for Active; 'I' for Inactive)
REMARK    1  A    between atoms: C_3  and  C_4
REMARK    2  A    between atoms: C_4  and  S_5
REMARK    3  A    between atoms: S_5  and  C_6
REMARK                            x       y       z     vdW  Elec       q    Type
REMARK                         _______ _______ _______ _____ _____    ______ ____
ROOT
ATOM      1  C   UNL     1       5.023   4.227  16.724  0.00  0.00    +0.000 A 
ATOM      2  N   UNL     1       5.602   4.020  15.519  0.00  0.00    +0.000 NA
ATOM      3  C   UNL     1       6.936   4.224  15.419  0.00  0.00    +0.000 A 
ATOM      4  N   UNL     1       7.795   4.618  16.381  0.00  0.00    +0.000 NA
ATOM      5  C   UNL     1       7.162   4.805  17.549  0.00  0.00    +0.000 A 
ATOM      6  N   UNL     1       7.719   5.202  18.730  0.00  0.00    +0.000 N 
ATOM      7  N   UNL     1       6.830   5.302  19.742  0.00  0.00    +0.000 NA
ATOM      8  C   UNL     1       5.672   4.954  19.166  0.00  0.00    +0.000 A 
ATOM      9  C   UNL     1       5.813   4.634  17.798  0.00  0.00    +0.000 A 
ATOM     10  H   UNL     1       8.692   5.420  18.908  0.00  0.00    +0.000 HD
ENDROOT
BRANCH   1  11
ATOM     11  S   UNL     1       3.293   4.000  16.995  0.00  0.00    +0.000 S 
BRANCH  11  12
ATOM     12  C   UNL     1       3.246   2.402  17.870  0.00  0.00    +0.000 C 
BRANCH  12  15
ATOM     13  C   UNL     1       2.867   2.485  21.649  0.00  0.00    +0.000 A 
ATOM     14  C   UNL     1       3.450   2.337  20.398  0.00  0.00    +0.000 A 
ATOM     15  C   UNL     1       2.674   2.580  19.259  0.00  0.00    +0.000 A 
ATOM     16  C   UNL     1       1.336   2.946  19.442  0.00  0.00    +0.000 A 
ATOM     17  C   UNL     1       0.845   3.069  20.734  0.00  0.00    +0.000 A 
ATOM     18  N   UNL     1       1.583   2.851  21.843  0.00  0.00    +0.000 NA
ENDBRANCH  12  15
ENDBRANCH  11  12
ENDBRANCH   1  11
TORSDOF 3
ENDMDL
MODEL 2
REMARK VINA RESULT:      -7.1      1.027      1.035
REMARK  Name = 
REMARK  3 active torsions:
REMARK  status: ('A' for Active; 'I' for Inactive)
REMARK    1  A    between atoms: C_3  and  C_4
REMARK    2  A    between atoms: C_4  and  S_5
REMARK    3  A    between atoms: S_5  and  C_6
REMARK                            x       y       z     vdW  Elec       q    Type
REMARK                         _______ _______ _______ _____ _____    ______ ____
ROOT
ATOM      1  C   UNL     1       4.931   5.323  17.173  0.00  0.00    +0.000 A 
ATOM      2  N   UNL     1       5.155   5.008  15.876  0.00  0.00    +0.000 NA
ATOM      3  C   UNL     1       6.409   4.639  15.526  0.00  0.00    +0.000 A 
ATOM      4  N   UNL     1       7.500   4.541  16.313  0.00  0.00    +0.000 NA
ATOM      5  C   UNL     1       7.213   4.865  17.583  0.00  0.00    +0.000 A 
ATOM      6  N   UNL     1       8.075   4.875  18.642  0.00  0.00    +0.000 N 
ATOM      7  N   UNL     1       7.497   5.242  19.806  0.00  0.00    +0.000 NA
ATOM      8  C   UNL     1       6.226   5.472  19.456  0.00  0.00    +0.000 A 
ATOM      9  C   UNL     1       5.986   5.255  18.082  0.00  0.00    +0.000 A 
ATOM     10  H   UNL     1       9.061   4.644  18.633  0.00  0.00    +0.000 HD
ENDROOT
BRANCH   1  11
ATOM     11  S   UNL     1       3.343   5.821  17.766  0.00  0.00    +0.000 S 
BRANCH  11  12
ATOM     12  C   UNL     1       2.433   4.242  17.805  0.00  0.00    +0.000 C 
BRANCH  12  15
ATOM     13  C   UNL     1       3.371   2.444  21.017  0.00  0.00    +0.000 A 
ATOM     14  C   UNL     1       3.468   2.954  19.729  0.00  0.00    +0.000 A 
ATOM     15  C   UNL     1       2.397   3.692  19.213  0.00  0.00    +0.000 A 
ATOM     16  C   UNL     1       1.268   3.864  20.022  0.00  0.00    +0.000 A 
ATOM     17  C   UNL     1       1.266   3.316  21.296  0.00  0.00    +0.000 A 
ATOM     18  N   UNL     1       2.296   2.613  21.814  0.00  0.00    +0.000 NA
ENDBRANCH  12  15
ENDBRANCH  11  12
ENDBRANCH   1  11
TORSDOF 3
ENDMDL
MODEL 3
REMARK VINA RESULT:      -6.9      1.757      3.033
REMARK  Name = 
REMARK  3 active torsions:
REMARK  status: ('A' for Active; 'I' for Inactive)
REMARK    1  A    between atoms: C_3  and  C_4
REMARK    2  A    between atoms: C_4  and  S_5
REMARK    3  A    between atoms: S_5  and  C_6
REMARK                            x       y       z     vdW  Elec       q    Type
REMARK                         _______ _______ _______ _____ _____    ______ ____
ROOT
ATOM      1  C   UNL     1       5.072   5.909  17.950  0.00  0.00    +0.000 A 
ATOM      2  N   UNL     1       5.613   5.603  19.152  0.00  0.00    +0.000 NA
ATOM      3  C   UNL     1       6.833   5.016  19.160  0.00  0.00    +0.000 A 
ATOM      4  N   UNL     1       7.605   4.682  18.107  0.00  0.00    +0.000 NA
ATOM      5  C   UNL     1       7.015   5.012  16.948  0.00  0.00    +0.000 A 
ATOM      6  N   UNL     1       7.511   4.820  15.690  0.00  0.00    +0.000 N 
ATOM      7  N   UNL     1       6.689   5.257  14.712  0.00  0.00    +0.000 NA
ATOM      8  C   UNL     1       5.639   5.739  15.389  0.00  0.00    +0.000 A 
ATOM      9  C   UNL     1       5.782   5.613  16.788  0.00  0.00    +0.000 A 
ATOM     10  H   UNL     1       8.396   4.398  15.437  0.00  0.00    +0.000 HD
ENDROOT
BRANCH   1  11
ATOM     11  S   UNL     1       3.488   6.675  17.793  0.00  0.00    +0.000 S 
BRANCH  11  12
ATOM     12  C   UNL     1       2.765   6.410  19.445  0.00  0.00    +0.000 C 
BRANCH  12  15
ATOM     13  C   UNL     1       1.192   3.085  18.497  0.00  0.00    +0.000 A 
ATOM     14  C   UNL     1       1.803   4.324  18.368  0.00  0.00    +0.000 A 
ATOM     15  C   UNL     1       2.128   5.040  19.526  0.00  0.00    +0.000 A 
ATOM     16  C   UNL     1       1.802   4.472  20.762  0.00  0.00    +0.000 A 
ATOM     17  C   UNL     1       1.191   3.227  20.788  0.00  0.00    +0.000 A 
ATOM     18  N   UNL     1       0.883   2.517  19.682  0.00  0.00    +0.000 NA
ENDBRANCH  12  15
ENDBRANCH  11  12
ENDBRANCH   1  11
TORSDOF 3
ENDMDL
MODEL 4
REMARK VINA RESULT:      -6.9      1.693      2.857
REMARK  Name = 
REMARK  3 active torsions:
REMARK  status: ('A' for Active; 'I' for Inactive)
REMARK    1  A    between atoms: C_3  and  C_4
REMARK    2  A    between atoms: C_4  and  S_5
REMARK    3  A    between atoms: S_5  and  C_6
REMARK                            x       y       z     vdW  Elec       q    Type
REMARK                         _______ _______ _______ _____ _____    ______ ____
ROOT
ATOM      1  C   UNL     1       5.006   5.837  18.015  0.00  0.00    +0.000 A 
ATOM      2  N   UNL     1       5.551   5.572  19.224  0.00  0.00    +0.000 NA
ATOM      3  C   UNL     1       6.800   5.051  19.250  0.00  0.00    +0.000 A 
ATOM      4  N   UNL     1       7.600   4.749  18.208  0.00  0.00    +0.000 NA
ATOM      5  C   UNL     1       7.004   5.035  17.040  0.00  0.00    +0.000 A 
ATOM      6  N   UNL     1       7.522   4.857  15.789  0.00  0.00    +0.000 N 
ATOM      7  N   UNL     1       6.687   5.240  14.799  0.00  0.00    +0.000 NA
ATOM      8  C   UNL     1       5.606   5.672  15.461  0.00  0.00    +0.000 A 
ATOM      9  C   UNL     1       5.742   5.568  16.862  0.00  0.00    +0.000 A 
ATOM     10  H   UNL     1       8.431   4.481  15.549  0.00  0.00    +0.000 HD
ENDROOT
BRANCH   1  11
ATOM     11  S   UNL     1       3.385   6.516  17.835  0.00  0.00    +0.000 S 
BRANCH  11  12
ATOM     12  C   UNL     1       2.728   6.400  19.531  0.00  0.00    +0.000 C 
BRANCH  12  15
ATOM     13  C   UNL     1       1.621   3.185  21.227  0.00  0.00    +0.000 A 
ATOM     14  C   UNL     1       2.136   4.464  21.061  0.00  0.00    +0.000 A 
ATOM     15  C   UNL     1       2.149   5.024  19.778  0.00  0.00    +0.000 A 
ATOM     16  C   UNL     1       1.655   4.253  18.720  0.00  0.00    +0.000 A 
ATOM     17  C   UNL     1       1.162   2.985  18.987  0.00  0.00    +0.000 A 
ATOM     18  N   UNL     1       1.129   2.435  20.220  0.00  0.00    +0.000 NA
ENDBRANCH  12  15
ENDBRANCH  11  12
ENDBRANCH   1  11
TORSDOF 3
ENDMDL
MODEL 5
REMARK VINA RESULT:      -6.8      2.299      3.328
REMARK  Name = 
REMARK  3 active torsions:
REMARK  status: ('A' for Active; 'I' for Inactive)
REMARK    1  A    between atoms: C_3  and  C_4
REMARK    2  A    between atoms: C_4  and  S_5
REMARK    3  A    between atoms: S_5  and  C_6
REMARK                            x       y       z     vdW  Elec       q    Type
REMARK                         _______ _______ _______ _____ _____    ______ ____
ROOT
ATOM      1  C   UNL     1       5.371   4.198  18.061  0.00  0.00    +0.000 A 
ATOM      2  N   UNL     1       5.838   4.627  19.256  0.00  0.00    +0.000 NA
ATOM      3  C   UNL     1       6.868   5.505  19.249  0.00  0.00    +0.000 A 
ATOM      4  N   UNL     1       7.514   6.026  18.187  0.00  0.00    +0.000 NA
ATOM      5  C   UNL     1       7.005   5.563  17.034  0.00  0.00    +0.000 A 
ATOM      6  N   UNL     1       7.414   5.878  15.771  0.00  0.00    +0.000 N 
ATOM      7  N   UNL     1       6.707   5.256  14.802  0.00  0.00    +0.000 NA
ATOM      8  C   UNL     1       5.825   4.523  15.492  0.00  0.00    +0.000 A 
ATOM      9  C   UNL     1       5.960   4.671  16.889  0.00  0.00    +0.000 A 
ATOM     10  H   UNL     1       8.165   6.505  15.507  0.00  0.00    +0.000 HD
ENDROOT
BRANCH   1  11
ATOM     11  S   UNL     1       4.034   3.052  17.924  0.00  0.00    +0.000 S 
BRANCH  11  12
ATOM     12  C   UNL     1       2.662   4.123  17.384  0.00  0.00    +0.000 C 
BRANCH  12  15
ATOM     13  C   UNL     1       2.326   7.466  19.157  0.00  0.00    +0.000 A 
ATOM     14  C   UNL     1       2.572   6.539  18.153  0.00  0.00    +0.000 A 
ATOM     15  C   UNL     1       2.378   5.180  18.428  0.00  0.00    +0.000 A 
ATOM     16  C   UNL     1       1.961   4.823  19.715  0.00  0.00    +0.000 A 
ATOM     17  C   UNL     1       1.742   5.824  20.651  0.00  0.00    +0.000 A 
ATOM     18  N   UNL     1       1.910   7.139  20.398  0.00  0.00    +0.000 NA
ENDBRANCH  12  15
ENDBRANCH  11  12
ENDBRANCH   1  11
TORSDOF 3
ENDMDL
MODEL 6
REMARK VINA RESULT:      -6.8      2.340      3.319
REMARK  Name = 
REMARK  3 active torsions:
REMARK  status: ('A' for Active; 'I' for Inactive)
REMARK    1  A    between atoms: C_3  and  C_4
REMARK    2  A    between atoms: C_4  and  S_5
REMARK    3  A    between atoms: S_5  and  C_6
REMARK                            x       y       z     vdW  Elec       q    Type
REMARK                         _______ _______ _______ _____ _____    ______ ____
ROOT
ATOM      1  C   UNL     1       5.371   4.209  18.061  0.00  0.00    +0.000 A 
ATOM      2  N   UNL     1       5.853   4.643  19.248  0.00  0.00    +0.000 NA
ATOM      3  C   UNL     1       6.886   5.518  19.225  0.00  0.00    +0.000 A 
ATOM      4  N   UNL     1       7.521   6.032  18.153  0.00  0.00    +0.000 NA
ATOM      5  C   UNL     1       6.997   5.564  17.009  0.00  0.00    +0.000 A 
ATOM      6  N   UNL     1       7.393   5.872  15.739  0.00  0.00    +0.000 N 
ATOM      7  N   UNL     1       6.674   5.247  14.782  0.00  0.00    +0.000 NA
ATOM      8  C   UNL     1       5.797   4.520  15.485  0.00  0.00    +0.000 A 
ATOM      9  C   UNL     1       5.948   4.675  16.880  0.00  0.00    +0.000 A 
ATOM     10  H   UNL     1       8.143   6.495  15.464  0.00  0.00    +0.000 HD
ENDROOT
BRANCH   1  11
ATOM     11  S   UNL     1       4.029   3.066  17.945  0.00  0.00    +0.000 S 
BRANCH  11  12
ATOM     12  C   UNL     1       2.651   4.141  17.428  0.00  0.00    +0.000 C 
BRANCH  12  15
ATOM     13  C   UNL     1       1.756   5.946  20.649  0.00  0.00    +0.000 A 
ATOM     14  C   UNL     1       1.986   4.912  19.752  0.00  0.00    +0.000 A 
ATOM     15  C   UNL     1       2.416   5.225  18.457  0.00  0.00    +0.000 A 
ATOM     16  C   UNL     1       2.575   6.575  18.126  0.00  0.00    +0.000 A 
ATOM     17  C   UNL     1       2.319   7.537  19.093  0.00  0.00    +0.000 A 
ATOM     18  N   UNL     1       1.917   7.252  20.349  0.00  0.00    +0.000 NA
ENDBRANCH  12  15
ENDBRANCH  11  12
ENDBRANCH   1  11
TORSDOF 3
ENDMDL
MODEL 7
REMARK VINA RESULT:      -6.7      1.369      2.488
REMARK  Name = 
REMARK  3 active torsions:
REMARK  status: ('A' for Active; 'I' for Inactive)
REMARK    1  A    between atoms: C_3  and  C_4
REMARK    2  A    between atoms: C_4  and  S_5
REMARK    3  A    between atoms: S_5  and  C_6
REMARK                            x       y       z     vdW  Elec       q    Type
REMARK                         _______ _______ _______ _____ _____    ______ ____
ROOT
ATOM      1  C   UNL     1       5.037   5.737  17.999  0.00  0.00    +0.000 A 
ATOM      2  N   UNL     1       5.754   5.646  19.143  0.00  0.00    +0.000 NA
ATOM      3  C   UNL     1       7.088   5.443  19.033  0.00  0.00    +0.000 A 
ATOM      4  N   UNL     1       7.823   5.314  17.911  0.00  0.00    +0.000 NA
ATOM      5  C   UNL     1       7.056   5.415  16.814  0.00  0.00    +0.000 A 
ATOM      6  N   UNL     1       7.468   5.333  15.515  0.00  0.00    +0.000 N 
ATOM      7  N   UNL     1       6.465   5.475  14.620  0.00  0.00    +0.000 NA
ATOM      8  C   UNL     1       5.388   5.651  15.395  0.00  0.00    +0.000 A 
ATOM      9  C   UNL     1       5.691   5.622  16.774  0.00  0.00    +0.000 A 
ATOM     10  H   UNL     1       8.410   5.181  15.177  0.00  0.00    +0.000 HD
ENDROOT
BRANCH   1  11
ATOM     11  S   UNL     1       3.290   5.998  17.996  0.00  0.00    +0.000 S 
BRANCH  11  12
ATOM     12  C   UNL     1       2.646   4.297  17.887  0.00  0.00    +0.000 C 
BRANCH  12  15
ATOM     13  C   UNL     1       3.334   2.381  21.094  0.00  0.00    +0.000 A 
ATOM     14  C   UNL     1       3.528   2.932  19.835  0.00  0.00    +0.000 A 
ATOM     15  C   UNL     1       2.503   3.700  19.269  0.00  0.00    +0.000 A 
ATOM     16  C   UNL     1       1.320   3.857  20.000  0.00  0.00    +0.000 A 
ATOM     17  C   UNL     1       1.222   3.266  21.251  0.00  0.00    +0.000 A 
ATOM     18  N   UNL     1       2.205   2.535  21.817  0.00  0.00    +0.000 NA
ENDBRANCH  12  15
ENDBRANCH  11  12
ENDBRANCH   1  11
TORSDOF 3
ENDMDL
MODEL 8
REMARK VINA RESULT:      -6.7      1.169      2.616
REMARK  Name = 
REMARK  3 active torsions:
REMARK  status: ('A' for Active; 'I' for Inactive)
REMARK    1  A    between atoms: C_3  and  C_4
REMARK    2  A    between atoms: C_4  and  S_5
REMARK    3  A    between atoms: S_5  and  C_6
REMARK                            x       y       z     vdW  Elec       q    Type
REMARK                         _______ _______ _______ _____ _____    ______ ____
ROOT
ATOM      1  C   UNL     1       4.975   5.362  17.802  0.00  0.00    +0.000 A 
ATOM      2  N   UNL     1       5.633   5.362  18.983  0.00  0.00    +0.000 NA
ATOM      3  C   UNL     1       6.986   5.383  18.949  0.00  0.00    +0.000 A 
ATOM      4  N   UNL     1       7.794   5.403  17.869  0.00  0.00    +0.000 NA
ATOM      5  C   UNL     1       7.082   5.403  16.731  0.00  0.00    +0.000 A 
ATOM      6  N   UNL     1       7.572   5.420  15.457  0.00  0.00    +0.000 N 
ATOM      7  N   UNL     1       6.611   5.418  14.508  0.00  0.00    +0.000 NA
ATOM      8  C   UNL     1       5.478   5.396  15.221  0.00  0.00    +0.000 A 
ATOM      9  C   UNL     1       5.706   5.385  16.614  0.00  0.00    +0.000 A 
ATOM     10  H   UNL     1       8.545   5.432  15.173  0.00  0.00    +0.000 HD
ENDROOT
BRANCH   1  11
ATOM     11  S   UNL     1       3.212   5.335  17.700  0.00  0.00    +0.000 S 
BRANCH  11  12
ATOM     12  C   UNL     1       2.847   3.553  17.816  0.00  0.00    +0.000 C 
BRANCH  12  15
ATOM     13  C   UNL     1       1.026   3.088  21.117  0.00  0.00    +0.000 A 
ATOM     14  C   UNL     1       1.261   3.427  19.792  0.00  0.00    +0.000 A 
ATOM     15  C   UNL     1       2.524   3.174  19.244  0.00  0.00    +0.000 A 
ATOM     16  C   UNL     1       3.497   2.604  20.073  0.00  0.00    +0.000 A 
ATOM     17  C   UNL     1       3.166   2.300  21.385  0.00  0.00    +0.000 A 
ATOM     18  N   UNL     1       1.949   2.525  21.925  0.00  0.00    +0.000 NA
ENDBRANCH  12  15
ENDBRANCH  11  12
ENDBRANCH   1  11
TORSDOF 3
ENDMDL
MODEL 9
REMARK VINA RESULT:      -6.6      1.451      2.534
REMARK  Name = 
REMARK  3 active torsions:
REMARK  status: ('A' for Active; 'I' for Inactive)
REMARK    1  A    between atoms: C_3  and  C_4
REMARK    2  A    between atoms: C_4  and  S_5
REMARK    3  A    between atoms: S_5  and  C_6
REMARK                            x       y       z     vdW  Elec       q    Type
REMARK                         _______ _______ _______ _____ _____    ______ ____
ROOT
ATOM      1  C   UNL     1       5.169   4.136  17.261  0.00  0.00    +0.000 A 
ATOM      2  N   UNL     1       5.692   4.345  18.491  0.00  0.00    +0.000 NA
ATOM      3  C   UNL     1       6.900   4.951  18.566  0.00  0.00    +0.000 A 
ATOM      4  N   UNL     1       7.680   5.386  17.556  0.00  0.00    +0.000 NA
ATOM      5  C   UNL     1       7.107   5.151  16.365  0.00  0.00    +0.000 A 
ATOM      6  N   UNL     1       7.614   5.459  15.135  0.00  0.00    +0.000 N 
ATOM      7  N   UNL     1       6.807   5.102  14.113  0.00  0.00    +0.000 NA
ATOM      8  C   UNL     1       5.757   4.548  14.732  0.00  0.00    +0.000 A 
ATOM      9  C   UNL     1       5.885   4.548  16.138  0.00  0.00    +0.000 A 
ATOM     10  H   UNL     1       8.499   5.908  14.931  0.00  0.00    +0.000 HD
ENDROOT
BRANCH   1  11
ATOM     11  S   UNL     1       3.603   3.356  17.018  0.00  0.00    +0.000 S 
BRANCH  11  12
ATOM     12  C   UNL     1       2.465   4.506  17.857  0.00  0.00    +0.000 C 
BRANCH  12  15
ATOM     13  C   UNL     1       2.391   4.271  21.648  0.00  0.00    +0.000 A 
ATOM     14  C   UNL     1       2.645   4.762  20.375  0.00  0.00    +0.000 A 
ATOM     15  C   UNL     1       2.189   4.036  19.268  0.00  0.00    +0.000 A 
ATOM     16  C   UNL     1       1.512   2.834  19.505  0.00  0.00    +0.000 A 
ATOM     17  C   UNL     1       1.308   2.427  20.815  0.00  0.00    +0.000 A 
ATOM     18  N   UNL     1       1.728   3.121  21.893  0.00  0.00    +0.000 NA
ENDBRANCH  12  15
ENDBRANCH  11  12
ENDBRANCH   1  11
TORSDOF 3
ENDMDL
