MODEL 1
REMARK VINA RESULT:      -8.8      0.000      0.000
REMARK  Name = 
REMARK  4 active torsions:
REMARK  status: ('A' for Active; 'I' for Inactive)
REMARK    1  A    between atoms: C_1  and  C_2
REMARK    2  A    between atoms: C_5  and  C_6
REMARK    3  A    between atoms: N_14  and  S_15
REMARK    4  A    between atoms: S_15  and  C_18
REMARK                            x       y       z     vdW  Elec       q    Type
REMARK                         _______ _______ _______ _____ _____    ______ ____
ROOT
ATOM      1  C   UNL     1       4.650   5.937  16.702  0.00  0.00    +0.000 A 
ATOM      2  N   UNL     1       4.158   7.154  16.529  0.00  0.00    +0.000 NA
ATOM      3  C   UNL     1       3.367   7.405  17.620  0.00  0.00    +0.000 A 
ATOM      4  C   UNL     1       2.591   8.542  17.896  0.00  0.00    +0.000 A 
ATOM      5  C   UNL     1       1.858   8.591  19.085  0.00  0.00    +0.000 A 
ATOM      6  C   UNL     1       1.919   7.539  19.996  0.00  0.00    +0.000 A 
ATOM      7  C   UNL     1       2.691   6.399  19.738  0.00  0.00    +0.000 A 
ATOM      8  C   UNL     1       3.395   6.342  18.524  0.00  0.00    +0.000 A 
ATOM      9  N   UNL     1       4.186   5.404  17.886  0.00  0.00    +0.000 N 
ENDROOT
BRANCH   1  14
ATOM     10  C   UNL     1       5.972   3.520  12.707  0.00  0.00    +0.000 C 
ATOM     11  C   UNL     1       6.238   4.256  13.958  0.00  0.00    +0.000 A 
ATOM     12  C   UNL     1       7.378   4.662  14.612  0.00  0.00    +0.000 A 
ATOM     13  C   UNL     1       6.936   5.356  15.766  0.00  0.00    +0.000 A 
ATOM     14  C   UNL     1       5.548   5.349  15.752  0.00  0.00    +0.000 A 
ATOM     15  O   UNL     1       5.144   4.653  14.650  0.00  0.00    +0.000 OA
ENDBRANCH   1  14
BRANCH   9  16
ATOM     16  S   UNL     1       4.475   3.829  18.435  0.00  0.00    +0.000 S 
ATOM     17  O   UNL     1       4.420   2.951  17.282  0.00  0.00    +0.000 OA
ATOM     18  O   UNL     1       5.681   3.914  19.240  0.00  0.00    +0.000 OA
BRANCH  16  19
ATOM     19  C   UNL     1       3.099   3.371  19.454  0.00  0.00    +0.000 A 
ATOM     20  C   UNL     1       1.822   3.219  18.903  0.00  0.00    +0.000 A 
ATOM     21  C   UNL     1       0.750   2.915  19.743  0.00  0.00    +0.000 A 
ATOM     22  C   UNL     1       0.956   2.744  21.113  0.00  0.00    +0.000 A 
ATOM     23  C   UNL     1       2.238   2.856  21.652  0.00  0.00    +0.000 A 
ATOM     24  C   UNL     1       3.317   3.170  20.820  0.00  0.00    +0.000 A 
ENDBRANCH  16  19
ENDBRANCH   9  16
TORSDOF 3
ENDMDL
MODEL 2
REMARK VINA RESULT:      -8.2      1.705      5.086
REMARK  Name = 
REMARK  4 active torsions:
REMARK  status: ('A' for Active; 'I' for Inactive)
REMARK    1  A    between atoms: C_1  and  C_2
REMARK    2  A    between atoms: C_5  and  C_6
REMARK    3  A    between atoms: N_14  and  S_15
REMARK    4  A    between atoms: S_15  and  C_18
REMARK                            x       y       z     vdW  Elec       q    Type
REMARK                         _______ _______ _______ _____ _____    ______ ____
ROOT
ATOM      1  C   UNL     1       3.756   6.584  17.758  0.00  0.00    +0.000 A 
ATOM      2  N   UNL     1       4.974   7.012  17.466  0.00  0.00    +0.000 NA
ATOM      3  C   UNL     1       5.593   5.981  16.808  0.00  0.00    +0.000 A 
ATOM      4  C   UNL     1       6.909   5.917  16.322  0.00  0.00    +0.000 A 
ATOM      5  C   UNL     1       7.335   4.758  15.668  0.00  0.00    +0.000 A 
ATOM      6  C   UNL     1       6.459   3.691  15.478  0.00  0.00    +0.000 A 
ATOM      7  C   UNL     1       5.142   3.740  15.954  0.00  0.00    +0.000 A 
ATOM      8  C   UNL     1       4.734   4.895  16.641  0.00  0.00    +0.000 A 
ATOM      9  N   UNL     1       3.585   5.296  17.299  0.00  0.00    +0.000 N 
ENDROOT
BRANCH   1  14
ATOM     10  C   UNL     1       1.083   8.207  21.470  0.00  0.00    +0.000 C 
ATOM     11  C   UNL     1       1.554   8.222  20.072  0.00  0.00    +0.000 A 
ATOM     12  C   UNL     1       1.306   9.021  18.981  0.00  0.00    +0.000 A 
ATOM     13  C   UNL     1       2.105   8.504  17.931  0.00  0.00    +0.000 A 
ATOM     14  C   UNL     1       2.810   7.421  18.437  0.00  0.00    +0.000 A 
ATOM     15  O   UNL     1       2.441   7.253  19.740  0.00  0.00    +0.000 OA
ENDBRANCH   1  14
BRANCH   9  16
ATOM     16  S   UNL     1       2.220   4.331  17.564  0.00  0.00    +0.000 S 
ATOM     17  O   UNL     1       1.063   5.206  17.564  0.00  0.00    +0.000 OA
ATOM     18  O   UNL     1       2.322   3.244  16.605  0.00  0.00    +0.000 OA
BRANCH  16  19
ATOM     19  C   UNL     1       2.341   3.694  19.213  0.00  0.00    +0.000 A 
ATOM     20  C   UNL     1       3.505   3.048  19.645  0.00  0.00    +0.000 A 
ATOM     21  C   UNL     1       3.546   2.506  20.930  0.00  0.00    +0.000 A 
ATOM     22  C   UNL     1       2.446   2.627  21.780  0.00  0.00    +0.000 A 
ATOM     23  C   UNL     1       1.303   3.307  21.360  0.00  0.00    +0.000 A 
ATOM     24  C   UNL     1       1.248   3.845  20.070  0.00  0.00    +0.000 A 
ENDBRANCH  16  19
ENDBRANCH   9  16
TORSDOF 3
ENDMDL
MODEL 3
REMARK VINA RESULT:      -8.1      1.785      4.996
REMARK  Name = 
REMARK  4 active torsions:
REMARK  status: ('A' for Active; 'I' for Inactive)
REMARK    1  A    between atoms: C_1  and  C_2
REMARK    2  A    between atoms: C_5  and  C_6
REMARK    3  A    between atoms: N_14  and  S_15
REMARK    4  A    between atoms: S_15  and  C_18
REMARK                            x       y       z     vdW  Elec       q    Type
REMARK                         _______ _______ _______ _____ _____    ______ ____
ROOT
ATOM      1  C   UNL     1       3.753   6.350  18.000  0.00  0.00    +0.000 A 
ATOM      2  N   UNL     1       4.965   6.808  17.727  0.00  0.00    +0.000 NA
ATOM      3  C   UNL     1       5.553   5.873  16.916  0.00  0.00    +0.000 A 
ATOM      4  C   UNL     1       6.851   5.869  16.380  0.00  0.00    +0.000 A 
ATOM      5  C   UNL     1       7.245   4.807  15.561  0.00  0.00    +0.000 A 
ATOM      6  C   UNL     1       6.353   3.781  15.258  0.00  0.00    +0.000 A 
ATOM      7  C   UNL     1       5.054   3.771  15.781  0.00  0.00    +0.000 A 
ATOM      8  C   UNL     1       4.678   4.823  16.633  0.00  0.00    +0.000 A 
ATOM      9  N   UNL     1       3.556   5.136  17.377  0.00  0.00    +0.000 N 
ENDROOT
BRANCH   1  14
ATOM     10  C   UNL     1       0.620   9.879  19.127  0.00  0.00    +0.000 C 
ATOM     11  C   UNL     1       1.405   8.665  19.417  0.00  0.00    +0.000 A 
ATOM     12  C   UNL     1       1.510   7.821  20.498  0.00  0.00    +0.000 A 
ATOM     13  C   UNL     1       2.435   6.817  20.117  0.00  0.00    +0.000 A 
ATOM     14  C   UNL     1       2.838   7.091  18.818  0.00  0.00    +0.000 A 
ATOM     15  O   UNL     1       2.213   8.236  18.418  0.00  0.00    +0.000 OA
ENDBRANCH   1  14
BRANCH   9  16
ATOM     16  S   UNL     1       2.192   4.150  17.555  0.00  0.00    +0.000 S 
ATOM     17  O   UNL     1       1.025   5.010  17.504  0.00  0.00    +0.000 OA
ATOM     18  O   UNL     1       2.360   3.078  16.589  0.00  0.00    +0.000 OA
BRANCH  16  19
ATOM     19  C   UNL     1       2.232   3.493  19.201  0.00  0.00    +0.000 A 
ATOM     20  C   UNL     1       1.076   3.471  19.989  0.00  0.00    +0.000 A 
ATOM     21  C   UNL     1       1.155   3.001  21.301  0.00  0.00    +0.000 A 
ATOM     22  C   UNL     1       2.370   2.539  21.811  0.00  0.00    +0.000 A 
ATOM     23  C   UNL     1       3.511   2.525  21.008  0.00  0.00    +0.000 A 
ATOM     24  C   UNL     1       3.444   3.004  19.696  0.00  0.00    +0.000 A 
ENDBRANCH  16  19
ENDBRANCH   9  16
TORSDOF 3
ENDMDL
MODEL 4
REMARK VINA RESULT:      -7.6      2.254      4.432
REMARK  Name = 
REMARK  4 active torsions:
REMARK  status: ('A' for Active; 'I' for Inactive)
REMARK    1  A    between atoms: C_1  and  C_2
REMARK    2  A    between atoms: C_5  and  C_6
REMARK    3  A    between atoms: N_14  and  S_15
REMARK    4  A    between atoms: S_15  and  C_18
REMARK                            x       y       z     vdW  Elec       q    Type
REMARK                         _______ _______ _______ _____ _____    ______ ____
ROOT
ATOM      1  C   UNL     1       4.270   3.898  16.757  0.00  0.00    +0.000 A 
ATOM      2  N   UNL     1       3.751   2.738  17.128  0.00  0.00    +0.000 NA
ATOM      3  C   UNL     1       2.850   3.022  18.120  0.00  0.00    +0.000 A 
ATOM      4  C   UNL     1       2.063   2.133  18.870  0.00  0.00    +0.000 A 
ATOM      5  C   UNL     1       1.196   2.645  19.839  0.00  0.00    +0.000 A 
ATOM      6  C   UNL     1       1.093   4.020  20.040  0.00  0.00    +0.000 A 
ATOM      7  C   UNL     1       1.869   4.921  19.298  0.00  0.00    +0.000 A 
ATOM      8  C   UNL     1       2.764   4.395  18.352  0.00  0.00    +0.000 A 
ATOM      9  N   UNL     1       3.716   4.921  17.497  0.00  0.00    +0.000 N 
ENDROOT
BRANCH   1  14
ATOM     10  C   UNL     1       5.999   3.644  12.230  0.00  0.00    +0.000 C 
ATOM     11  C   UNL     1       6.117   3.888  13.680  0.00  0.00    +0.000 A 
ATOM     12  C   UNL     1       7.135   4.302  14.507  0.00  0.00    +0.000 A 
ATOM     13  C   UNL     1       6.578   4.356  15.810  0.00  0.00    +0.000 A 
ATOM     14  C   UNL     1       5.246   3.983  15.710  0.00  0.00    +0.000 A 
ATOM     15  O   UNL     1       4.991   3.681  14.404  0.00  0.00    +0.000 OA
ENDBRANCH   1  14
BRANCH   9  16
ATOM     16  S   UNL     1       4.180   6.547  17.428  0.00  0.00    +0.000 S 
ATOM     17  O   UNL     1       4.266   6.915  16.028  0.00  0.00    +0.000 OA
ATOM     18  O   UNL     1       3.271   7.248  18.319  0.00  0.00    +0.000 OA
BRANCH  16  19
ATOM     19  C   UNL     1       5.835   6.646  18.054  0.00  0.00    +0.000 A 
ATOM     20  C   UNL     1       6.726   7.608  17.565  0.00  0.00    +0.000 A 
ATOM     21  C   UNL     1       8.040   7.622  18.036  0.00  0.00    +0.000 A 
ATOM     22  C   UNL     1       8.451   6.699  18.999  0.00  0.00    +0.000 A 
ATOM     23  C   UNL     1       7.549   5.767  19.513  0.00  0.00    +0.000 A 
ATOM     24  C   UNL     1       6.233   5.739  19.040  0.00  0.00    +0.000 A 
ENDBRANCH  16  19
ENDBRANCH   9  16
TORSDOF 3
ENDMDL
MODEL 5
REMARK VINA RESULT:      -7.3      8.115     11.249
REMARK  Name = 
REMARK  4 active torsions:
REMARK  status: ('A' for Active; 'I' for Inactive)
REMARK    1  A    between atoms: C_1  and  C_2
REMARK    2  A    between atoms: C_5  and  C_6
REMARK    3  A    between atoms: N_14  and  S_15
REMARK    4  A    between atoms: S_15  and  C_18
REMARK                            x       y       z     vdW  Elec       q    Type
REMARK                         _______ _______ _______ _____ _____    ______ ____
ROOT
ATOM      1  C   UNL     1      -4.017  12.489  19.991  0.00  0.00    +0.000 A 
ATOM      2  N   UNL     1      -4.957  12.166  19.116  0.00  0.00    +0.000 NA
ATOM      3  C   UNL     1      -4.301  11.702  18.006  0.00  0.00    +0.000 A 
ATOM      4  C   UNL     1      -4.844  11.270  16.785  0.00  0.00    +0.000 A 
ATOM      5  C   UNL     1      -3.982  10.824  15.779  0.00  0.00    +0.000 A 
ATOM      6  C   UNL     1      -2.606  10.783  15.994  0.00  0.00    +0.000 A 
ATOM      7  C   UNL     1      -2.049  11.208  17.208  0.00  0.00    +0.000 A 
ATOM      8  C   UNL     1      -2.920  11.688  18.200  0.00  0.00    +0.000 A 
ATOM      9  N   UNL     1      -2.770  12.240  19.459  0.00  0.00    +0.000 N 
ENDROOT
BRANCH   1  14
ATOM     10  C   UNL     1      -4.460  12.447  24.824  0.00  0.00    +0.000 C 
ATOM     11  C   UNL     1      -4.586  13.061  23.489  0.00  0.00    +0.000 A 
ATOM     12  C   UNL     1      -5.001  14.289  23.029  0.00  0.00    +0.000 A 
ATOM     13  C   UNL     1      -4.854  14.246  21.620  0.00  0.00    +0.000 A 
ATOM     14  C   UNL     1      -4.346  12.997  21.291  0.00  0.00    +0.000 A 
ATOM     15  O   UNL     1      -4.211  12.283  22.446  0.00  0.00    +0.000 OA
ENDBRANCH   1  14
BRANCH   9  16
ATOM     16  S   UNL     1      -1.294  12.618  20.195  0.00  0.00    +0.000 S 
ATOM     17  O   UNL     1      -0.305  12.747  19.142  0.00  0.00    +0.000 OA
ATOM     18  O   UNL     1      -1.577  13.734  21.081  0.00  0.00    +0.000 OA
BRANCH  16  19
ATOM     19  C   UNL     1      -0.805  11.203  21.144  0.00  0.00    +0.000 A 
ATOM     20  C   UNL     1      -0.278  10.069  20.515  0.00  0.00    +0.000 A 
ATOM     21  C   UNL     1       0.042   8.950  21.284  0.00  0.00    +0.000 A 
ATOM     22  C   UNL     1      -0.142   8.972  22.667  0.00  0.00    +0.000 A 
ATOM     23  C   UNL     1      -0.630  10.118  23.295  0.00  0.00    +0.000 A 
ATOM     24  C   UNL     1      -0.964  11.241  22.531  0.00  0.00    +0.000 A 
ENDBRANCH  16  19
ENDBRANCH   9  16
TORSDOF 3
ENDMDL
MODEL 6
REMARK VINA RESULT:      -7.0      1.939      5.545
REMARK  Name = 
REMARK  4 active torsions:
REMARK  status: ('A' for Active; 'I' for Inactive)
REMARK    1  A    between atoms: C_1  and  C_2
REMARK    2  A    between atoms: C_5  and  C_6
REMARK    3  A    between atoms: N_14  and  S_15
REMARK    4  A    between atoms: S_15  and  C_18
REMARK                            x       y       z     vdW  Elec       q    Type
REMARK                         _______ _______ _______ _____ _____    ______ ____
ROOT
ATOM      1  C   UNL     1       5.098   3.736  15.837  0.00  0.00    +0.000 A 
ATOM      2  N   UNL     1       5.004   3.303  14.589  0.00  0.00    +0.000 NA
ATOM      3  C   UNL     1       5.993   3.941  13.888  0.00  0.00    +0.000 A 
ATOM      4  C   UNL     1       6.291   3.856  12.518  0.00  0.00    +0.000 A 
ATOM      5  C   UNL     1       7.362   4.596  12.009  0.00  0.00    +0.000 A 
ATOM      6  C   UNL     1       8.140   5.385  12.852  0.00  0.00    +0.000 A 
ATOM      7  C   UNL     1       7.858   5.479  14.222  0.00  0.00    +0.000 A 
ATOM      8  C   UNL     1       6.758   4.761  14.719  0.00  0.00    +0.000 A 
ATOM      9  N   UNL     1       6.131   4.642  15.946  0.00  0.00    +0.000 N 
ENDROOT
BRANCH   1  14
ATOM     10  C   UNL     1       0.974   3.339  18.363  0.00  0.00    +0.000 C 
ATOM     11  C   UNL     1       2.384   3.020  18.074  0.00  0.00    +0.000 A 
ATOM     12  C   UNL     1       3.310   2.165  18.624  0.00  0.00    +0.000 A 
ATOM     13  C   UNL     1       4.490   2.323  17.855  0.00  0.00    +0.000 A 
ATOM     14  C   UNL     1       4.221   3.258  16.865  0.00  0.00    +0.000 A 
ATOM     15  O   UNL     1       2.936   3.686  17.032  0.00  0.00    +0.000 OA
ENDBRANCH   1  14
BRANCH   9  16
ATOM     16  S   UNL     1       6.523   5.525  17.335  0.00  0.00    +0.000 S 
ATOM     17  O   UNL     1       7.112   4.601  18.285  0.00  0.00    +0.000 OA
ATOM     18  O   UNL     1       7.273   6.677  16.865  0.00  0.00    +0.000 OA
BRANCH  16  19
ATOM     19  C   UNL     1       4.997   6.055  18.065  0.00  0.00    +0.000 A 
ATOM     20  C   UNL     1       4.606   5.583  19.323  0.00  0.00    +0.000 A 
ATOM     21  C   UNL     1       3.371   5.974  19.844  0.00  0.00    +0.000 A 
ATOM     22  C   UNL     1       2.548   6.843  19.125  0.00  0.00    +0.000 A 
ATOM     23  C   UNL     1       2.960   7.343  17.890  0.00  0.00    +0.000 A 
ATOM     24  C   UNL     1       4.191   6.949  17.355  0.00  0.00    +0.000 A 
ENDBRANCH  16  19
ENDBRANCH   9  16
TORSDOF 3
ENDMDL
MODEL 7
REMARK VINA RESULT:      -7.0      1.668      2.370
REMARK  Name = 
REMARK  4 active torsions:
REMARK  status: ('A' for Active; 'I' for Inactive)
REMARK    1  A    between atoms: C_1  and  C_2
REMARK    2  A    between atoms: C_5  and  C_6
REMARK    3  A    between atoms: N_14  and  S_15
REMARK    4  A    between atoms: S_15  and  C_18
REMARK                            x       y       z     vdW  Elec       q    Type
REMARK                         _______ _______ _______ _____ _____    ______ ____
ROOT
ATOM      1  C   UNL     1       3.675   7.180  17.714  0.00  0.00    +0.000 A 
ATOM      2  N   UNL     1       3.093   8.245  17.186  0.00  0.00    +0.000 NA
ATOM      3  C   UNL     1       2.148   8.651  18.092  0.00  0.00    +0.000 A 
ATOM      4  C   UNL     1       1.235   9.713  17.989  0.00  0.00    +0.000 A 
ATOM      5  C   UNL     1       0.355   9.957  19.047  0.00  0.00    +0.000 A 
ATOM      6  C   UNL     1       0.401   9.175  20.199  0.00  0.00    +0.000 A 
ATOM      7  C   UNL     1       1.308   8.114  20.320  0.00  0.00    +0.000 A 
ATOM      8  C   UNL     1       2.164   7.853  19.237  0.00  0.00    +0.000 A 
ATOM      9  N   UNL     1       3.118   6.896  18.943  0.00  0.00    +0.000 N 
ENDROOT
BRANCH   1  14
ATOM     10  C   UNL     1       5.733   3.921  14.765  0.00  0.00    +0.000 C 
ATOM     11  C   UNL     1       5.761   5.043  15.722  0.00  0.00    +0.000 A 
ATOM     12  C   UNL     1       6.755   5.829  16.256  0.00  0.00    +0.000 A 
ATOM     13  C   UNL     1       6.102   6.756  17.106  0.00  0.00    +0.000 A 
ATOM     14  C   UNL     1       4.740   6.497  17.040  0.00  0.00    +0.000 A 
ATOM     15  O   UNL     1       4.557   5.433  16.205  0.00  0.00    +0.000 OA
ENDBRANCH   1  14
BRANCH   9  16
ATOM     16  S   UNL     1       3.487   5.553  19.903  0.00  0.00    +0.000 S 
ATOM     17  O   UNL     1       4.932   5.440  19.956  0.00  0.00    +0.000 OA
ATOM     18  O   UNL     1       2.716   5.724  21.122  0.00  0.00    +0.000 OA
BRANCH  16  19
ATOM     19  C   UNL     1       2.925   4.116  19.030  0.00  0.00    +0.000 A 
ATOM     20  C   UNL     1       1.557   3.879  18.851  0.00  0.00    +0.000 A 
ATOM     21  C   UNL     1       1.146   2.709  18.211  0.00  0.00    +0.000 A 
ATOM     22  C   UNL     1       2.091   1.798  17.737  0.00  0.00    +0.000 A 
ATOM     23  C   UNL     1       3.454   2.057  17.882  0.00  0.00    +0.000 A 
ATOM     24  C   UNL     1       3.876   3.222  18.531  0.00  0.00    +0.000 A 
ENDBRANCH  16  19
ENDBRANCH   9  16
TORSDOF 3
ENDMDL
MODEL 8
REMARK VINA RESULT:      -6.9      5.990      8.589
REMARK  Name = 
REMARK  4 active torsions:
REMARK  status: ('A' for Active; 'I' for Inactive)
REMARK    1  A    between atoms: C_1  and  C_2
REMARK    2  A    between atoms: C_5  and  C_6
REMARK    3  A    between atoms: N_14  and  S_15
REMARK    4  A    between atoms: S_15  and  C_18
REMARK                            x       y       z     vdW  Elec       q    Type
REMARK                         _______ _______ _______ _____ _____    ______ ____
ROOT
ATOM      1  C   UNL     1      -0.657  12.236  18.683  0.00  0.00    +0.000 A 
ATOM      2  N   UNL     1      -0.425  13.447  18.199  0.00  0.00    +0.000 NA
ATOM      3  C   UNL     1       0.690  13.910  18.848  0.00  0.00    +0.000 A 
ATOM      4  C   UNL     1       1.321  15.158  18.722  0.00  0.00    +0.000 A 
ATOM      5  C   UNL     1       2.464  15.420  19.482  0.00  0.00    +0.000 A 
ATOM      6  C   UNL     1       2.985  14.448  20.332  0.00  0.00    +0.000 A 
ATOM      7  C   UNL     1       2.370  13.197  20.467  0.00  0.00    +0.000 A 
ATOM      8  C   UNL     1       1.201  12.955  19.727  0.00  0.00    +0.000 A 
ATOM      9  N   UNL     1       0.291  11.917  19.631  0.00  0.00    +0.000 N 
ENDROOT
BRANCH   1  14
ATOM     10  C   UNL     1      -5.282  10.887  18.100  0.00  0.00    +0.000 C 
ATOM     11  C   UNL     1      -3.827  10.748  17.898  0.00  0.00    +0.000 A 
ATOM     12  C   UNL     1      -3.032   9.879  17.189  0.00  0.00    +0.000 A 
ATOM     13  C   UNL     1      -1.700  10.315  17.395  0.00  0.00    +0.000 A 
ATOM     14  C   UNL     1      -1.749  11.437  18.211  0.00  0.00    +0.000 A 
ATOM     15  O   UNL     1      -3.057  11.671  18.523  0.00  0.00    +0.000 OA
ENDBRANCH   1  14
BRANCH   9  16
ATOM     16  S   UNL     1       0.300  10.516  20.580  0.00  0.00    +0.000 S 
ATOM     17  O   UNL     1       1.059  10.809  21.781  0.00  0.00    +0.000 OA
ATOM     18  O   UNL     1      -1.089  10.100  20.670  0.00  0.00    +0.000 OA
BRANCH  16  19
ATOM     19  C   UNL     1       1.240   9.296  19.703  0.00  0.00    +0.000 A 
ATOM     20  C   UNL     1       1.621   9.508  18.373  0.00  0.00    +0.000 A 
ATOM     21  C   UNL     1       2.310   8.503  17.693  0.00  0.00    +0.000 A 
ATOM     22  C   UNL     1       2.632   7.309  18.341  0.00  0.00    +0.000 A 
ATOM     23  C   UNL     1       2.286   7.118  19.678  0.00  0.00    +0.000 A 
ATOM     24  C   UNL     1       1.587   8.115  20.366  0.00  0.00    +0.000 A 
ENDBRANCH  16  19
ENDBRANCH   9  16
TORSDOF 3
ENDMDL
MODEL 9
REMARK VINA RESULT:      -6.9      1.851      5.686
REMARK  Name = 
REMARK  4 active torsions:
REMARK  status: ('A' for Active; 'I' for Inactive)
REMARK    1  A    between atoms: C_1  and  C_2
REMARK    2  A    between atoms: C_5  and  C_6
REMARK    3  A    between atoms: N_14  and  S_15
REMARK    4  A    between atoms: S_15  and  C_18
REMARK                            x       y       z     vdW  Elec       q    Type
REMARK                         _______ _______ _______ _____ _____    ______ ____
ROOT
ATOM      1  C   UNL     1       5.084   3.876  15.964  0.00  0.00    +0.000 A 
ATOM      2  N   UNL     1       5.011   3.311  14.769  0.00  0.00    +0.000 NA
ATOM      3  C   UNL     1       5.973   3.916  14.002  0.00  0.00    +0.000 A 
ATOM      4  C   UNL     1       6.276   3.700  12.647  0.00  0.00    +0.000 A 
ATOM      5  C   UNL     1       7.314   4.429  12.060  0.00  0.00    +0.000 A 
ATOM      6  C   UNL     1       8.055   5.336  12.814  0.00  0.00    +0.000 A 
ATOM      7  C   UNL     1       7.768   5.561  14.167  0.00  0.00    +0.000 A 
ATOM      8  C   UNL     1       6.699   4.850  14.740  0.00  0.00    +0.000 A 
ATOM      9  N   UNL     1       6.076   4.833  15.974  0.00  0.00    +0.000 N 
ENDROOT
BRANCH   1  14
ATOM     10  C   UNL     1       3.933   2.179  20.362  0.00  0.00    +0.000 C 
ATOM     11  C   UNL     1       3.614   2.701  19.020  0.00  0.00    +0.000 A 
ATOM     12  C   UNL     1       2.448   3.013  18.360  0.00  0.00    +0.000 A 
ATOM     13  C   UNL     1       2.841   3.498  17.087  0.00  0.00    +0.000 A 
ATOM     14  C   UNL     1       4.227   3.470  17.039  0.00  0.00    +0.000 A 
ATOM     15  O   UNL     1       4.677   2.960  18.222  0.00  0.00    +0.000 OA
ENDBRANCH   1  14
BRANCH   9  16
ATOM     16  S   UNL     1       6.426   5.873  17.263  0.00  0.00    +0.000 S 
ATOM     17  O   UNL     1       7.028   5.075  18.314  0.00  0.00    +0.000 OA
ATOM     18  O   UNL     1       7.152   6.987  16.677  0.00  0.00    +0.000 OA
BRANCH  16  19
ATOM     19  C   UNL     1       4.878   6.437  17.915  0.00  0.00    +0.000 A 
ATOM     20  C   UNL     1       4.449   6.033  19.185  0.00  0.00    +0.000 A 
ATOM     21  C   UNL     1       3.198   6.447  19.645  0.00  0.00    +0.000 A 
ATOM     22  C   UNL     1       2.396   7.272  18.855  0.00  0.00    +0.000 A 
ATOM     23  C   UNL     1       2.845   7.705  17.607  0.00  0.00    +0.000 A 
ATOM     24  C   UNL     1       4.092   7.287  17.133  0.00  0.00    +0.000 A 
ENDBRANCH  16  19
ENDBRANCH   9  16
TORSDOF 3
ENDMDL
