MODEL 1
REMARK VINA RESULT:      -6.4      0.000      0.000
REMARK  Name = 
REMARK  8 active torsions:
REMARK  status: ('A' for Active; 'I' for Inactive)
REMARK    1  A    between atoms: C_1  and  N_2
REMARK    2  A    between atoms: N_2  and  C_3
REMARK    3  A    between atoms: N_2  and  C_4
REMARK    4  A    between atoms: C_4  and  C_5
REMARK    5  A    between atoms: C_5  and  O_6
REMARK    6  A    between atoms: C_10  and  C_12
REMARK    7  A    between atoms: C_15  and  C_16
REMARK    8  A    between atoms: C_16  and  N_17
REMARK                            x       y       z     vdW  Elec       q    Type
REMARK                         _______ _______ _______ _____ _____    ______ ____
ROOT
ATOM      1  C   UNL     1      -1.755  11.709  18.218  0.00  0.00    +0.000 C 
ATOM      2  C   UNL     1      -1.999  12.342  19.609  0.00  0.00    +0.000 C 
ATOM      3  C   UNL     1      -0.621  12.372  20.253  0.00  0.00    +0.000 C 
ATOM      4  N   UNL     1       0.013  11.165  19.758  0.00  0.00    +0.000 N 
ATOM      5  C   UNL     1       0.803  10.362  20.572  0.00  0.00    +0.000 C 
ATOM      6  O   UNL     1       0.945  10.661  21.767  0.00  0.00    +0.000 OA
ATOM      7  C   UNL     1      -0.491  10.856  18.412  0.00  0.00    +0.000 C 
ENDROOT
BRANCH   5   8
ATOM      8  C   UNL     1       1.422   9.204  19.985  0.00  0.00    +0.000 A 
ATOM      9  C   UNL     1       1.964   9.027  18.733  0.00  0.00    +0.000 A 
ATOM     10  N   UNL     1       2.488   7.777  18.448  0.00  0.00    +0.000 NA
ATOM     11  C   UNL     1       2.347   6.998  19.500  0.00  0.00    +0.000 A 
ATOM     12  S   UNL     1       1.628   7.744  20.878  0.00  0.00    +0.000 S 
BRANCH  11  13
ATOM     13  C   UNL     1       2.802   5.550  19.537  0.00  0.00    +0.000 C 
BRANCH  13  14
ATOM     14  N   UNL     1       1.759   4.592  19.957  0.00  0.00    +0.000 NA
ATOM     15  C   UNL     1       1.613   3.461  19.036  0.00  0.00    +0.000 C 
ATOM     16  C   UNL     1       1.043   2.347  19.894  0.00  0.00    +0.000 C 
ATOM     17  C   UNL     1       1.658   2.577  21.260  0.00  0.00    +0.000 C 
ATOM     18  C   UNL     1       2.002   4.060  21.305  0.00  0.00    +0.000 C 
ENDBRANCH  13  14
ENDBRANCH  11  13
ENDBRANCH   5   8
BRANCH   1  19
ATOM     19  O   UNL     1      -1.430  12.786  17.316  0.00  0.00    +0.000 OA
ATOM     20  H   UNL     1      -1.781  12.548  16.446  0.00  0.00    +0.000 HD
ENDBRANCH   1  19
BRANCH   1  21
ATOM     21  C   UNL     1      -3.008  10.928  17.714  0.00  0.00    +0.000 C 
BRANCH  21  23
ATOM     22  C   UNL     1      -3.798  10.628  15.452  0.00  0.00    +0.000 C 
ATOM     23  N   UNL     1      -3.843  11.509  16.629  0.00  0.00    +0.000 NA
ATOM     24  C   UNL     1      -5.245  11.719  16.998  0.00  0.00    +0.000 C 
ENDBRANCH  21  23
ENDBRANCH   1  21
TORSDOF 6
ENDMDL
MODEL 2
REMARK VINA RESULT:      -6.4      0.938      1.388
REMARK  Name = 
REMARK  8 active torsions:
REMARK  status: ('A' for Active; 'I' for Inactive)
REMARK    1  A    between atoms: C_1  and  N_2
REMARK    2  A    between atoms: N_2  and  C_3
REMARK    3  A    between atoms: N_2  and  C_4
REMARK    4  A    between atoms: C_4  and  C_5
REMARK    5  A    between atoms: C_5  and  O_6
REMARK    6  A    between atoms: C_10  and  C_12
REMARK    7  A    between atoms: C_15  and  C_16
REMARK    8  A    between atoms: C_16  and  N_17
REMARK                            x       y       z     vdW  Elec       q    Type
REMARK                         _______ _______ _______ _____ _____    ______ ____
ROOT
ATOM      1  C   UNL     1      -1.711  11.697  18.245  0.00  0.00    +0.000 C 
ATOM      2  C   UNL     1      -1.914  12.426  19.596  0.00  0.00    +0.000 C 
ATOM      3  C   UNL     1      -0.533  12.419  20.235  0.00  0.00    +0.000 C 
ATOM      4  N   UNL     1       0.031  11.150  19.814  0.00  0.00    +0.000 N 
ATOM      5  C   UNL     1       0.778  10.356  20.675  0.00  0.00    +0.000 C 
ATOM      6  O   UNL     1       0.942  10.719  21.850  0.00  0.00    +0.000 OA
ATOM      7  C   UNL     1      -0.496  10.788  18.490  0.00  0.00    +0.000 C 
ENDROOT
BRANCH   5   8
ATOM      8  C   UNL     1       1.330   9.132  20.159  0.00  0.00    +0.000 A 
ATOM      9  C   UNL     1       1.924   8.868  18.947  0.00  0.00    +0.000 A 
ATOM     10  N   UNL     1       2.356   7.570  18.729  0.00  0.00    +0.000 NA
ATOM     11  C   UNL     1       2.092   6.842  19.794  0.00  0.00    +0.000 A 
ATOM     12  S   UNL     1       1.361   7.691  21.104  0.00  0.00    +0.000 S 
BRANCH  11  13
ATOM     13  C   UNL     1       2.419   5.363  19.899  0.00  0.00    +0.000 C 
BRANCH  13  14
ATOM     14  N   UNL     1       2.548   4.672  18.601  0.00  0.00    +0.000 NA
ATOM     15  C   UNL     1       3.898   4.153  18.357  0.00  0.00    +0.000 C 
ATOM     16  C   UNL     1       3.692   2.999  17.395  0.00  0.00    +0.000 C 
ATOM     17  C   UNL     1       2.349   2.418  17.792  0.00  0.00    +0.000 C 
ATOM     18  C   UNL     1       1.597   3.560  18.465  0.00  0.00    +0.000 C 
ENDBRANCH  13  14
ENDBRANCH  11  13
ENDBRANCH   5   8
BRANCH   1  19
ATOM     19  O   UNL     1      -1.331  12.697  17.279  0.00  0.00    +0.000 OA
ATOM     20  H   UNL     1      -0.447  12.468  16.960  0.00  0.00    +0.000 HD
ENDBRANCH   1  19
BRANCH   1  21
ATOM     21  C   UNL     1      -3.008  10.957  17.791  0.00  0.00    +0.000 C 
BRANCH  21  23
ATOM     22  C   UNL     1      -3.769  10.646  15.521  0.00  0.00    +0.000 C 
ATOM     23  N   UNL     1      -3.829  11.532  16.693  0.00  0.00    +0.000 NA
ATOM     24  C   UNL     1      -5.236  11.743  17.043  0.00  0.00    +0.000 C 
ENDBRANCH  21  23
ENDBRANCH   1  21
TORSDOF 6
ENDMDL
MODEL 3
REMARK VINA RESULT:      -6.3      5.926      9.134
REMARK  Name = 
REMARK  8 active torsions:
REMARK  status: ('A' for Active; 'I' for Inactive)
REMARK    1  A    between atoms: C_1  and  N_2
REMARK    2  A    between atoms: N_2  and  C_3
REMARK    3  A    between atoms: N_2  and  C_4
REMARK    4  A    between atoms: C_4  and  C_5
REMARK    5  A    between atoms: C_5  and  O_6
REMARK    6  A    between atoms: C_10  and  C_12
REMARK    7  A    between atoms: C_15  and  C_16
REMARK    8  A    between atoms: C_16  and  N_17
REMARK                            x       y       z     vdW  Elec       q    Type
REMARK                         _______ _______ _______ _____ _____    ______ ____
ROOT
ATOM      1  C   UNL     1       3.282   4.613  19.022  0.00  0.00    +0.000 C 
ATOM      2  C   UNL     1       3.187   3.803  17.707  0.00  0.00    +0.000 C 
ATOM      3  C   UNL     1       4.629   3.431  17.392  0.00  0.00    +0.000 C 
ATOM      4  N   UNL     1       5.385   4.581  17.852  0.00  0.00    +0.000 N 
ATOM      5  C   UNL     1       6.460   5.089  17.133  0.00  0.00    +0.000 C 
ATOM      6  O   UNL     1       6.767   4.571  16.049  0.00  0.00    +0.000 OA
ATOM      7  C   UNL     1       4.703   5.196  19.001  0.00  0.00    +0.000 C 
ENDROOT
BRANCH   5   8
ATOM      8  C   UNL     1       7.174   6.209  17.685  0.00  0.00    +0.000 A 
ATOM      9  C   UNL     1       8.029   6.273  18.761  0.00  0.00    +0.000 A 
ATOM     10  N   UNL     1       8.566   7.515  19.062  0.00  0.00    +0.000 NA
ATOM     11  C   UNL     1       8.118   8.401  18.197  0.00  0.00    +0.000 A 
ATOM     12  S   UNL     1       7.079   7.776  16.972  0.00  0.00    +0.000 S 
BRANCH  11  13
ATOM     13  C   UNL     1       8.494   9.872  18.235  0.00  0.00    +0.000 C 
BRANCH  13  14
ATOM     14  N   UNL     1       9.632  10.189  19.121  0.00  0.00    +0.000 NA
ATOM     15  C   UNL     1      10.588  11.122  18.516  0.00  0.00    +0.000 C 
ATOM     16  C   UNL     1      11.255  11.799  19.699  0.00  0.00    +0.000 C 
ATOM     17  C   UNL     1      10.165  11.872  20.750  0.00  0.00    +0.000 C 
ATOM     18  C   UNL     1       9.198  10.746  20.409  0.00  0.00    +0.000 C 
ENDBRANCH  13  14
ENDBRANCH  11  13
ENDBRANCH   5   8
BRANCH   1  19
ATOM     19  O   UNL     1       3.205   3.667  20.107  0.00  0.00    +0.000 OA
ATOM     20  H   UNL     1       2.553   2.997  19.859  0.00  0.00    +0.000 HD
ENDBRANCH   1  19
BRANCH   1  21
ATOM     21  C   UNL     1       2.137   5.669  19.130  0.00  0.00    +0.000 C 
BRANCH  21  23
ATOM     22  C   UNL     1       2.338   7.913  18.261  0.00  0.00    +0.000 C 
ATOM     23  N   UNL     1       2.474   7.078  19.464  0.00  0.00    +0.000 NA
ATOM     24  C   UNL     1       1.647   7.657  20.526  0.00  0.00    +0.000 C 
ENDBRANCH  21  23
ENDBRANCH   1  21
TORSDOF 6
ENDMDL
MODEL 4
REMARK VINA RESULT:      -6.2      2.229      2.980
REMARK  Name = 
REMARK  8 active torsions:
REMARK  status: ('A' for Active; 'I' for Inactive)
REMARK    1  A    between atoms: C_1  and  N_2
REMARK    2  A    between atoms: N_2  and  C_3
REMARK    3  A    between atoms: N_2  and  C_4
REMARK    4  A    between atoms: C_4  and  C_5
REMARK    5  A    between atoms: C_5  and  O_6
REMARK    6  A    between atoms: C_10  and  C_12
REMARK    7  A    between atoms: C_15  and  C_16
REMARK    8  A    between atoms: C_16  and  N_17
REMARK                            x       y       z     vdW  Elec       q    Type
REMARK                         _______ _______ _______ _____ _____    ______ ____
ROOT
ATOM      1  C   UNL     1      -1.605  11.212  18.070  0.00  0.00    +0.000 C 
ATOM      2  C   UNL     1      -1.974  11.399  19.561  0.00  0.00    +0.000 C 
ATOM      3  C   UNL     1      -0.635  11.383  20.282  0.00  0.00    +0.000 C 
ATOM      4  N   UNL     1       0.152  10.433  19.518  0.00  0.00    +0.000 N 
ATOM      5  C   UNL     1       0.996   9.515  20.133  0.00  0.00    +0.000 C 
ATOM      6  O   UNL     1       1.057   9.478  21.371  0.00  0.00    +0.000 OA
ATOM      7  C   UNL     1      -0.261  10.467  18.108  0.00  0.00    +0.000 C 
ENDROOT
BRANCH   5   8
ATOM      8  C   UNL     1       1.766   8.637  19.293  0.00  0.00    +0.000 A 
ATOM      9  C   UNL     1       2.297   8.846  18.041  0.00  0.00    +0.000 A 
ATOM     10  N   UNL     1       2.994   7.792  17.472  0.00  0.00    +0.000 NA
ATOM     11  C   UNL     1       2.997   6.774  18.307  0.00  0.00    +0.000 A 
ATOM     12  S   UNL     1       2.209   7.055  19.814  0.00  0.00    +0.000 S 
BRANCH  11  13
ATOM     13  C   UNL     1       3.662   5.443  18.002  0.00  0.00    +0.000 C 
BRANCH  13  14
ATOM     14  N   UNL     1       4.654   5.493  16.909  0.00  0.00    +0.000 NA
ATOM     15  C   UNL     1       5.984   5.913  17.359  0.00  0.00    +0.000 C 
ATOM     16  C   UNL     1       6.936   5.305  16.346  0.00  0.00    +0.000 C 
ATOM     17  C   UNL     1       6.274   4.000  15.949  0.00  0.00    +0.000 C 
ATOM     18  C   UNL     1       4.788   4.201  16.221  0.00  0.00    +0.000 C 
ENDBRANCH  13  14
ENDBRANCH  11  13
ENDBRANCH   5   8
BRANCH   1  19
ATOM     19  O   UNL     1      -1.370  12.525  17.524  0.00  0.00    +0.000 OA
ATOM     20  H   UNL     1      -0.606  12.460  16.934  0.00  0.00    +0.000 HD
ENDBRANCH   1  19
BRANCH   1  21
ATOM     21  C   UNL     1      -2.740  10.484  17.284  0.00  0.00    +0.000 C 
BRANCH  21  23
ATOM     22  C   UNL     1      -3.649  10.430  15.047  0.00  0.00    +0.000 C 
ATOM     23  N   UNL     1      -3.525  11.237  16.270  0.00  0.00    +0.000 NA
ATOM     24  C   UNL     1      -4.869  11.618  16.712  0.00  0.00    +0.000 C 
ENDBRANCH  21  23
ENDBRANCH   1  21
TORSDOF 6
ENDMDL
MODEL 5
REMARK VINA RESULT:      -6.2      1.595      1.747
REMARK  Name = 
REMARK  8 active torsions:
REMARK  status: ('A' for Active; 'I' for Inactive)
REMARK    1  A    between atoms: C_1  and  N_2
REMARK    2  A    between atoms: N_2  and  C_3
REMARK    3  A    between atoms: N_2  and  C_4
REMARK    4  A    between atoms: C_4  and  C_5
REMARK    5  A    between atoms: C_5  and  O_6
REMARK    6  A    between atoms: C_10  and  C_12
REMARK    7  A    between atoms: C_15  and  C_16
REMARK    8  A    between atoms: C_16  and  N_17
REMARK                            x       y       z     vdW  Elec       q    Type
REMARK                         _______ _______ _______ _____ _____    ______ ____
ROOT
ATOM      1  C   UNL     1      -1.786  11.601  18.351  0.00  0.00    +0.000 C 
ATOM      2  C   UNL     1      -1.840  12.498  19.611  0.00  0.00    +0.000 C 
ATOM      3  C   UNL     1      -0.412  12.493  20.135  0.00  0.00    +0.000 C 
ATOM      4  N   UNL     1       0.058  11.154  19.832  0.00  0.00    +0.000 N 
ATOM      5  C   UNL     1       0.840  10.431  20.724  0.00  0.00    +0.000 C 
ATOM      6  O   UNL     1       1.120  10.924  21.827  0.00  0.00    +0.000 OA
ATOM      7  C   UNL     1      -0.596  10.664  18.610  0.00  0.00    +0.000 C 
ENDROOT
BRANCH   5   8
ATOM      8  C   UNL     1       1.291   9.125  20.323  0.00  0.00    +0.000 A 
ATOM      9  C   UNL     1       1.256   7.928  21.000  0.00  0.00    +0.000 A 
ATOM     10  N   UNL     1       1.781   6.823  20.349  0.00  0.00    +0.000 NA
ATOM     11  C   UNL     1       2.214   7.188  19.160  0.00  0.00    +0.000 A 
ATOM     12  S   UNL     1       1.968   8.847  18.762  0.00  0.00    +0.000 S 
BRANCH  11  13
ATOM     13  C   UNL     1       2.864   6.230  18.176  0.00  0.00    +0.000 C 
BRANCH  13  14
ATOM     14  N   UNL     1       2.765   4.806  18.553  0.00  0.00    +0.000 NA
ATOM     15  C   UNL     1       1.742   4.081  17.796  0.00  0.00    +0.000 C 
ATOM     16  C   UNL     1       2.205   2.636  17.821  0.00  0.00    +0.000 C 
ATOM     17  C   UNL     1       3.718   2.730  17.809  0.00  0.00    +0.000 C 
ATOM     18  C   UNL     1       4.043   4.098  18.395  0.00  0.00    +0.000 C 
ENDBRANCH  13  14
ENDBRANCH  11  13
ENDBRANCH   5   8
BRANCH   1  19
ATOM     19  O   UNL     1      -1.446  12.454  17.240  0.00  0.00    +0.000 OA
ATOM     20  H   UNL     1      -1.107  13.283  17.606  0.00  0.00    +0.000 HD
ENDBRANCH   1  19
BRANCH   1  21
ATOM     21  C   UNL     1      -3.148  10.883  18.098  0.00  0.00    +0.000 C 
BRANCH  21  23
ATOM     22  C   UNL     1      -4.875  11.695  16.618  0.00  0.00    +0.000 C 
ATOM     23  N   UNL     1      -4.393  11.691  18.007  0.00  0.00    +0.000 NA
ATOM     24  C   UNL     1      -5.478  11.221  18.872  0.00  0.00    +0.000 C 
ENDBRANCH  21  23
ENDBRANCH   1  21
TORSDOF 6
ENDMDL
MODEL 6
REMARK VINA RESULT:      -6.2      0.943      1.178
REMARK  Name = 
REMARK  8 active torsions:
REMARK  status: ('A' for Active; 'I' for Inactive)
REMARK    1  A    between atoms: C_1  and  N_2
REMARK    2  A    between atoms: N_2  and  C_3
REMARK    3  A    between atoms: N_2  and  C_4
REMARK    4  A    between atoms: C_4  and  C_5
REMARK    5  A    between atoms: C_5  and  O_6
REMARK    6  A    between atoms: C_10  and  C_12
REMARK    7  A    between atoms: C_15  and  C_16
REMARK    8  A    between atoms: C_16  and  N_17
REMARK                            x       y       z     vdW  Elec       q    Type
REMARK                         _______ _______ _______ _____ _____    ______ ____
ROOT
ATOM      1  C   UNL     1      -1.413  12.208  18.212  0.00  0.00    +0.000 C 
ATOM      2  C   UNL     1      -1.872  12.696  19.607  0.00  0.00    +0.000 C 
ATOM      3  C   UNL     1      -0.638  12.536  20.483  0.00  0.00    +0.000 C 
ATOM      4  N   UNL     1       0.000  11.344  19.958  0.00  0.00    +0.000 N 
ATOM      5  C   UNL     1       0.573  10.389  20.791  0.00  0.00    +0.000 C 
ATOM      6  O   UNL     1       0.509  10.537  22.020  0.00  0.00    +0.000 OA
ATOM      7  C   UNL     1      -0.264  11.233  18.516  0.00  0.00    +0.000 C 
ENDROOT
BRANCH   5   8
ATOM      8  C   UNL     1       1.216   9.257  20.180  0.00  0.00    +0.000 A 
ATOM      9  C   UNL     1       1.710   9.099  18.906  0.00  0.00    +0.000 A 
ATOM     10  N   UNL     1       2.276   7.871  18.601  0.00  0.00    +0.000 NA
ATOM     11  C   UNL     1       2.215   7.091  19.660  0.00  0.00    +0.000 A 
ATOM     12  S   UNL     1       1.524   7.811  21.066  0.00  0.00    +0.000 S 
BRANCH  11  13
ATOM     13  C   UNL     1       2.734   5.664  19.680  0.00  0.00    +0.000 C 
BRANCH  13  14
ATOM     14  N   UNL     1       1.751   4.651  19.247  0.00  0.00    +0.000 NA
ATOM     15  C   UNL     1       2.321   3.647  18.344  0.00  0.00    +0.000 C 
ATOM     16  C   UNL     1       1.441   2.426  18.532  0.00  0.00    +0.000 C 
ATOM     17  C   UNL     1       1.033   2.482  19.991  0.00  0.00    +0.000 C 
ATOM     18  C   UNL     1       1.136   3.950  20.384  0.00  0.00    +0.000 C 
ENDBRANCH  13  14
ENDBRANCH  11  13
ENDBRANCH   5   8
BRANCH   1  19
ATOM     19  O   UNL     1      -0.859  13.348  17.526  0.00  0.00    +0.000 OA
ATOM     20  H   UNL     1      -1.156  13.302  16.606  0.00  0.00    +0.000 HD
ENDBRANCH   1  19
BRANCH   1  21
ATOM     21  C   UNL     1      -2.598  11.597  17.400  0.00  0.00    +0.000 C 
BRANCH  21  23
ATOM     22  C   UNL     1      -3.501   9.388  17.765  0.00  0.00    +0.000 C 
ATOM     23  N   UNL     1      -2.537  10.172  16.979  0.00  0.00    +0.000 NA
ATOM     24  C   UNL     1      -2.811   9.954  15.556  0.00  0.00    +0.000 C 
ENDBRANCH  21  23
ENDBRANCH   1  21
TORSDOF 6
ENDMDL
MODEL 7
REMARK VINA RESULT:      -6.1      2.968      7.933
REMARK  Name = 
REMARK  8 active torsions:
REMARK  status: ('A' for Active; 'I' for Inactive)
REMARK    1  A    between atoms: C_1  and  N_2
REMARK    2  A    between atoms: N_2  and  C_3
REMARK    3  A    between atoms: N_2  and  C_4
REMARK    4  A    between atoms: C_4  and  C_5
REMARK    5  A    between atoms: C_5  and  O_6
REMARK    6  A    between atoms: C_10  and  C_12
REMARK    7  A    between atoms: C_15  and  C_16
REMARK    8  A    between atoms: C_16  and  N_17
REMARK                            x       y       z     vdW  Elec       q    Type
REMARK                         _______ _______ _______ _____ _____    ______ ____
ROOT
ATOM      1  C   UNL     1       2.377   6.027  19.792  0.00  0.00    +0.000 C 
ATOM      2  C   UNL     1       2.330   6.061  18.246  0.00  0.00    +0.000 C 
ATOM      3  C   UNL     1       2.686   7.498  17.893  0.00  0.00    +0.000 C 
ATOM      4  N   UNL     1       2.090   8.270  18.968  0.00  0.00    +0.000 N 
ATOM      5  C   UNL     1       1.444   9.477  18.734  0.00  0.00    +0.000 C 
ATOM      6  O   UNL     1       1.339   9.897  17.572  0.00  0.00    +0.000 OA
ATOM      7  C   UNL     1       2.094   7.479  20.207  0.00  0.00    +0.000 C 
ENDROOT
BRANCH   5   8
ATOM      8  C   UNL     1       0.915  10.192  19.866  0.00  0.00    +0.000 A 
ATOM      9  C   UNL     1       1.387  11.315  20.504  0.00  0.00    +0.000 A 
ATOM     10  N   UNL     1       0.656  11.774  21.588  0.00  0.00    +0.000 NA
ATOM     11  C   UNL     1      -0.387  10.990  21.769  0.00  0.00    +0.000 A 
ATOM     12  S   UNL     1      -0.555   9.711  20.626  0.00  0.00    +0.000 S 
BRANCH  11  13
ATOM     13  C   UNL     1      -1.402  11.191  22.881  0.00  0.00    +0.000 C 
BRANCH  13  14
ATOM     14  N   UNL     1      -2.246  12.393  22.727  0.00  0.00    +0.000 NA
ATOM     15  C   UNL     1      -2.883  12.483  21.410  0.00  0.00    +0.000 C 
ATOM     16  C   UNL     1      -4.124  13.324  21.647  0.00  0.00    +0.000 C 
ATOM     17  C   UNL     1      -4.559  12.958  23.053  0.00  0.00    +0.000 C 
ATOM     18  C   UNL     1      -3.297  12.470  23.752  0.00  0.00    +0.000 C 
ENDBRANCH  13  14
ENDBRANCH  11  13
ENDBRANCH   5   8
BRANCH   1  19
ATOM     19  O   UNL     1       3.732   5.713  20.167  0.00  0.00    +0.000 OA
ATOM     20  H   UNL     1       4.176   6.549  20.371  0.00  0.00    +0.000 HD
ENDBRANCH   1  19
BRANCH   1  21
ATOM     21  C   UNL     1       1.386   4.969  20.373  0.00  0.00    +0.000 C 
BRANCH  21  23
ATOM     22  C   UNL     1       1.572   2.898  21.600  0.00  0.00    +0.000 C 
ATOM     23  N   UNL     1       1.723   3.524  20.278  0.00  0.00    +0.000 NA
ATOM     24  C   UNL     1       0.907   2.780  19.316  0.00  0.00    +0.000 C 
ENDBRANCH  21  23
ENDBRANCH   1  21
TORSDOF 6
ENDMDL
MODEL 8
REMARK VINA RESULT:      -6.1      3.143      8.221
REMARK  Name = 
REMARK  8 active torsions:
REMARK  status: ('A' for Active; 'I' for Inactive)
REMARK    1  A    between atoms: C_1  and  N_2
REMARK    2  A    between atoms: N_2  and  C_3
REMARK    3  A    between atoms: N_2  and  C_4
REMARK    4  A    between atoms: C_4  and  C_5
REMARK    5  A    between atoms: C_5  and  O_6
REMARK    6  A    between atoms: C_10  and  C_12
REMARK    7  A    between atoms: C_15  and  C_16
REMARK    8  A    between atoms: C_16  and  N_17
REMARK                            x       y       z     vdW  Elec       q    Type
REMARK                         _______ _______ _______ _____ _____    ______ ____
ROOT
ATOM      1  C   UNL     1       2.412   5.923  19.679  0.00  0.00    +0.000 C 
ATOM      2  C   UNL     1       2.454   6.279  18.174  0.00  0.00    +0.000 C 
ATOM      3  C   UNL     1       2.627   7.790  18.152  0.00  0.00    +0.000 C 
ATOM      4  N   UNL     1       1.866   8.237  19.303  0.00  0.00    +0.000 N 
ATOM      5  C   UNL     1       1.073   9.377  19.263  0.00  0.00    +0.000 C 
ATOM      6  O   UNL     1       0.980  10.017  18.205  0.00  0.00    +0.000 OA
ATOM      7  C   UNL     1       1.904   7.208  20.353  0.00  0.00    +0.000 C 
ENDROOT
BRANCH   5   8
ATOM      8  C   UNL     1       0.383   9.765  20.465  0.00  0.00    +0.000 A 
ATOM      9  C   UNL     1       0.011   9.013  21.555  0.00  0.00    +0.000 A 
ATOM     10  N   UNL     1      -0.660   9.673  22.572  0.00  0.00    +0.000 NA
ATOM     11  C   UNL     1      -0.792  10.943  22.250  0.00  0.00    +0.000 A 
ATOM     12  S   UNL     1      -0.082  11.400  20.747  0.00  0.00    +0.000 S 
BRANCH  11  13
ATOM     13  C   UNL     1      -1.492  11.962  23.132  0.00  0.00    +0.000 C 
BRANCH  13  14
ATOM     14  N   UNL     1      -2.965  11.945  23.036  0.00  0.00    +0.000 NA
ATOM     15  C   UNL     1      -3.625  12.496  24.222  0.00  0.00    +0.000 C 
ATOM     16  C   UNL     1      -4.970  12.983  23.715  0.00  0.00    +0.000 C 
ATOM     17  C   UNL     1      -4.687  13.450  22.301  0.00  0.00    +0.000 C 
ATOM     18  C   UNL     1      -3.454  12.673  21.857  0.00  0.00    +0.000 C 
ENDBRANCH  13  14
ENDBRANCH  11  13
ENDBRANCH   5   8
BRANCH   1  19
ATOM     19  O   UNL     1       3.773   5.708  20.101  0.00  0.00    +0.000 OA
ATOM     20  H   UNL     1       4.341   5.877  19.337  0.00  0.00    +0.000 HD
ENDBRANCH   1  19
BRANCH   1  21
ATOM     21  C   UNL     1       1.545   4.653  19.945  0.00  0.00    +0.000 C 
BRANCH  21  23
ATOM     22  C   UNL     1       2.098   3.002  21.619  0.00  0.00    +0.000 C 
ATOM     23  N   UNL     1       2.217   3.350  20.195  0.00  0.00    +0.000 NA
ATOM     24  C   UNL     1       1.687   2.239  19.401  0.00  0.00    +0.000 C 
ENDBRANCH  21  23
ENDBRANCH   1  21
TORSDOF 6
ENDMDL
MODEL 9
REMARK VINA RESULT:      -6.1      2.689      8.081
REMARK  Name = 
REMARK  8 active torsions:
REMARK  status: ('A' for Active; 'I' for Inactive)
REMARK    1  A    between atoms: C_1  and  N_2
REMARK    2  A    between atoms: N_2  and  C_3
REMARK    3  A    between atoms: N_2  and  C_4
REMARK    4  A    between atoms: C_4  and  C_5
REMARK    5  A    between atoms: C_5  and  O_6
REMARK    6  A    between atoms: C_10  and  C_12
REMARK    7  A    between atoms: C_15  and  C_16
REMARK    8  A    between atoms: C_16  and  N_17
REMARK                            x       y       z     vdW  Elec       q    Type
REMARK                         _______ _______ _______ _____ _____    ______ ____
ROOT
ATOM      1  C   UNL     1       2.526   5.690  19.476  0.00  0.00    +0.000 C 
ATOM      2  C   UNL     1       3.006   5.863  18.015  0.00  0.00    +0.000 C 
ATOM      3  C   UNL     1       3.339   7.344  17.905  0.00  0.00    +0.000 C 
ATOM      4  N   UNL     1       2.351   7.980  18.757  0.00  0.00    +0.000 N 
ATOM      5  C   UNL     1       1.725   9.166  18.396  0.00  0.00    +0.000 C 
ATOM      6  O   UNL     1       1.987   9.685  17.300  0.00  0.00    +0.000 OA
ATOM      7  C   UNL     1       1.999   7.080  19.865  0.00  0.00    +0.000 C 
ENDROOT
BRANCH   5   8
ATOM      8  C   UNL     1       0.786   9.744  19.321  0.00  0.00    +0.000 A 
ATOM      9  C   UNL     1      -0.491  10.212  19.112  0.00  0.00    +0.000 A 
ATOM     10  N   UNL     1      -1.157  10.727  20.212  0.00  0.00    +0.000 NA
ATOM     11  C   UNL     1      -0.376  10.643  21.270  0.00  0.00    +0.000 A 
ATOM     12  S   UNL     1       1.157   9.905  20.996  0.00  0.00    +0.000 S 
BRANCH  11  13
ATOM     13  C   UNL     1      -0.782  11.127  22.651  0.00  0.00    +0.000 C 
BRANCH  13  14
ATOM     14  N   UNL     1      -1.680  12.299  22.647  0.00  0.00    +0.000 NA
ATOM     15  C   UNL     1      -2.871  12.113  23.481  0.00  0.00    +0.000 C 
ATOM     16  C   UNL     1      -3.287  13.520  23.867  0.00  0.00    +0.000 C 
ATOM     17  C   UNL     1      -1.978  14.277  23.978  0.00  0.00    +0.000 C 
ATOM     18  C   UNL     1      -0.998  13.524  23.088  0.00  0.00    +0.000 C 
ENDBRANCH  13  14
ENDBRANCH  11  13
ENDBRANCH   5   8
BRANCH   1  19
ATOM     19  O   UNL     1       3.695   5.418  20.275  0.00  0.00    +0.000 OA
ATOM     20  H   UNL     1       3.770   4.457  20.358  0.00  0.00    +0.000 HD
ENDBRANCH   1  19
BRANCH   1  21
ATOM     21  C   UNL     1       1.489   4.531  19.606  0.00  0.00    +0.000 C 
BRANCH  21  23
ATOM     22  C   UNL     1       1.440   2.772  21.261  0.00  0.00    +0.000 C 
ATOM     23  N   UNL     1       1.963   3.162  19.943  0.00  0.00    +0.000 NA
ATOM     24  C   UNL     1       1.576   2.137  18.969  0.00  0.00    +0.000 C 
ENDBRANCH  21  23
ENDBRANCH   1  21
TORSDOF 6
ENDMDL
