MODEL 1
REMARK VINA RESULT:      -7.7      0.000      0.000
REMARK  Name = 
REMARK  5 active torsions:
REMARK  status: ('A' for Active; 'I' for Inactive)
REMARK    1  A    between atoms: C_1  and  C_2
REMARK    2  A    between atoms: C_2  and  C_3
REMARK    3  A    between atoms: C_3  and  S_4
REMARK    4  A    between atoms: S_4  and  C_7
REMARK    5  A    between atoms: C_12  and  C_13
REMARK                            x       y       z     vdW  Elec       q    Type
REMARK                         _______ _______ _______ _____ _____    ______ ____
ROOT
ATOM      1  C   UNL     1       5.695   5.316  17.270  0.00  0.00    +0.000 A 
ATOM      2  C   UNL     1       5.311   4.524  18.361  0.00  0.00    +0.000 A 
ATOM      3  C   UNL     1       4.238   4.902  19.177  0.00  0.00    +0.000 A 
ATOM      4  C   UNL     1       3.584   6.089  18.835  0.00  0.00    +0.000 A 
ATOM      5  N   UNL     1       2.525   6.758  19.393  0.00  0.00    +0.000 N 
ATOM      6  C   UNL     1       2.288   7.903  18.665  0.00  0.00    +0.000 A 
ATOM      7  N   UNL     1       3.140   7.984  17.659  0.00  0.00    +0.000 NA
ATOM      8  C   UNL     1       3.941   6.877  17.749  0.00  0.00    +0.000 A 
ATOM      9  C   UNL     1       5.011   6.493  16.937  0.00  0.00    +0.000 A 
ATOM     10  H   UNL     1       2.031   6.489  20.228  0.00  0.00    +0.000 HD
ENDROOT
BRANCH   6  11
ATOM     11  C   UNL     1       1.286   8.901  19.031  0.00  0.00    +0.000 A 
ATOM     12  C   UNL     1       0.969   9.096  20.383  0.00  0.00    +0.000 A 
ATOM     13  C   UNL     1      -0.040   9.987  20.757  0.00  0.00    +0.000 A 
ATOM     14  C   UNL     1      -0.725  10.708  19.782  0.00  0.00    +0.000 A 
ATOM     15  C   UNL     1      -0.398  10.549  18.437  0.00  0.00    +0.000 A 
ATOM     16  C   UNL     1       0.604   9.650  18.063  0.00  0.00    +0.000 A 
ENDBRANCH   6  11
BRANCH   1  17
ATOM     17  S   UNL     1       7.070   4.816  16.261  0.00  0.00    +0.000 S 
ATOM     18  O   UNL     1       8.034   4.159  17.126  0.00  0.00    +0.000 OA
ATOM     19  O   UNL     1       7.444   5.975  15.473  0.00  0.00    +0.000 OA
BRANCH  17  20
ATOM     20  C   UNL     1       6.391   3.582  15.166  0.00  0.00    +0.000 C 
BRANCH  20  22
ATOM     21  C   UNL     1       5.965   3.523  12.682  0.00  0.00    +0.000 C 
ATOM     22  C   UNL     1       5.664   4.232  13.992  0.00  0.00    +0.000 C 
ENDBRANCH  20  22
ENDBRANCH  17  20
ENDBRANCH   1  17
TORSDOF 4
ENDMDL
MODEL 2
REMARK VINA RESULT:      -7.7      2.008      2.956
REMARK  Name = 
REMARK  5 active torsions:
REMARK  status: ('A' for Active; 'I' for Inactive)
REMARK    1  A    between atoms: C_1  and  C_2
REMARK    2  A    between atoms: C_2  and  C_3
REMARK    3  A    between atoms: C_3  and  S_4
REMARK    4  A    between atoms: S_4  and  C_7
REMARK    5  A    between atoms: C_12  and  C_13
REMARK                            x       y       z     vdW  Elec       q    Type
REMARK                         _______ _______ _______ _____ _____    ______ ____
ROOT
ATOM      1  C   UNL     1       4.332   5.817  17.531  0.00  0.00    +0.000 A 
ATOM      2  C   UNL     1       4.271   4.873  18.566  0.00  0.00    +0.000 A 
ATOM      3  C   UNL     1       3.498   5.113  19.708  0.00  0.00    +0.000 A 
ATOM      4  C   UNL     1       2.800   6.323  19.745  0.00  0.00    +0.000 A 
ATOM      5  N   UNL     1       1.971   6.886  20.680  0.00  0.00    +0.000 N 
ATOM      6  C   UNL     1       1.555   8.117  20.223  0.00  0.00    +0.000 A 
ATOM      7  N   UNL     1       2.071   8.354  19.030  0.00  0.00    +0.000 NA
ATOM      8  C   UNL     1       2.837   7.261  18.722  0.00  0.00    +0.000 A 
ATOM      9  C   UNL     1       3.608   7.015  17.583  0.00  0.00    +0.000 A 
ATOM     10  H   UNL     1       1.741   6.493  21.579  0.00  0.00    +0.000 HD
ENDROOT
BRANCH   6  11
ATOM     11  C   UNL     1       0.731   9.034  21.006  0.00  0.00    +0.000 A 
ATOM     12  C   UNL     1       0.147  10.144  20.378  0.00  0.00    +0.000 A 
ATOM     13  C   UNL     1      -0.581  11.079  21.117  0.00  0.00    +0.000 A 
ATOM     14  C   UNL     1      -0.750  10.901  22.488  0.00  0.00    +0.000 A 
ATOM     15  C   UNL     1      -0.202   9.786  23.119  0.00  0.00    +0.000 A 
ATOM     16  C   UNL     1       0.534   8.856  22.382  0.00  0.00    +0.000 A 
ENDBRANCH   6  11
BRANCH   1  17
ATOM     17  S   UNL     1       5.334   5.490  16.099  0.00  0.00    +0.000 S 
ATOM     18  O   UNL     1       5.286   6.666  15.251  0.00  0.00    +0.000 OA
ATOM     19  O   UNL     1       4.921   4.191  15.599  0.00  0.00    +0.000 OA
BRANCH  17  20
ATOM     20  C   UNL     1       6.992   5.347  16.741  0.00  0.00    +0.000 C 
BRANCH  20  22
ATOM     21  C   UNL     1       7.779   6.133  19.003  0.00  0.00    +0.000 C 
ATOM     22  C   UNL     1       7.351   6.551  17.607  0.00  0.00    +0.000 C 
ENDBRANCH  20  22
ENDBRANCH  17  20
ENDBRANCH   1  17
TORSDOF 4
ENDMDL
MODEL 3
REMARK VINA RESULT:      -7.7      2.002      2.769
REMARK  Name = 
REMARK  5 active torsions:
REMARK  status: ('A' for Active; 'I' for Inactive)
REMARK    1  A    between atoms: C_1  and  C_2
REMARK    2  A    between atoms: C_2  and  C_3
REMARK    3  A    between atoms: C_3  and  S_4
REMARK    4  A    between atoms: S_4  and  C_7
REMARK    5  A    between atoms: C_12  and  C_13
REMARK                            x       y       z     vdW  Elec       q    Type
REMARK                         _______ _______ _______ _____ _____    ______ ____
ROOT
ATOM      1  C   UNL     1       4.320   5.756  17.506  0.00  0.00    +0.000 A 
ATOM      2  C   UNL     1       4.192   4.792  18.515  0.00  0.00    +0.000 A 
ATOM      3  C   UNL     1       3.405   5.039  19.646  0.00  0.00    +0.000 A 
ATOM      4  C   UNL     1       2.763   6.279  19.698  0.00  0.00    +0.000 A 
ATOM      5  N   UNL     1       1.939   6.858  20.629  0.00  0.00    +0.000 N 
ATOM      6  C   UNL     1       1.592   8.118  20.194  0.00  0.00    +0.000 A 
ATOM      7  N   UNL     1       2.145   8.359  19.020  0.00  0.00    +0.000 NA
ATOM      8  C   UNL     1       2.866   7.239  18.701  0.00  0.00    +0.000 A 
ATOM      9  C   UNL     1       3.651   6.985  17.573  0.00  0.00    +0.000 A 
ATOM     10  H   UNL     1       1.672   6.455  21.513  0.00  0.00    +0.000 HD
ENDROOT
BRANCH   6  11
ATOM     11  C   UNL     1       0.793   9.054  20.982  0.00  0.00    +0.000 A 
ATOM     12  C   UNL     1       0.699   8.882  22.370  0.00  0.00    +0.000 A 
ATOM     13  C   UNL     1      -0.119   9.714  23.137  0.00  0.00    +0.000 A 
ATOM     14  C   UNL     1      -0.834  10.740  22.525  0.00  0.00    +0.000 A 
ATOM     15  C   UNL     1      -0.725  10.943  21.151  0.00  0.00    +0.000 A 
ATOM     16  C   UNL     1       0.085  10.105  20.382  0.00  0.00    +0.000 A 
ENDBRANCH   6  11
BRANCH   1  17
ATOM     17  S   UNL     1       5.337   5.417  16.089  0.00  0.00    +0.000 S 
ATOM     18  O   UNL     1       5.244   6.558  15.197  0.00  0.00    +0.000 OA
ATOM     19  O   UNL     1       4.978   4.085  15.636  0.00  0.00    +0.000 OA
BRANCH  17  20
ATOM     20  C   UNL     1       6.999   5.364  16.737  0.00  0.00    +0.000 C 
BRANCH  20  22
ATOM     21  C   UNL     1       7.849   6.088  18.997  0.00  0.00    +0.000 C 
ATOM     22  C   UNL     1       7.260   6.542  17.672  0.00  0.00    +0.000 C 
ENDBRANCH  20  22
ENDBRANCH  17  20
ENDBRANCH   1  17
TORSDOF 4
ENDMDL
MODEL 4
REMARK VINA RESULT:      -7.6      0.362      1.099
REMARK  Name = 
REMARK  5 active torsions:
REMARK  status: ('A' for Active; 'I' for Inactive)
REMARK    1  A    between atoms: C_1  and  C_2
REMARK    2  A    between atoms: C_2  and  C_3
REMARK    3  A    between atoms: C_3  and  S_4
REMARK    4  A    between atoms: S_4  and  C_7
REMARK    5  A    between atoms: C_12  and  C_13
REMARK                            x       y       z     vdW  Elec       q    Type
REMARK                         _______ _______ _______ _____ _____    ______ ____
ROOT
ATOM      1  C   UNL     1       5.728   5.352  17.467  0.00  0.00    +0.000 A 
ATOM      2  C   UNL     1       5.395   4.543  18.562  0.00  0.00    +0.000 A 
ATOM      3  C   UNL     1       4.337   4.888  19.411  0.00  0.00    +0.000 A 
ATOM      4  C   UNL     1       3.644   6.061  19.096  0.00  0.00    +0.000 A 
ATOM      5  N   UNL     1       2.585   6.698  19.689  0.00  0.00    +0.000 N 
ATOM      6  C   UNL     1       2.299   7.843  18.977  0.00  0.00    +0.000 A 
ATOM      7  N   UNL     1       3.119   7.952  17.949  0.00  0.00    +0.000 NA
ATOM      8  C   UNL     1       3.950   6.865  18.007  0.00  0.00    +0.000 A 
ATOM      9  C   UNL     1       5.007   6.513  17.162  0.00  0.00    +0.000 A 
ATOM     10  H   UNL     1       2.122   6.412  20.537  0.00  0.00    +0.000 HD
ENDROOT
BRANCH   6  11
ATOM     11  C   UNL     1       1.283   8.813  19.380  0.00  0.00    +0.000 A 
ATOM     12  C   UNL     1       0.837   9.767  18.455  0.00  0.00    +0.000 A 
ATOM     13  C   UNL     1      -0.075  10.754  18.834  0.00  0.00    +0.000 A 
ATOM     14  C   UNL     1      -0.566  10.783  20.137  0.00  0.00    +0.000 A 
ATOM     15  C   UNL     1      -0.154   9.821  21.058  0.00  0.00    +0.000 A 
ATOM     16  C   UNL     1       0.765   8.840  20.681  0.00  0.00    +0.000 A 
ENDBRANCH   6  11
BRANCH   1  17
ATOM     17  S   UNL     1       7.087   4.893  16.416  0.00  0.00    +0.000 S 
ATOM     18  O   UNL     1       8.015   4.112  17.213  0.00  0.00    +0.000 OA
ATOM     19  O   UNL     1       7.516   6.108  15.747  0.00  0.00    +0.000 OA
BRANCH  17  20
ATOM     20  C   UNL     1       6.361   3.805  15.202  0.00  0.00    +0.000 C 
BRANCH  20  22
ATOM     21  C   UNL     1       6.071   3.383  12.734  0.00  0.00    +0.000 C 
ATOM     22  C   UNL     1       6.504   4.380  13.796  0.00  0.00    +0.000 C 
ENDBRANCH  20  22
ENDBRANCH  17  20
ENDBRANCH   1  17
TORSDOF 4
ENDMDL
MODEL 5
REMARK VINA RESULT:      -7.5      2.795      3.919
REMARK  Name = 
REMARK  5 active torsions:
REMARK  status: ('A' for Active; 'I' for Inactive)
REMARK    1  A    between atoms: C_1  and  C_2
REMARK    2  A    between atoms: C_2  and  C_3
REMARK    3  A    between atoms: C_3  and  S_4
REMARK    4  A    between atoms: S_4  and  C_7
REMARK    5  A    between atoms: C_12  and  C_13
REMARK                            x       y       z     vdW  Elec       q    Type
REMARK                         _______ _______ _______ _____ _____    ______ ____
ROOT
ATOM      1  C   UNL     1       3.548   5.358  18.742  0.00  0.00    +0.000 A 
ATOM      2  C   UNL     1       3.684   6.264  17.681  0.00  0.00    +0.000 A 
ATOM      3  C   UNL     1       3.079   7.525  17.735  0.00  0.00    +0.000 A 
ATOM      4  C   UNL     1       2.353   7.818  18.893  0.00  0.00    +0.000 A 
ATOM      5  N   UNL     1       1.639   8.921  19.284  0.00  0.00    +0.000 N 
ATOM      6  C   UNL     1       1.096   8.682  20.527  0.00  0.00    +0.000 A 
ATOM      7  N   UNL     1       1.448   7.482  20.951  0.00  0.00    +0.000 NA
ATOM      8  C   UNL     1       2.221   6.939  19.959  0.00  0.00    +0.000 A 
ATOM      9  C   UNL     1       2.830   5.683  19.901  0.00  0.00    +0.000 A 
ATOM     10  H   UNL     1       1.487   9.752  18.735  0.00  0.00    +0.000 HD
ENDROOT
BRANCH   6  11
ATOM     11  C   UNL     1       0.200   9.611  21.211  0.00  0.00    +0.000 A 
ATOM     12  C   UNL     1      -0.312  10.715  20.514  0.00  0.00    +0.000 A 
ATOM     13  C   UNL     1      -1.107  11.661  21.164  0.00  0.00    +0.000 A 
ATOM     14  C   UNL     1      -1.417  11.500  22.512  0.00  0.00    +0.000 A 
ATOM     15  C   UNL     1      -0.942  10.391  23.209  0.00  0.00    +0.000 A 
ATOM     16  C   UNL     1      -0.138   9.450  22.562  0.00  0.00    +0.000 A 
ENDBRANCH   6  11
BRANCH   1  17
ATOM     17  S   UNL     1       4.318   3.760  18.638  0.00  0.00    +0.000 S 
ATOM     18  O   UNL     1       5.600   3.845  19.313  0.00  0.00    +0.000 OA
ATOM     19  O   UNL     1       4.233   3.353  17.247  0.00  0.00    +0.000 OA
BRANCH  17  20
ATOM     20  C   UNL     1       3.263   2.694  19.604  0.00  0.00    +0.000 C 
BRANCH  20  22
ATOM     21  C   UNL     1       0.846   2.618  18.891  0.00  0.00    +0.000 C 
ATOM     22  C   UNL     1       2.225   2.004  18.723  0.00  0.00    +0.000 C 
ENDBRANCH  20  22
ENDBRANCH  17  20
ENDBRANCH   1  17
TORSDOF 4
ENDMDL
MODEL 6
REMARK VINA RESULT:      -7.4      4.800      6.392
REMARK  Name = 
REMARK  5 active torsions:
REMARK  status: ('A' for Active; 'I' for Inactive)
REMARK    1  A    between atoms: C_1  and  C_2
REMARK    2  A    between atoms: C_2  and  C_3
REMARK    3  A    between atoms: C_3  and  S_4
REMARK    4  A    between atoms: S_4  and  C_7
REMARK    5  A    between atoms: C_12  and  C_13
REMARK                            x       y       z     vdW  Elec       q    Type
REMARK                         _______ _______ _______ _____ _____    ______ ____
ROOT
ATOM      1  C   UNL     1       6.512   5.475  16.924  0.00  0.00    +0.000 A 
ATOM      2  C   UNL     1       7.124   4.856  18.023  0.00  0.00    +0.000 A 
ATOM      3  C   UNL     1       7.931   5.591  18.900  0.00  0.00    +0.000 A 
ATOM      4  C   UNL     1       8.075   6.953  18.620  0.00  0.00    +0.000 A 
ATOM      5  N   UNL     1       8.775   7.956  19.238  0.00  0.00    +0.000 N 
ATOM      6  C   UNL     1       8.590   9.126  18.535  0.00  0.00    +0.000 A 
ATOM      7  N   UNL     1       7.789   8.914  17.507  0.00  0.00    +0.000 NA
ATOM      8  C   UNL     1       7.464   7.584  17.545  0.00  0.00    +0.000 A 
ATOM      9  C   UNL     1       6.657   6.846  16.675  0.00  0.00    +0.000 A 
ATOM     10  H   UNL     1       9.372   7.852  20.043  0.00  0.00    +0.000 HD
ENDROOT
BRANCH   6  11
ATOM     11  C   UNL     1       9.262  10.382  18.862  0.00  0.00    +0.000 A 
ATOM     12  C   UNL     1       9.708  11.215  17.826  0.00  0.00    +0.000 A 
ATOM     13  C   UNL     1      10.422  12.382  18.108  0.00  0.00    +0.000 A 
ATOM     14  C   UNL     1      10.679  12.737  19.430  0.00  0.00    +0.000 A 
ATOM     15  C   UNL     1      10.214  11.934  20.470  0.00  0.00    +0.000 A 
ATOM     16  C   UNL     1       9.508  10.762  20.188  0.00  0.00    +0.000 A 
ENDBRANCH   6  11
BRANCH   1  17
ATOM     17  S   UNL     1       5.504   4.512  15.821  0.00  0.00    +0.000 S 
ATOM     18  O   UNL     1       6.313   3.408  15.338  0.00  0.00    +0.000 OA
ATOM     19  O   UNL     1       4.895   5.451  14.896  0.00  0.00    +0.000 OA
BRANCH  17  20
ATOM     20  C   UNL     1       4.225   3.836  16.865  0.00  0.00    +0.000 C 
BRANCH  20  22
ATOM     21  C   UNL     1       1.969   4.499  17.774  0.00  0.00    +0.000 C 
ATOM     22  C   UNL     1       3.396   4.946  17.505  0.00  0.00    +0.000 C 
ENDBRANCH  20  22
ENDBRANCH  17  20
ENDBRANCH   1  17
TORSDOF 4
ENDMDL
MODEL 7
REMARK VINA RESULT:      -7.4      2.821      3.851
REMARK  Name = 
REMARK  5 active torsions:
REMARK  status: ('A' for Active; 'I' for Inactive)
REMARK    1  A    between atoms: C_1  and  C_2
REMARK    2  A    between atoms: C_2  and  C_3
REMARK    3  A    between atoms: C_3  and  S_4
REMARK    4  A    between atoms: S_4  and  C_7
REMARK    5  A    between atoms: C_12  and  C_13
REMARK                            x       y       z     vdW  Elec       q    Type
REMARK                         _______ _______ _______ _____ _____    ______ ____
ROOT
ATOM      1  C   UNL     1       3.529   5.434  18.809  0.00  0.00    +0.000 A 
ATOM      2  C   UNL     1       3.627   6.286  17.700  0.00  0.00    +0.000 A 
ATOM      3  C   UNL     1       3.013   7.544  17.709  0.00  0.00    +0.000 A 
ATOM      4  C   UNL     1       2.319   7.890  18.872  0.00  0.00    +0.000 A 
ATOM      5  N   UNL     1       1.607   9.006  19.229  0.00  0.00    +0.000 N 
ATOM      6  C   UNL     1       1.104   8.825  20.499  0.00  0.00    +0.000 A 
ATOM      7  N   UNL     1       1.478   7.651  20.970  0.00  0.00    +0.000 NA
ATOM      8  C   UNL     1       2.226   7.064  19.985  0.00  0.00    +0.000 A 
ATOM      9  C   UNL     1       2.844   5.811  19.971  0.00  0.00    +0.000 A 
ATOM     10  H   UNL     1       1.432   9.807  18.644  0.00  0.00    +0.000 HD
ENDROOT
BRANCH   6  11
ATOM     11  C   UNL     1       0.220   9.782  21.162  0.00  0.00    +0.000 A 
ATOM     12  C   UNL     1      -0.053   9.635  22.529  0.00  0.00    +0.000 A 
ATOM     13  C   UNL     1      -0.955  10.487  23.170  0.00  0.00    +0.000 A 
ATOM     14  C   UNL     1      -1.575  11.508  22.455  0.00  0.00    +0.000 A 
ATOM     15  C   UNL     1      -1.288  11.686  21.102  0.00  0.00    +0.000 A 
ATOM     16  C   UNL     1      -0.394  10.827  20.459  0.00  0.00    +0.000 A 
ENDBRANCH   6  11
BRANCH   1  17
ATOM     17  S   UNL     1       4.310   3.837  18.762  0.00  0.00    +0.000 S 
ATOM     18  O   UNL     1       5.627   3.974  19.357  0.00  0.00    +0.000 OA
ATOM     19  O   UNL     1       4.152   3.343  17.406  0.00  0.00    +0.000 OA
BRANCH  17  20
ATOM     20  C   UNL     1       3.321   2.827  19.850  0.00  0.00    +0.000 C 
BRANCH  20  22
ATOM     21  C   UNL     1       0.894   2.734  19.175  0.00  0.00    +0.000 C 
ATOM     22  C   UNL     1       2.253   2.064  19.071  0.00  0.00    +0.000 C 
ENDBRANCH  20  22
ENDBRANCH  17  20
ENDBRANCH   1  17
TORSDOF 4
ENDMDL
MODEL 8
REMARK VINA RESULT:      -7.3      1.115      1.371
REMARK  Name = 
REMARK  5 active torsions:
REMARK  status: ('A' for Active; 'I' for Inactive)
REMARK    1  A    between atoms: C_1  and  C_2
REMARK    2  A    between atoms: C_2  and  C_3
REMARK    3  A    between atoms: C_3  and  S_4
REMARK    4  A    between atoms: S_4  and  C_7
REMARK    5  A    between atoms: C_12  and  C_13
REMARK                            x       y       z     vdW  Elec       q    Type
REMARK                         _______ _______ _______ _____ _____    ______ ____
ROOT
ATOM      1  C   UNL     1       5.269   5.771  17.686  0.00  0.00    +0.000 A 
ATOM      2  C   UNL     1       4.712   5.166  18.822  0.00  0.00    +0.000 A 
ATOM      3  C   UNL     1       3.573   5.704  19.433  0.00  0.00    +0.000 A 
ATOM      4  C   UNL     1       3.034   6.851  18.845  0.00  0.00    +0.000 A 
ATOM      5  N   UNL     1       1.957   7.637  19.163  0.00  0.00    +0.000 N 
ATOM      6  C   UNL     1       1.875   8.669  18.255  0.00  0.00    +0.000 A 
ATOM      7  N   UNL     1       2.843   8.565  17.364  0.00  0.00    +0.000 NA
ATOM      8  C   UNL     1       3.563   7.453  17.711  0.00  0.00    +0.000 A 
ATOM      9  C   UNL     1       4.699   6.910  17.104  0.00  0.00    +0.000 A 
ATOM     10  H   UNL     1       1.352   7.515  19.960  0.00  0.00    +0.000 HD
ENDROOT
BRANCH   6  11
ATOM     11  C   UNL     1       0.896   9.750  18.346  0.00  0.00    +0.000 A 
ATOM     12  C   UNL     1      -0.416   9.531  17.902  0.00  0.00    +0.000 A 
ATOM     13  C   UNL     1      -1.351  10.568  17.904  0.00  0.00    +0.000 A 
ATOM     14  C   UNL     1      -0.989  11.829  18.371  0.00  0.00    +0.000 A 
ATOM     15  C   UNL     1       0.302  12.053  18.845  0.00  0.00    +0.000 A 
ATOM     16  C   UNL     1       1.240  11.018  18.834  0.00  0.00    +0.000 A 
ENDBRANCH   6  11
BRANCH   1  17
ATOM     17  S   UNL     1       6.723   5.071  16.941  0.00  0.00    +0.000 S 
ATOM     18  O   UNL     1       7.468   4.390  17.985  0.00  0.00    +0.000 OA
ATOM     19  O   UNL     1       7.334   6.131  16.160  0.00  0.00    +0.000 OA
BRANCH  17  20
ATOM     20  C   UNL     1       6.096   3.832  15.821  0.00  0.00    +0.000 C 
BRANCH  20  22
ATOM     21  C   UNL     1       6.071   3.659  13.307  0.00  0.00    +0.000 C 
ATOM     22  C   UNL     1       5.622   4.463  14.515  0.00  0.00    +0.000 C 
ENDBRANCH  20  22
ENDBRANCH  17  20
ENDBRANCH   1  17
TORSDOF 4
ENDMDL
MODEL 9
REMARK VINA RESULT:      -7.3      1.142      1.251
REMARK  Name = 
REMARK  5 active torsions:
REMARK  status: ('A' for Active; 'I' for Inactive)
REMARK    1  A    between atoms: C_1  and  C_2
REMARK    2  A    between atoms: C_2  and  C_3
REMARK    3  A    between atoms: C_3  and  S_4
REMARK    4  A    between atoms: S_4  and  C_7
REMARK    5  A    between atoms: C_12  and  C_13
REMARK                            x       y       z     vdW  Elec       q    Type
REMARK                         _______ _______ _______ _____ _____    ______ ____
ROOT
ATOM      1  C   UNL     1       5.256   5.823  17.764  0.00  0.00    +0.000 A 
ATOM      2  C   UNL     1       4.717   5.252  18.924  0.00  0.00    +0.000 A 
ATOM      3  C   UNL     1       3.574   5.795  19.525  0.00  0.00    +0.000 A 
ATOM      4  C   UNL     1       3.015   6.913  18.900  0.00  0.00    +0.000 A 
ATOM      5  N   UNL     1       1.929   7.694  19.199  0.00  0.00    +0.000 N 
ATOM      6  C   UNL     1       1.826   8.693  18.255  0.00  0.00    +0.000 A 
ATOM      7  N   UNL     1       2.789   8.570  17.360  0.00  0.00    +0.000 NA
ATOM      8  C   UNL     1       3.527   7.482  17.741  0.00  0.00    +0.000 A 
ATOM      9  C   UNL     1       4.666   6.933  17.146  0.00  0.00    +0.000 A 
ATOM     10  H   UNL     1       1.332   7.593  20.004  0.00  0.00    +0.000 HD
ENDROOT
BRANCH   6  11
ATOM     11  C   UNL     1       0.832   9.762  18.314  0.00  0.00    +0.000 A 
ATOM     12  C   UNL     1       1.172  10.987  18.904  0.00  0.00    +0.000 A 
ATOM     13  C   UNL     1       0.219  11.999  19.045  0.00  0.00    +0.000 A 
ATOM     14  C   UNL     1      -1.077  11.802  18.576  0.00  0.00    +0.000 A 
ATOM     15  C   UNL     1      -1.421  10.601  17.958  0.00  0.00    +0.000 A 
ATOM     16  C   UNL     1      -0.470   9.585  17.827  0.00  0.00    +0.000 A 
ENDBRANCH   6  11
BRANCH   1  17
ATOM     17  S   UNL     1       6.715   5.118  17.032  0.00  0.00    +0.000 S 
ATOM     18  O   UNL     1       7.351   4.284  18.037  0.00  0.00    +0.000 OA
ATOM     19  O   UNL     1       7.433   6.215  16.409  0.00  0.00    +0.000 OA
BRANCH  17  20
ATOM     20  C   UNL     1       6.094   4.046  15.748  0.00  0.00    +0.000 C 
BRANCH  20  22
ATOM     21  C   UNL     1       6.012   3.663  13.258  0.00  0.00    +0.000 C 
ATOM     22  C   UNL     1       6.688   4.415  14.392  0.00  0.00    +0.000 C 
ENDBRANCH  20  22
ENDBRANCH  17  20
ENDBRANCH   1  17
TORSDOF 4
ENDMDL
