MODEL 1
REMARK VINA RESULT:      -7.3      0.000      0.000
REMARK  Name = 
REMARK  3 active torsions:
REMARK  status: ('A' for Active; 'I' for Inactive)
REMARK    1  A    between atoms: N_6  and  N_7
REMARK    2  A    between atoms: C_8  and  C_9
REMARK    3  A    between atoms: C_15  and  C_17
REMARK                            x       y       z     vdW  Elec       q    Type
REMARK                         _______ _______ _______ _____ _____    ______ ____
ROOT
ATOM      1  O   UNL     1       3.594   2.855  18.046  0.00  0.00    +0.000 OA
ATOM      2  C   UNL     1       3.210   3.522  19.013  0.00  0.00    +0.000 C 
ATOM      3  C   UNL     1       2.693   2.825  20.237  0.00  0.00    +0.000 C 
ATOM      4  S   UNL     1       1.930   4.081  21.245  0.00  0.00    +0.000 S 
ATOM      5  C   UNL     1       2.353   5.365  20.119  0.00  0.00    +0.000 C 
ATOM      6  N   UNL     1       1.883   6.526  20.434  0.00  0.00    +0.000 NA
ATOM      7  N   UNL     1       3.153   4.895  19.085  0.00  0.00    +0.000 N 
ATOM      8  C   UNL     1       3.723   5.681  18.072  0.00  0.00    +0.000 C 
ATOM      9  O   UNL     1       3.128   6.573  17.463  0.00  0.00    +0.000 OA
ENDROOT
BRANCH   8  10
ATOM     10  C   UNL     1       5.058   5.302  17.473  0.00  0.00    +0.000 A 
ATOM     11  C   UNL     1       5.079   5.047  16.087  0.00  0.00    +0.000 A 
ATOM     12  C   UNL     1       6.244   4.639  15.443  0.00  0.00    +0.000 A 
ATOM     13  C   UNL     1       7.416   4.475  16.177  0.00  0.00    +0.000 A 
ATOM     14  C   UNL     1       7.422   4.752  17.543  0.00  0.00    +0.000 A 
ATOM     15  C   UNL     1       6.253   5.189  18.190  0.00  0.00    +0.000 A 
ENDBRANCH   8  10
BRANCH   6  16
ATOM     16  N   UNL     1       2.110   7.531  19.529  0.00  0.00    +0.000 NA
ATOM     17  C   UNL     1       1.693   8.723  19.823  0.00  0.00    +0.000 C 
BRANCH  17  18
ATOM     18  C   UNL     1       0.976   9.159  20.992  0.00  0.00    +0.000 A 
ATOM     19  C   UNL     1       1.174   8.883  22.329  0.00  0.00    +0.000 A 
ATOM     20  C   UNL     1       0.206   9.516  23.164  0.00  0.00    +0.000 A 
ATOM     21  C   UNL     1      -0.691  10.263  22.436  0.00  0.00    +0.000 A 
ATOM     22  S   UNL     1      -0.385  10.178  20.757  0.00  0.00    +0.000 S 
ENDBRANCH  17  18
ENDBRANCH   6  16
TORSDOF 3
ENDMDL
MODEL 2
REMARK VINA RESULT:      -7.2      0.220      1.045
REMARK  Name = 
REMARK  3 active torsions:
REMARK  status: ('A' for Active; 'I' for Inactive)
REMARK    1  A    between atoms: N_6  and  N_7
REMARK    2  A    between atoms: C_8  and  C_9
REMARK    3  A    between atoms: C_15  and  C_17
REMARK                            x       y       z     vdW  Elec       q    Type
REMARK                         _______ _______ _______ _____ _____    ______ ____
ROOT
ATOM      1  O   UNL     1       3.484   2.627  18.169  0.00  0.00    +0.000 OA
ATOM      2  C   UNL     1       3.169   3.344  19.126  0.00  0.00    +0.000 C 
ATOM      3  C   UNL     1       2.728   2.713  20.413  0.00  0.00    +0.000 C 
ATOM      4  S   UNL     1       2.042   4.025  21.406  0.00  0.00    +0.000 S 
ATOM      5  C   UNL     1       2.401   5.248  20.192  0.00  0.00    +0.000 C 
ATOM      6  N   UNL     1       1.960   6.428  20.480  0.00  0.00    +0.000 NA
ATOM      7  N   UNL     1       3.127   4.720  19.133  0.00  0.00    +0.000 N 
ATOM      8  C   UNL     1       3.636   5.450  18.047  0.00  0.00    +0.000 C 
ATOM      9  O   UNL     1       3.009   6.317  17.435  0.00  0.00    +0.000 OA
ENDROOT
BRANCH   8  10
ATOM     10  C   UNL     1       4.926   5.028  17.383  0.00  0.00    +0.000 A 
ATOM     11  C   UNL     1       6.092   5.088  18.173  0.00  0.00    +0.000 A 
ATOM     12  C   UNL     1       7.342   4.773  17.645  0.00  0.00    +0.000 A 
ATOM     13  C   UNL     1       7.449   4.392  16.310  0.00  0.00    +0.000 A 
ATOM     14  C   UNL     1       6.304   4.298  15.521  0.00  0.00    +0.000 A 
ATOM     15  C   UNL     1       5.039   4.590  16.060  0.00  0.00    +0.000 A 
ENDBRANCH   8  10
BRANCH   6  16
ATOM     16  N   UNL     1       2.135   7.385  19.513  0.00  0.00    +0.000 NA
ATOM     17  C   UNL     1       1.693   8.581  19.751  0.00  0.00    +0.000 C 
BRANCH  17  18
ATOM     18  C   UNL     1       0.994   9.064  20.913  0.00  0.00    +0.000 A 
ATOM     19  C   UNL     1       1.215   8.844  22.256  0.00  0.00    +0.000 A 
ATOM     20  C   UNL     1       0.259   9.509  23.080  0.00  0.00    +0.000 A 
ATOM     21  C   UNL     1      -0.653  10.223  22.337  0.00  0.00    +0.000 A 
ATOM     22  S   UNL     1      -0.374  10.069  20.658  0.00  0.00    +0.000 S 
ENDBRANCH  17  18
ENDBRANCH   6  16
TORSDOF 3
ENDMDL
MODEL 3
REMARK VINA RESULT:      -6.9      3.694      4.972
REMARK  Name = 
REMARK  3 active torsions:
REMARK  status: ('A' for Active; 'I' for Inactive)
REMARK    1  A    between atoms: N_6  and  N_7
REMARK    2  A    between atoms: C_8  and  C_9
REMARK    3  A    between atoms: C_15  and  C_17
REMARK                            x       y       z     vdW  Elec       q    Type
REMARK                         _______ _______ _______ _____ _____    ______ ____
ROOT
ATOM      1  O   UNL     1       8.111   3.971  16.576  0.00  0.00    +0.000 OA
ATOM      2  C   UNL     1       7.328   4.663  17.236  0.00  0.00    +0.000 C 
ATOM      3  C   UNL     1       7.822   5.389  18.452  0.00  0.00    +0.000 C 
ATOM      4  S   UNL     1       6.375   5.975  19.311  0.00  0.00    +0.000 S 
ATOM      5  C   UNL     1       5.283   5.335  18.087  0.00  0.00    +0.000 C 
ATOM      6  N   UNL     1       4.030   5.468  18.370  0.00  0.00    +0.000 NA
ATOM      7  N   UNL     1       5.979   4.815  17.004  0.00  0.00    +0.000 N 
ATOM      8  C   UNL     1       5.401   4.303  15.831  0.00  0.00    +0.000 C 
ATOM      9  O   UNL     1       4.420   3.557  15.805  0.00  0.00    +0.000 OA
ENDROOT
BRANCH   8  10
ATOM     10  C   UNL     1       6.119   4.436  14.508  0.00  0.00    +0.000 A 
ATOM     11  C   UNL     1       5.729   3.544  13.487  0.00  0.00    +0.000 A 
ATOM     12  C   UNL     1       6.362   3.544  12.246  0.00  0.00    +0.000 A 
ATOM     13  C   UNL     1       7.401   4.437  12.002  0.00  0.00    +0.000 A 
ATOM     14  C   UNL     1       7.780   5.346  12.988  0.00  0.00    +0.000 A 
ATOM     15  C   UNL     1       7.126   5.365  14.232  0.00  0.00    +0.000 A 
ENDBRANCH   8  10
BRANCH   6  16
ATOM     16  N   UNL     1       3.152   4.894  17.487  0.00  0.00    +0.000 NA
ATOM     17  C   UNL     1       2.279   4.055  17.951  0.00  0.00    +0.000 C 
BRANCH  17  18
ATOM     18  C   UNL     1       2.107   3.598  19.305  0.00  0.00    +0.000 A 
ATOM     19  C   UNL     1       1.096   3.831  20.215  0.00  0.00    +0.000 A 
ATOM     20  C   UNL     1       1.337   3.193  21.468  0.00  0.00    +0.000 A 
ATOM     21  C   UNL     1       2.516   2.484  21.467  0.00  0.00    +0.000 A 
ATOM     22  S   UNL     1       3.341   2.612  19.976  0.00  0.00    +0.000 S 
ENDBRANCH  17  18
ENDBRANCH   6  16
TORSDOF 3
ENDMDL
MODEL 4
REMARK VINA RESULT:      -6.8      2.804      6.409
REMARK  Name = 
REMARK  3 active torsions:
REMARK  status: ('A' for Active; 'I' for Inactive)
REMARK    1  A    between atoms: N_6  and  N_7
REMARK    2  A    between atoms: C_8  and  C_9
REMARK    3  A    between atoms: C_15  and  C_17
REMARK                            x       y       z     vdW  Elec       q    Type
REMARK                         _______ _______ _______ _____ _____    ______ ____
ROOT
ATOM      1  O   UNL     1       0.687   4.737  20.141  0.00  0.00    +0.000 OA
ATOM      2  C   UNL     1       1.444   4.078  19.419  0.00  0.00    +0.000 C 
ATOM      3  C   UNL     1       0.955   2.805  18.796  0.00  0.00    +0.000 C 
ATOM      4  S   UNL     1       2.392   1.984  18.135  0.00  0.00    +0.000 S 
ATOM      5  C   UNL     1       3.469   3.289  18.624  0.00  0.00    +0.000 C 
ATOM      6  N   UNL     1       4.720   3.056  18.404  0.00  0.00    +0.000 NA
ATOM      7  N   UNL     1       2.763   4.364  19.147  0.00  0.00    +0.000 N 
ATOM      8  C   UNL     1       3.321   5.587  19.552  0.00  0.00    +0.000 C 
ATOM      9  O   UNL     1       4.355   5.696  20.215  0.00  0.00    +0.000 OA
ENDROOT
BRANCH   8  10
ATOM     10  C   UNL     1       2.530   6.867  19.416  0.00  0.00    +0.000 A 
ATOM     11  C   UNL     1       2.449   7.425  18.123  0.00  0.00    +0.000 A 
ATOM     12  C   UNL     1       1.791   8.630  17.894  0.00  0.00    +0.000 A 
ATOM     13  C   UNL     1       1.201   9.306  18.959  0.00  0.00    +0.000 A 
ATOM     14  C   UNL     1       1.244   8.756  20.238  0.00  0.00    +0.000 A 
ATOM     15  C   UNL     1       1.886   7.526  20.467  0.00  0.00    +0.000 A 
ENDBRANCH   8  10
BRANCH   6  16
ATOM     16  N   UNL     1       5.596   4.008  18.861  0.00  0.00    +0.000 NA
ATOM     17  C   UNL     1       6.221   4.732  17.986  0.00  0.00    +0.000 C 
BRANCH  17  18
ATOM     18  C   UNL     1       6.150   4.664  16.550  0.00  0.00    +0.000 A 
ATOM     19  C   UNL     1       6.683   3.752  15.661  0.00  0.00    +0.000 A 
ATOM     20  C   UNL     1       6.383   4.078  14.306  0.00  0.00    +0.000 A 
ATOM     21  C   UNL     1       5.622   5.220  14.206  0.00  0.00    +0.000 A 
ATOM     22  S   UNL     1       5.297   5.910  15.735  0.00  0.00    +0.000 S 
ENDBRANCH  17  18
ENDBRANCH   6  16
TORSDOF 3
ENDMDL
MODEL 5
REMARK VINA RESULT:      -6.8      1.828      2.065
REMARK  Name = 
REMARK  3 active torsions:
REMARK  status: ('A' for Active; 'I' for Inactive)
REMARK    1  A    between atoms: N_6  and  N_7
REMARK    2  A    between atoms: C_8  and  C_9
REMARK    3  A    between atoms: C_15  and  C_17
REMARK                            x       y       z     vdW  Elec       q    Type
REMARK                         _______ _______ _______ _____ _____    ______ ____
ROOT
ATOM      1  O   UNL     1       3.416   3.740  18.204  0.00  0.00    +0.000 OA
ATOM      2  C   UNL     1       3.005   4.655  18.927  0.00  0.00    +0.000 C 
ATOM      3  C   UNL     1       2.219   4.330  20.162  0.00  0.00    +0.000 C 
ATOM      4  S   UNL     1       1.521   5.867  20.733  0.00  0.00    +0.000 S 
ATOM      5  C   UNL     1       2.292   6.793  19.450  0.00  0.00    +0.000 C 
ATOM      6  N   UNL     1       1.964   8.043  19.426  0.00  0.00    +0.000 NA
ATOM      7  N   UNL     1       3.149   6.005  18.694  0.00  0.00    +0.000 N 
ATOM      8  C   UNL     1       3.970   6.460  17.651  0.00  0.00    +0.000 C 
ATOM      9  O   UNL     1       3.611   7.247  16.773  0.00  0.00    +0.000 OA
ENDROOT
BRANCH   8  10
ATOM     10  C   UNL     1       5.303   5.798  17.387  0.00  0.00    +0.000 A 
ATOM     11  C   UNL     1       5.502   5.274  16.093  0.00  0.00    +0.000 A 
ATOM     12  C   UNL     1       6.672   4.597  15.758  0.00  0.00    +0.000 A 
ATOM     13  C   UNL     1       7.669   4.429  16.715  0.00  0.00    +0.000 A 
ATOM     14  C   UNL     1       7.503   4.966  17.991  0.00  0.00    +0.000 A 
ATOM     15  C   UNL     1       6.333   5.671  18.323  0.00  0.00    +0.000 A 
ENDBRANCH   8  10
BRANCH   6  16
ATOM     16  N   UNL     1       2.468   8.774  18.381  0.00  0.00    +0.000 NA
ATOM     17  C   UNL     1       1.802   9.816  17.988  0.00  0.00    +0.000 C 
BRANCH  17  18
ATOM     18  C   UNL     1       0.551  10.321  18.487  0.00  0.00    +0.000 A 
ATOM     19  C   UNL     1      -0.747  10.072  18.090  0.00  0.00    +0.000 A 
ATOM     20  C   UNL     1      -1.699  10.809  18.855  0.00  0.00    +0.000 A 
ATOM     21  C   UNL     1      -1.096  11.586  19.817  0.00  0.00    +0.000 A 
ATOM     22  S   UNL     1       0.607  11.450  19.778  0.00  0.00    +0.000 S 
ENDBRANCH  17  18
ENDBRANCH   6  16
TORSDOF 3
ENDMDL
MODEL 6
REMARK VINA RESULT:      -6.7      1.802      2.269
REMARK  Name = 
REMARK  3 active torsions:
REMARK  status: ('A' for Active; 'I' for Inactive)
REMARK    1  A    between atoms: N_6  and  N_7
REMARK    2  A    between atoms: C_8  and  C_9
REMARK    3  A    between atoms: C_15  and  C_17
REMARK                            x       y       z     vdW  Elec       q    Type
REMARK                         _______ _______ _______ _____ _____    ______ ____
ROOT
ATOM      1  O   UNL     1       3.366   3.624  18.330  0.00  0.00    +0.000 OA
ATOM      2  C   UNL     1       2.969   4.560  19.033  0.00  0.00    +0.000 C 
ATOM      3  C   UNL     1       2.182   4.272  20.277  0.00  0.00    +0.000 C 
ATOM      4  S   UNL     1       1.506   5.831  20.815  0.00  0.00    +0.000 S 
ATOM      5  C   UNL     1       2.286   6.719  19.510  0.00  0.00    +0.000 C 
ATOM      6  N   UNL     1       1.975   7.971  19.459  0.00  0.00    +0.000 NA
ATOM      7  N   UNL     1       3.131   5.902  18.770  0.00  0.00    +0.000 N 
ATOM      8  C   UNL     1       3.956   6.322  17.715  0.00  0.00    +0.000 C 
ATOM      9  O   UNL     1       3.605   7.095  16.821  0.00  0.00    +0.000 OA
ENDROOT
BRANCH   8  10
ATOM     10  C   UNL     1       5.279   5.637  17.463  0.00  0.00    +0.000 A 
ATOM     11  C   UNL     1       6.227   5.692  18.506  0.00  0.00    +0.000 A 
ATOM     12  C   UNL     1       7.497   5.140  18.359  0.00  0.00    +0.000 A 
ATOM     13  C   UNL     1       7.846   4.522  17.161  0.00  0.00    +0.000 A 
ATOM     14  C   UNL     1       6.912   4.432  16.130  0.00  0.00    +0.000 A 
ATOM     15  C   UNL     1       5.621   4.966  16.286  0.00  0.00    +0.000 A 
ENDBRANCH   8  10
BRANCH   6  16
ATOM     16  N   UNL     1       2.486   8.673  18.397  0.00  0.00    +0.000 NA
ATOM     17  C   UNL     1       1.856   9.738  18.009  0.00  0.00    +0.000 C 
BRANCH  17  18
ATOM     18  C   UNL     1       0.638  10.299  18.530  0.00  0.00    +0.000 A 
ATOM     19  C   UNL     1      -0.676  10.119  18.148  0.00  0.00    +0.000 A 
ATOM     20  C   UNL     1      -1.580  10.894  18.933  0.00  0.00    +0.000 A 
ATOM     21  C   UNL     1      -0.927  11.630  19.894  0.00  0.00    +0.000 A 
ATOM     22  S   UNL     1       0.767  11.410  19.832  0.00  0.00    +0.000 S 
ENDBRANCH  17  18
ENDBRANCH   6  16
TORSDOF 3
ENDMDL
MODEL 7
REMARK VINA RESULT:      -6.6      0.878      1.426
REMARK  Name = 
REMARK  3 active torsions:
REMARK  status: ('A' for Active; 'I' for Inactive)
REMARK    1  A    between atoms: N_6  and  N_7
REMARK    2  A    between atoms: C_8  and  C_9
REMARK    3  A    between atoms: C_15  and  C_17
REMARK                            x       y       z     vdW  Elec       q    Type
REMARK                         _______ _______ _______ _____ _____    ______ ____
ROOT
ATOM      1  O   UNL     1       2.996   3.149  17.167  0.00  0.00    +0.000 OA
ATOM      2  C   UNL     1       2.706   3.658  18.256  0.00  0.00    +0.000 C 
ATOM      3  C   UNL     1       2.065   2.818  19.321  0.00  0.00    +0.000 C 
ATOM      4  S   UNL     1       1.494   3.948  20.575  0.00  0.00    +0.000 S 
ATOM      5  C   UNL     1       2.134   5.351  19.726  0.00  0.00    +0.000 C 
ATOM      6  N   UNL     1       1.847   6.483  20.278  0.00  0.00    +0.000 NA
ATOM      7  N   UNL     1       2.866   4.980  18.606  0.00  0.00    +0.000 N 
ATOM      8  C   UNL     1       3.570   5.855  17.764  0.00  0.00    +0.000 C 
ATOM      9  O   UNL     1       3.133   6.935  17.359  0.00  0.00    +0.000 OA
ENDROOT
BRANCH   8  10
ATOM     10  C   UNL     1       4.838   5.399  17.080  0.00  0.00    +0.000 A 
ATOM     11  C   UNL     1       5.906   5.019  17.919  0.00  0.00    +0.000 A 
ATOM     12  C   UNL     1       7.137   4.634  17.394  0.00  0.00    +0.000 A 
ATOM     13  C   UNL     1       7.325   4.623  16.014  0.00  0.00    +0.000 A 
ATOM     14  C   UNL     1       6.272   4.966  15.168  0.00  0.00    +0.000 A 
ATOM     15  C   UNL     1       5.021   5.331  15.696  0.00  0.00    +0.000 A 
ENDBRANCH   8  10
BRANCH   6  16
ATOM     16  N   UNL     1       2.246   7.602  19.592  0.00  0.00    +0.000 NA
ATOM     17  C   UNL     1       1.811   8.754  19.999  0.00  0.00    +0.000 C 
BRANCH  17  18
ATOM     18  C   UNL     1       0.915   9.041  21.088  0.00  0.00    +0.000 A 
ATOM     19  C   UNL     1      -0.459   9.158  21.121  0.00  0.00    +0.000 A 
ATOM     20  C   UNL     1      -0.945   9.475  22.424  0.00  0.00    +0.000 A 
ATOM     21  C   UNL     1       0.074   9.580  23.343  0.00  0.00    +0.000 A 
ATOM     22  S   UNL     1       1.607   9.324  22.633  0.00  0.00    +0.000 S 
ENDBRANCH  17  18
ENDBRANCH   6  16
TORSDOF 3
ENDMDL
MODEL 8
REMARK VINA RESULT:      -6.5      2.770      6.475
REMARK  Name = 
REMARK  3 active torsions:
REMARK  status: ('A' for Active; 'I' for Inactive)
REMARK    1  A    between atoms: N_6  and  N_7
REMARK    2  A    between atoms: C_8  and  C_9
REMARK    3  A    between atoms: C_15  and  C_17
REMARK                            x       y       z     vdW  Elec       q    Type
REMARK                         _______ _______ _______ _____ _____    ______ ____
ROOT
ATOM      1  O   UNL     1       0.702   4.780  19.987  0.00  0.00    +0.000 OA
ATOM      2  C   UNL     1       1.500   4.129  19.302  0.00  0.00    +0.000 C 
ATOM      3  C   UNL     1       1.048   2.860  18.642  0.00  0.00    +0.000 C 
ATOM      4  S   UNL     1       2.522   2.049  18.054  0.00  0.00    +0.000 S 
ATOM      5  C   UNL     1       3.566   3.352  18.610  0.00  0.00    +0.000 C 
ATOM      6  N   UNL     1       4.829   3.125  18.456  0.00  0.00    +0.000 NA
ATOM      7  N   UNL     1       2.830   4.421  19.103  0.00  0.00    +0.000 N 
ATOM      8  C   UNL     1       3.361   5.642  19.548  0.00  0.00    +0.000 C 
ATOM      9  O   UNL     1       4.358   5.749  20.266  0.00  0.00    +0.000 OA
ENDROOT
BRANCH   8  10
ATOM     10  C   UNL     1       2.575   6.921  19.380  0.00  0.00    +0.000 A 
ATOM     11  C   UNL     1       1.985   7.457  20.543  0.00  0.00    +0.000 A 
ATOM     12  C   UNL     1       1.194   8.603  20.492  0.00  0.00    +0.000 A 
ATOM     13  C   UNL     1       0.977   9.236  19.271  0.00  0.00    +0.000 A 
ATOM     14  C   UNL     1       1.578   8.739  18.116  0.00  0.00    +0.000 A 
ATOM     15  C   UNL     1       2.396   7.598  18.170  0.00  0.00    +0.000 A 
ENDBRANCH   8  10
BRANCH   6  16
ATOM     16  N   UNL     1       5.675   4.075  18.967  0.00  0.00    +0.000 NA
ATOM     17  C   UNL     1       6.319   4.831  18.133  0.00  0.00    +0.000 C 
BRANCH  17  18
ATOM     18  C   UNL     1       6.296   4.801  16.694  0.00  0.00    +0.000 A 
ATOM     19  C   UNL     1       7.069   4.098  15.793  0.00  0.00    +0.000 A 
ATOM     20  C   UNL     1       6.720   4.383  14.440  0.00  0.00    +0.000 A 
ATOM     21  C   UNL     1       5.684   5.285  14.355  0.00  0.00    +0.000 A 
ATOM     22  S   UNL     1       5.158   5.806  15.895  0.00  0.00    +0.000 S 
ENDBRANCH  17  18
ENDBRANCH   6  16
TORSDOF 3
ENDMDL
MODEL 9
REMARK VINA RESULT:      -6.4      2.952      7.116
REMARK  Name = 
REMARK  3 active torsions:
REMARK  status: ('A' for Active; 'I' for Inactive)
REMARK    1  A    between atoms: N_6  and  N_7
REMARK    2  A    between atoms: C_8  and  C_9
REMARK    3  A    between atoms: C_15  and  C_17
REMARK                            x       y       z     vdW  Elec       q    Type
REMARK                         _______ _______ _______ _____ _____    ______ ____
ROOT
ATOM      1  O   UNL     1       1.478   4.785  20.205  0.00  0.00    +0.000 OA
ATOM      2  C   UNL     1       1.953   4.270  19.186  0.00  0.00    +0.000 C 
ATOM      3  C   UNL     1       1.424   2.951  18.706  0.00  0.00    +0.000 C 
ATOM      4  S   UNL     1       2.558   2.381  17.455  0.00  0.00    +0.000 S 
ATOM      5  C   UNL     1       3.556   3.826  17.578  0.00  0.00    +0.000 C 
ATOM      6  N   UNL     1       4.625   3.797  16.854  0.00  0.00    +0.000 NA
ATOM      7  N   UNL     1       2.992   4.765  18.431  0.00  0.00    +0.000 N 
ATOM      8  C   UNL     1       3.500   6.050  18.681  0.00  0.00    +0.000 C 
ATOM      9  O   UNL     1       4.690   6.303  18.877  0.00  0.00    +0.000 OA
ENDROOT
BRANCH   8  10
ATOM     10  C   UNL     1       2.560   7.194  18.985  0.00  0.00    +0.000 A 
ATOM     11  C   UNL     1       2.173   7.999  17.894  0.00  0.00    +0.000 A 
ATOM     12  C   UNL     1       1.354   9.111  18.070  0.00  0.00    +0.000 A 
ATOM     13  C   UNL     1       0.906   9.442  19.347  0.00  0.00    +0.000 A 
ATOM     14  C   UNL     1       1.253   8.641  20.433  0.00  0.00    +0.000 A 
ATOM     15  C   UNL     1       2.059   7.503  20.253  0.00  0.00    +0.000 A 
ENDBRANCH   8  10
BRANCH   6  16
ATOM     16  N   UNL     1       5.477   4.862  16.999  0.00  0.00    +0.000 NA
ATOM     17  C   UNL     1       6.156   5.247  15.964  0.00  0.00    +0.000 C 
BRANCH  17  18
ATOM     18  C   UNL     1       6.170   4.682  14.640  0.00  0.00    +0.000 A 
ATOM     19  C   UNL     1       5.221   3.943  13.963  0.00  0.00    +0.000 A 
ATOM     20  C   UNL     1       5.659   3.562  12.660  0.00  0.00    +0.000 A 
ATOM     21  C   UNL     1       6.922   4.032  12.383  0.00  0.00    +0.000 A 
ATOM     22  S   UNL     1       7.586   4.902  13.696  0.00  0.00    +0.000 S 
ENDBRANCH  17  18
ENDBRANCH   6  16
TORSDOF 3
ENDMDL
