MODEL 1
REMARK VINA RESULT:      -8.9      0.000      0.000
REMARK  Name = 
REMARK  3 active torsions:
REMARK  status: ('A' for Active; 'I' for Inactive)
REMARK    1  A    between atoms: C_2  and  C_13
REMARK    2  A    between atoms: N_3  and  C_4
REMARK    3  A    between atoms: C_24  and  C_25
REMARK                            x       y       z     vdW  Elec       q    Type
REMARK                         _______ _______ _______ _____ _____    ______ ____
ROOT
ATOM      1  C   UNL     1       2.069   6.039  20.039  0.00  0.00    +0.000 A 
ATOM      2  C   UNL     1       1.785   5.012  20.969  0.00  0.00    +0.000 A 
ATOM      3  N   UNL     1       2.281   3.826  20.631  0.00  0.00    +0.000 NA
ATOM      4  N   UNL     1       2.963   4.057  19.482  0.00  0.00    +0.000 N 
ATOM      5  C   UNL     1       2.846   5.408  19.088  0.00  0.00    +0.000 A 
ATOM      6  N   UNL     1       3.523   5.812  17.972  0.00  0.00    +0.000 N 
ATOM      7  C   UNL     1       4.326   4.951  17.222  0.00  0.00    +0.000 C 
ATOM      8  C   UNL     1       5.010   5.303  16.150  0.00  0.00    +0.000 C 
ATOM      9  C   UNL     1       5.881   4.861  15.126  0.00  0.00    +0.000 C 
ATOM     10  C   UNL     1       5.359   6.330  15.249  0.00  0.00    +0.000 C 
ATOM     11  C   UNL     1       4.407   3.560  17.668  0.00  0.00    +0.000 C 
ATOM     12  C   UNL     1       3.735   3.144  18.760  0.00  0.00    +0.000 C 
ATOM     13  H   UNL     1       3.585   6.789  17.698  0.00  0.00    +0.000 HD
ENDROOT
BRANCH   1  15
ATOM     14  O   UNL     1       2.186   8.272  19.505  0.00  0.00    +0.000 OA
ATOM     15  C   UNL     1       1.669   7.424  20.226  0.00  0.00    +0.000 C 
ATOM     16  N   UNL     1       0.806   7.693  21.280  0.00  0.00    +0.000 N 
ATOM     17  H   UNL     1       0.620   6.938  21.925  0.00  0.00    +0.000 HD
BRANCH  16  18
ATOM     18  C   UNL     1       0.352   8.995  21.648  0.00  0.00    +0.000 A 
ATOM     19  C   UNL     1      -0.486   9.216  22.760  0.00  0.00    +0.000 A 
ATOM     20  C   UNL     1      -0.931  10.494  23.113  0.00  0.00    +0.000 A 
ATOM     21  C   UNL     1      -0.527  11.566  22.349  0.00  0.00    +0.000 A 
ATOM     22  C   UNL     1       0.293  11.376  21.232  0.00  0.00    +0.000 A 
ATOM     23  C   UNL     1       0.748  10.104  20.877  0.00  0.00    +0.000 A 
ATOM     24  C   UNL     1       0.493  12.683  20.522  0.00  0.00    +0.000 C 
ATOM     25  C   UNL     1       0.145  13.689  21.632  0.00  0.00    +0.000 C 
ATOM     26  C   UNL     1      -0.899  13.006  22.524  0.00  0.00    +0.000 C 
ENDBRANCH  16  18
ENDBRANCH   1  15
BRANCH  12  27
ATOM     27  C   UNL     1       3.798   1.747  19.273  0.00  0.00    +0.000 C 
ATOM     28  F   UNL     1       3.954   0.866  18.247  0.00  0.00    +0.000 F 
ATOM     29  F   UNL     1       4.894   1.569  20.071  0.00  0.00    +0.000 F 
ENDBRANCH  12  27
TORSDOF 3
ENDMDL
MODEL 2
REMARK VINA RESULT:      -8.8      4.840      9.104
REMARK  Name = 
REMARK  3 active torsions:
REMARK  status: ('A' for Active; 'I' for Inactive)
REMARK    1  A    between atoms: C_2  and  C_13
REMARK    2  A    between atoms: N_3  and  C_4
REMARK    3  A    between atoms: C_24  and  C_25
REMARK                            x       y       z     vdW  Elec       q    Type
REMARK                         _______ _______ _______ _____ _____    ______ ____
ROOT
ATOM      1  C   UNL     1       1.008   9.760  19.041  0.00  0.00    +0.000 A 
ATOM      2  C   UNL     1       1.270  10.089  20.391  0.00  0.00    +0.000 A 
ATOM      3  N   UNL     1       0.352  10.878  20.942  0.00  0.00    +0.000 NA
ATOM      4  N   UNL     1      -0.582  11.043  19.972  0.00  0.00    +0.000 N 
ATOM      5  C   UNL     1      -0.204  10.372  18.788  0.00  0.00    +0.000 A 
ATOM      6  N   UNL     1      -1.068  10.402  17.731  0.00  0.00    +0.000 N 
ATOM      7  C   UNL     1      -2.302  11.052  17.781  0.00  0.00    +0.000 C 
ATOM      8  C   UNL     1      -3.174  11.089  16.790  0.00  0.00    +0.000 C 
ATOM      9  C   UNL     1      -4.436  11.569  16.367  0.00  0.00    +0.000 C 
ATOM     10  C   UNL     1      -3.484  10.714  15.468  0.00  0.00    +0.000 C 
ATOM     11  C   UNL     1      -2.642  11.738  19.027  0.00  0.00    +0.000 C 
ATOM     12  C   UNL     1      -1.794  11.729  20.075  0.00  0.00    +0.000 C 
ATOM     13  H   UNL     1      -0.922   9.844  16.893  0.00  0.00    +0.000 HD
ENDROOT
BRANCH   1  15
ATOM     14  O   UNL     1       2.139   9.220  17.114  0.00  0.00    +0.000 OA
ATOM     15  C   UNL     1       1.847   8.872  18.254  0.00  0.00    +0.000 C 
ATOM     16  N   UNL     1       2.170   7.645  18.821  0.00  0.00    +0.000 N 
ATOM     17  H   UNL     1       1.696   7.396  19.678  0.00  0.00    +0.000 HD
BRANCH  16  18
ATOM     18  C   UNL     1       2.936   6.628  18.176  0.00  0.00    +0.000 A 
ATOM     19  C   UNL     1       2.484   5.296  18.070  0.00  0.00    +0.000 A 
ATOM     20  C   UNL     1       3.240   4.302  17.440  0.00  0.00    +0.000 A 
ATOM     21  C   UNL     1       4.461   4.646  16.902  0.00  0.00    +0.000 A 
ATOM     22  C   UNL     1       4.941   5.956  17.005  0.00  0.00    +0.000 A 
ATOM     23  C   UNL     1       4.189   6.956  17.625  0.00  0.00    +0.000 A 
ATOM     24  C   UNL     1       6.328   6.032  16.436  0.00  0.00    +0.000 C 
ATOM     25  C   UNL     1       6.362   4.778  15.547  0.00  0.00    +0.000 C 
ATOM     26  C   UNL     1       5.441   3.748  16.213  0.00  0.00    +0.000 C 
ENDBRANCH  16  18
ENDBRANCH   1  15
BRANCH  12  27
ATOM     27  C   UNL     1      -2.096  12.390  21.375  0.00  0.00    +0.000 C 
ATOM     28  F   UNL     1      -1.682  13.687  21.360  0.00  0.00    +0.000 F 
ATOM     29  F   UNL     1      -3.444  12.443  21.594  0.00  0.00    +0.000 F 
ENDBRANCH  12  27
TORSDOF 3
ENDMDL
MODEL 3
REMARK VINA RESULT:      -8.8      2.148      2.454
REMARK  Name = 
REMARK  3 active torsions:
REMARK  status: ('A' for Active; 'I' for Inactive)
REMARK    1  A    between atoms: C_2  and  C_13
REMARK    2  A    between atoms: N_3  and  C_4
REMARK    3  A    between atoms: C_24  and  C_25
REMARK                            x       y       z     vdW  Elec       q    Type
REMARK                         _______ _______ _______ _____ _____    ______ ____
ROOT
ATOM      1  C   UNL     1       2.233   7.185  18.979  0.00  0.00    +0.000 A 
ATOM      2  C   UNL     1       1.854   6.667  20.239  0.00  0.00    +0.000 A 
ATOM      3  N   UNL     1       2.293   5.434  20.470  0.00  0.00    +0.000 NA
ATOM      4  N   UNL     1       3.032   5.125  19.375  0.00  0.00    +0.000 N 
ATOM      5  C   UNL     1       3.009   6.179  18.437  0.00  0.00    +0.000 A 
ATOM      6  N   UNL     1       3.751   6.040  17.298  0.00  0.00    +0.000 N 
ATOM      7  C   UNL     1       4.531   4.913  17.037  0.00  0.00    +0.000 C 
ATOM      8  C   UNL     1       5.277   4.746  15.960  0.00  0.00    +0.000 C 
ATOM      9  C   UNL     1       6.159   3.876  15.278  0.00  0.00    +0.000 C 
ATOM     10  C   UNL     1       5.719   5.273  14.731  0.00  0.00    +0.000 C 
ATOM     11  C   UNL     1       4.514   3.846  18.038  0.00  0.00    +0.000 C 
ATOM     12  C   UNL     1       3.777   3.963  19.160  0.00  0.00    +0.000 C 
ATOM     13  H   UNL     1       3.881   6.802  16.637  0.00  0.00    +0.000 HD
ENDROOT
BRANCH   1  15
ATOM     14  O   UNL     1       2.413   8.923  17.485  0.00  0.00    +0.000 OA
ATOM     15  C   UNL     1       1.909   8.529  18.532  0.00  0.00    +0.000 C 
ATOM     16  N   UNL     1       1.129   9.303  19.382  0.00  0.00    +0.000 N 
ATOM     17  H   UNL     1       0.952   8.934  20.306  0.00  0.00    +0.000 HD
BRANCH  16  18
ATOM     18  C   UNL     1       0.758  10.659  19.136  0.00  0.00    +0.000 A 
ATOM     19  C   UNL     1      -0.518  11.016  18.653  0.00  0.00    +0.000 A 
ATOM     20  C   UNL     1      -0.876  12.347  18.411  0.00  0.00    +0.000 A 
ATOM     21  C   UNL     1       0.053  13.333  18.660  0.00  0.00    +0.000 A 
ATOM     22  C   UNL     1       1.331  13.008  19.125  0.00  0.00    +0.000 A 
ATOM     23  C   UNL     1       1.693  11.682  19.378  0.00  0.00    +0.000 A 
ATOM     24  C   UNL     1       2.170  14.249  19.210  0.00  0.00    +0.000 C 
ATOM     25  C   UNL     1       1.091  15.344  19.250  0.00  0.00    +0.000 C 
ATOM     26  C   UNL     1      -0.102  14.807  18.448  0.00  0.00    +0.000 C 
ENDBRANCH  16  18
ENDBRANCH   1  15
BRANCH  12  27
ATOM     27  C   UNL     1       3.739   2.921  20.223  0.00  0.00    +0.000 C 
ATOM     28  F   UNL     1       2.590   2.194  20.140  0.00  0.00    +0.000 F 
ATOM     29  F   UNL     1       4.750   2.017  20.058  0.00  0.00    +0.000 F 
ENDBRANCH  12  27
TORSDOF 3
ENDMDL
MODEL 4
REMARK VINA RESULT:      -8.8      1.896      2.116
REMARK  Name = 
REMARK  3 active torsions:
REMARK  status: ('A' for Active; 'I' for Inactive)
REMARK    1  A    between atoms: C_2  and  C_13
REMARK    2  A    between atoms: N_3  and  C_4
REMARK    3  A    between atoms: C_24  and  C_25
REMARK                            x       y       z     vdW  Elec       q    Type
REMARK                         _______ _______ _______ _____ _____    ______ ____
ROOT
ATOM      1  C   UNL     1       2.098   6.380  19.921  0.00  0.00    +0.000 A 
ATOM      2  C   UNL     1       1.773   5.389  20.877  0.00  0.00    +0.000 A 
ATOM      3  N   UNL     1       2.235   4.178  20.577  0.00  0.00    +0.000 NA
ATOM      4  N   UNL     1       2.934   4.356  19.428  0.00  0.00    +0.000 N 
ATOM      5  C   UNL     1       2.864   5.698  18.996  0.00  0.00    +0.000 A 
ATOM      6  N   UNL     1       3.563   6.048  17.876  0.00  0.00    +0.000 N 
ATOM      7  C   UNL     1       4.344   5.142  17.158  0.00  0.00    +0.000 C 
ATOM      8  C   UNL     1       5.050   5.442  16.083  0.00  0.00    +0.000 C 
ATOM      9  C   UNL     1       5.915   4.943  15.081  0.00  0.00    +0.000 C 
ATOM     10  C   UNL     1       5.439   6.431  15.158  0.00  0.00    +0.000 C 
ATOM     11  C   UNL     1       4.377   3.762  17.643  0.00  0.00    +0.000 C 
ATOM     12  C   UNL     1       3.683   3.398  18.740  0.00  0.00    +0.000 C 
ATOM     13  H   UNL     1       3.658   7.015  17.574  0.00  0.00    +0.000 HD
ENDROOT
BRANCH   1  15
ATOM     14  O   UNL     1       1.643   8.234  21.201  0.00  0.00    +0.000 OA
ATOM     15  C   UNL     1       1.742   7.781  20.065  0.00  0.00    +0.000 C 
ATOM     16  N   UNL     1       1.439   8.476  18.901  0.00  0.00    +0.000 N 
ATOM     17  H   UNL     1       1.356   7.935  18.051  0.00  0.00    +0.000 HD
BRANCH  16  18
ATOM     18  C   UNL     1       1.017   9.839  18.853  0.00  0.00    +0.000 A 
ATOM     19  C   UNL     1      -0.328  10.219  19.038  0.00  0.00    +0.000 A 
ATOM     20  C   UNL     1      -0.737  11.556  18.987  0.00  0.00    +0.000 A 
ATOM     21  C   UNL     1       0.214  12.525  18.755  0.00  0.00    +0.000 A 
ATOM     22  C   UNL     1       1.553  12.177  18.555  0.00  0.00    +0.000 A 
ATOM     23  C   UNL     1       1.970  10.845  18.612  0.00  0.00    +0.000 A 
ATOM     24  C   UNL     1       2.350  13.403  18.219  0.00  0.00    +0.000 C 
ATOM     25  C   UNL     1       1.440  14.517  18.764  0.00  0.00    +0.000 C 
ATOM     26  C   UNL     1       0.000  14.003  18.634  0.00  0.00    +0.000 C 
ENDBRANCH  16  18
ENDBRANCH   1  15
BRANCH  12  27
ATOM     27  C   UNL     1       3.697   2.015  19.293  0.00  0.00    +0.000 C 
ATOM     28  F   UNL     1       3.783   1.099  18.289  0.00  0.00    +0.000 F 
ATOM     29  F   UNL     1       4.805   1.810  20.065  0.00  0.00    +0.000 F 
ENDBRANCH  12  27
TORSDOF 3
ENDMDL
MODEL 5
REMARK VINA RESULT:      -8.8      5.010      9.090
REMARK  Name = 
REMARK  3 active torsions:
REMARK  status: ('A' for Active; 'I' for Inactive)
REMARK    1  A    between atoms: C_2  and  C_13
REMARK    2  A    between atoms: N_3  and  C_4
REMARK    3  A    between atoms: C_24  and  C_25
REMARK                            x       y       z     vdW  Elec       q    Type
REMARK                         _______ _______ _______ _____ _____    ______ ____
ROOT
ATOM      1  C   UNL     1       0.667   9.737  20.054  0.00  0.00    +0.000 A 
ATOM      2  C   UNL     1       0.751  10.507  21.237  0.00  0.00    +0.000 A 
ATOM      3  N   UNL     1      -0.091  11.535  21.272  0.00  0.00    +0.000 NA
ATOM      4  N   UNL     1      -0.801  11.433  20.121  0.00  0.00    +0.000 N 
ATOM      5  C   UNL     1      -0.355  10.340  19.347  0.00  0.00    +0.000 A 
ATOM      6  N   UNL     1      -1.008  10.073  18.177  0.00  0.00    +0.000 N 
ATOM      7  C   UNL     1      -2.096  10.825  17.731  0.00  0.00    +0.000 C 
ATOM      8  C   UNL     1      -2.766  10.591  16.618  0.00  0.00    +0.000 C 
ATOM      9  C   UNL     1      -3.832  11.014  15.789  0.00  0.00    +0.000 C 
ATOM     10  C   UNL     1      -2.910   9.794  15.465  0.00  0.00    +0.000 C 
ATOM     11  C   UNL     1      -2.514  11.950  18.566  0.00  0.00    +0.000 C 
ATOM     12  C   UNL     1      -1.872  12.234  19.717  0.00  0.00    +0.000 C 
ATOM     13  H   UNL     1      -0.823   9.237  17.630  0.00  0.00    +0.000 HD
ENDROOT
BRANCH   1  15
ATOM     14  O   UNL     1       1.852   7.911  20.795  0.00  0.00    +0.000 OA
ATOM     15  C   UNL     1       1.455   8.539  19.818  0.00  0.00    +0.000 C 
ATOM     16  N   UNL     1       1.787   8.253  18.499  0.00  0.00    +0.000 N 
ATOM     17  H   UNL     1       1.576   8.961  17.809  0.00  0.00    +0.000 HD
BRANCH  16  18
ATOM     18  C   UNL     1       2.597   7.155  18.084  0.00  0.00    +0.000 A 
ATOM     19  C   UNL     1       3.900   7.329  17.573  0.00  0.00    +0.000 A 
ATOM     20  C   UNL     1       4.689   6.248  17.164  0.00  0.00    +0.000 A 
ATOM     21  C   UNL     1       4.170   4.977  17.274  0.00  0.00    +0.000 A 
ATOM     22  C   UNL     1       2.876   4.775  17.763  0.00  0.00    +0.000 A 
ATOM     23  C   UNL     1       2.085   5.848  18.181  0.00  0.00    +0.000 A 
ATOM     24  C   UNL     1       2.524   3.318  17.678  0.00  0.00    +0.000 C 
ATOM     25  C   UNL     1       3.917   2.673  17.587  0.00  0.00    +0.000 C 
ATOM     26  C   UNL     1       4.820   3.688  16.875  0.00  0.00    +0.000 C 
ENDBRANCH  16  18
ENDBRANCH   1  15
BRANCH  12  27
ATOM     27  C   UNL     1      -2.267  13.352  20.617  0.00  0.00    +0.000 C 
ATOM     28  F   UNL     1      -1.736  14.529  20.182  0.00  0.00    +0.000 F 
ATOM     29  F   UNL     1      -3.620  13.538  20.600  0.00  0.00    +0.000 F 
ENDBRANCH  12  27
TORSDOF 3
ENDMDL
MODEL 6
REMARK VINA RESULT:      -8.7      4.321      8.775
REMARK  Name = 
REMARK  3 active torsions:
REMARK  status: ('A' for Active; 'I' for Inactive)
REMARK    1  A    between atoms: C_2  and  C_13
REMARK    2  A    between atoms: N_3  and  C_4
REMARK    3  A    between atoms: C_24  and  C_25
REMARK                            x       y       z     vdW  Elec       q    Type
REMARK                         _______ _______ _______ _____ _____    ______ ____
ROOT
ATOM      1  C   UNL     1       1.175   8.731  20.706  0.00  0.00    +0.000 A 
ATOM      2  C   UNL     1       1.387   9.168  22.034  0.00  0.00    +0.000 A 
ATOM      3  N   UNL     1       0.682  10.246  22.367  0.00  0.00    +0.000 NA
ATOM      4  N   UNL     1      -0.067  10.515  21.268  0.00  0.00    +0.000 N 
ATOM      5  C   UNL     1       0.219   9.604  20.227  0.00  0.00    +0.000 A 
ATOM      6  N   UNL     1      -0.494   9.713  19.067  0.00  0.00    +0.000 N 
ATOM      7  C   UNL     1      -1.491  10.671  18.879  0.00  0.00    +0.000 C 
ATOM      8  C   UNL     1      -2.216  10.798  17.783  0.00  0.00    +0.000 C 
ATOM      9  C   UNL     1      -3.242  11.534  17.144  0.00  0.00    +0.000 C 
ATOM     10  C   UNL     1      -2.489  10.335  16.480  0.00  0.00    +0.000 C 
ATOM     11  C   UNL     1      -1.743  11.594  19.985  0.00  0.00    +0.000 C 
ATOM     12  C   UNL     1      -1.039  11.508  21.132  0.00  0.00    +0.000 C 
ATOM     13  H   UNL     1      -0.431   9.022  18.323  0.00  0.00    +0.000 HD
ENDROOT
BRANCH   1  15
ATOM     14  O   UNL     1       1.892   6.552  20.853  0.00  0.00    +0.000 OA
ATOM     15  C   UNL     1       1.801   7.547  20.141  0.00  0.00    +0.000 C 
ATOM     16  N   UNL     1       2.342   7.668  18.867  0.00  0.00    +0.000 N 
ATOM     17  H   UNL     1       2.384   8.598  18.473  0.00  0.00    +0.000 HD
BRANCH  16  18
ATOM     18  C   UNL     1       3.040   6.632  18.178  0.00  0.00    +0.000 A 
ATOM     19  C   UNL     1       2.535   5.318  18.081  0.00  0.00    +0.000 A 
ATOM     20  C   UNL     1       3.225   4.305  17.407  0.00  0.00    +0.000 A 
ATOM     21  C   UNL     1       4.432   4.611  16.817  0.00  0.00    +0.000 A 
ATOM     22  C   UNL     1       4.963   5.901  16.910  0.00  0.00    +0.000 A 
ATOM     23  C   UNL     1       4.277   6.921  17.574  0.00  0.00    +0.000 A 
ATOM     24  C   UNL     1       6.325   5.935  16.278  0.00  0.00    +0.000 C 
ATOM     25  C   UNL     1       6.273   4.690  15.376  0.00  0.00    +0.000 C 
ATOM     26  C   UNL     1       5.347   3.686  16.075  0.00  0.00    +0.000 C 
ENDBRANCH  16  18
ENDBRANCH   1  15
BRANCH  12  27
ATOM     27  C   UNL     1      -1.267  12.405  22.298  0.00  0.00    +0.000 C 
ATOM     28  F   UNL     1      -2.002  13.491  21.931  0.00  0.00    +0.000 F 
ATOM     29  F   UNL     1      -2.007  11.777  23.260  0.00  0.00    +0.000 F 
ENDBRANCH  12  27
TORSDOF 3
ENDMDL
MODEL 7
REMARK VINA RESULT:      -8.7      4.976      8.995
REMARK  Name = 
REMARK  3 active torsions:
REMARK  status: ('A' for Active; 'I' for Inactive)
REMARK    1  A    between atoms: C_2  and  C_13
REMARK    2  A    between atoms: N_3  and  C_4
REMARK    3  A    between atoms: C_24  and  C_25
REMARK                            x       y       z     vdW  Elec       q    Type
REMARK                         _______ _______ _______ _____ _____    ______ ____
ROOT
ATOM      1  C   UNL     1       0.700   9.645  20.029  0.00  0.00    +0.000 A 
ATOM      2  C   UNL     1       0.791  10.402  21.220  0.00  0.00    +0.000 A 
ATOM      3  N   UNL     1      -0.043  11.437  21.267  0.00  0.00    +0.000 NA
ATOM      4  N   UNL     1      -0.755  11.353  20.115  0.00  0.00    +0.000 N 
ATOM      5  C   UNL     1      -0.317  10.265  19.330  0.00  0.00    +0.000 A 
ATOM      6  N   UNL     1      -0.973  10.015  18.157  0.00  0.00    +0.000 N 
ATOM      7  C   UNL     1      -2.055  10.781  17.720  0.00  0.00    +0.000 C 
ATOM      8  C   UNL     1      -2.728  10.563  16.605  0.00  0.00    +0.000 C 
ATOM      9  C   UNL     1      -3.790  11.005  15.781  0.00  0.00    +0.000 C 
ATOM     10  C   UNL     1      -2.879   9.780  15.443  0.00  0.00    +0.000 C 
ATOM     11  C   UNL     1      -2.464  11.901  18.567  0.00  0.00    +0.000 C 
ATOM     12  C   UNL     1      -1.818  12.167  19.720  0.00  0.00    +0.000 C 
ATOM     13  H   UNL     1      -0.796   9.183  17.601  0.00  0.00    +0.000 HD
ENDROOT
BRANCH   1  15
ATOM     14  O   UNL     1       1.856   7.794  20.750  0.00  0.00    +0.000 OA
ATOM     15  C   UNL     1       1.478   8.443  19.780  0.00  0.00    +0.000 C 
ATOM     16  N   UNL     1       1.822   8.179  18.460  0.00  0.00    +0.000 N 
ATOM     17  H   UNL     1       1.626   8.901  17.781  0.00  0.00    +0.000 HD
BRANCH  16  18
ATOM     18  C   UNL     1       2.625   7.079  18.034  0.00  0.00    +0.000 A 
ATOM     19  C   UNL     1       2.190   5.741  18.139  0.00  0.00    +0.000 A 
ATOM     20  C   UNL     1       2.983   4.667  17.722  0.00  0.00    +0.000 A 
ATOM     21  C   UNL     1       4.224   4.934  17.188  0.00  0.00    +0.000 A 
ATOM     22  C   UNL     1       4.688   6.249  17.085  0.00  0.00    +0.000 A 
ATOM     23  C   UNL     1       3.899   7.328  17.491  0.00  0.00    +0.000 A 
ATOM     24  C   UNL     1       6.099   6.250  16.573  0.00  0.00    +0.000 C 
ATOM     25  C   UNL     1       6.185   4.863  15.914  0.00  0.00    +0.000 C 
ATOM     26  C   UNL     1       5.243   3.947  16.707  0.00  0.00    +0.000 C 
ENDBRANCH  16  18
ENDBRANCH   1  15
BRANCH  12  27
ATOM     27  C   UNL     1      -2.204  13.279  20.633  0.00  0.00    +0.000 C 
ATOM     28  F   UNL     1      -1.571  14.431  20.277  0.00  0.00    +0.000 F 
ATOM     29  F   UNL     1      -3.539  13.553  20.531  0.00  0.00    +0.000 F 
ENDBRANCH  12  27
TORSDOF 3
ENDMDL
MODEL 8
REMARK VINA RESULT:      -8.6      0.562      1.360
REMARK  Name = 
REMARK  3 active torsions:
REMARK  status: ('A' for Active; 'I' for Inactive)
REMARK    1  A    between atoms: C_2  and  C_13
REMARK    2  A    between atoms: N_3  and  C_4
REMARK    3  A    between atoms: C_24  and  C_25
REMARK                            x       y       z     vdW  Elec       q    Type
REMARK                         _______ _______ _______ _____ _____    ______ ____
ROOT
ATOM      1  C   UNL     1       2.183   6.141  19.814  0.00  0.00    +0.000 A 
ATOM      2  C   UNL     1       1.883   5.220  20.844  0.00  0.00    +0.000 A 
ATOM      3  N   UNL     1       2.361   3.997  20.630  0.00  0.00    +0.000 NA
ATOM      4  N   UNL     1       3.048   4.099  19.465  0.00  0.00    +0.000 N 
ATOM      5  C   UNL     1       2.952   5.404  18.934  0.00  0.00    +0.000 A 
ATOM      6  N   UNL     1       3.635   5.680  17.784  0.00  0.00    +0.000 N 
ATOM      7  C   UNL     1       4.425   4.735  17.129  0.00  0.00    +0.000 C 
ATOM      8  C   UNL     1       5.116   4.965  16.027  0.00  0.00    +0.000 C 
ATOM      9  C   UNL     1       5.980   4.407  15.056  0.00  0.00    +0.000 C 
ATOM     10  C   UNL     1       5.481   5.888  15.027  0.00  0.00    +0.000 C 
ATOM     11  C   UNL     1       4.484   3.397  17.715  0.00  0.00    +0.000 C 
ATOM     12  C   UNL     1       3.806   3.104  18.842  0.00  0.00    +0.000 C 
ATOM     13  H   UNL     1       3.712   6.623  17.411  0.00  0.00    +0.000 HD
ENDROOT
BRANCH   1  15
ATOM     14  O   UNL     1       2.217   8.276  18.962  0.00  0.00    +0.000 OA
ATOM     15  C   UNL     1       1.805   7.544  19.856  0.00  0.00    +0.000 C 
ATOM     16  N   UNL     1       1.088   7.969  20.967  0.00  0.00    +0.000 N 
ATOM     17  H   UNL     1       0.993   7.313  21.731  0.00  0.00    +0.000 HD
BRANCH  16  18
ATOM     18  C   UNL     1       0.680   9.315  21.206  0.00  0.00    +0.000 A 
ATOM     19  C   UNL     1       1.295  10.414  20.571  0.00  0.00    +0.000 A 
ATOM     20  C   UNL     1       0.894  11.732  20.811  0.00  0.00    +0.000 A 
ATOM     21  C   UNL     1      -0.141  11.954  21.693  0.00  0.00    +0.000 A 
ATOM     22  C   UNL     1      -0.760  10.885  22.348  0.00  0.00    +0.000 A 
ATOM     23  C   UNL     1      -0.370   9.565  22.108  0.00  0.00    +0.000 A 
ATOM     24  C   UNL     1      -1.773  11.408  23.324  0.00  0.00    +0.000 C 
ATOM     25  C   UNL     1      -2.024  12.823  22.774  0.00  0.00    +0.000 C 
ATOM     26  C   UNL     1      -0.712  13.271  22.117  0.00  0.00    +0.000 C 
ENDBRANCH  16  18
ENDBRANCH   1  15
BRANCH  12  27
ATOM     27  C   UNL     1       3.847   1.767  19.496  0.00  0.00    +0.000 C 
ATOM     28  F   UNL     1       3.919   0.779  18.562  0.00  0.00    +0.000 F 
ATOM     29  F   UNL     1       4.975   1.630  20.255  0.00  0.00    +0.000 F 
ENDBRANCH  12  27
TORSDOF 3
ENDMDL
MODEL 9
REMARK VINA RESULT:      -8.5      1.224      1.224
REMARK  Name = 
REMARK  3 active torsions:
REMARK  status: ('A' for Active; 'I' for Inactive)
REMARK    1  A    between atoms: C_2  and  C_13
REMARK    2  A    between atoms: N_3  and  C_4
REMARK    3  A    between atoms: C_24  and  C_25
REMARK                            x       y       z     vdW  Elec       q    Type
REMARK                         _______ _______ _______ _____ _____    ______ ____
ROOT
ATOM      1  C   UNL     1       1.979   6.194  20.198  0.00  0.00    +0.000 A 
ATOM      2  C   UNL     1       1.360   5.090  20.828  0.00  0.00    +0.000 A 
ATOM      3  N   UNL     1       1.985   3.933  20.624  0.00  0.00    +0.000 NA
ATOM      4  N   UNL     1       3.079   4.262  19.892  0.00  0.00    +0.000 N 
ATOM      5  C   UNL     1       3.100   5.644  19.608  0.00  0.00    +0.000 A 
ATOM      6  N   UNL     1       4.170   6.141  18.919  0.00  0.00    +0.000 N 
ATOM      7  C   UNL     1       5.236   5.343  18.501  0.00  0.00    +0.000 C 
ATOM      8  C   UNL     1       6.296   5.785  17.850  0.00  0.00    +0.000 C 
ATOM      9  C   UNL     1       7.527   5.428  17.250  0.00  0.00    +0.000 C 
ATOM     10  C   UNL     1       6.961   6.885  17.274  0.00  0.00    +0.000 C 
ATOM     11  C   UNL     1       5.161   3.917  18.813  0.00  0.00    +0.000 C 
ATOM     12  C   UNL     1       4.106   3.409  19.481  0.00  0.00    +0.000 C 
ATOM     13  H   UNL     1       4.315   7.138  18.784  0.00  0.00    +0.000 HD
ENDROOT
BRANCH   1  15
ATOM     14  O   UNL     1       2.070   8.430  19.670  0.00  0.00    +0.000 OA
ATOM     15  C   UNL     1       1.501   7.561  20.323  0.00  0.00    +0.000 C 
ATOM     16  N   UNL     1       0.498   7.794  21.256  0.00  0.00    +0.000 N 
ATOM     17  H   UNL     1       0.261   7.031  21.876  0.00  0.00    +0.000 HD
BRANCH  16  18
ATOM     18  C   UNL     1      -0.055   9.075  21.553  0.00  0.00    +0.000 A 
ATOM     19  C   UNL     1      -0.317   9.495  22.874  0.00  0.00    +0.000 A 
ATOM     20  C   UNL     1      -0.862  10.752  23.160  0.00  0.00    +0.000 A 
ATOM     21  C   UNL     1      -1.142  11.601  22.112  0.00  0.00    +0.000 A 
ATOM     22  C   UNL     1      -0.906  11.206  20.792  0.00  0.00    +0.000 A 
ATOM     23  C   UNL     1      -0.354   9.956  20.498  0.00  0.00    +0.000 A 
ATOM     24  C   UNL     1      -1.395  12.267  19.850  0.00  0.00    +0.000 C 
ATOM     25  C   UNL     1      -1.442  13.496  20.775  0.00  0.00    +0.000 C 
ATOM     26  C   UNL     1      -1.748  12.969  22.182  0.00  0.00    +0.000 C 
ENDBRANCH  16  18
ENDBRANCH   1  15
BRANCH  12  27
ATOM     27  C   UNL     1       3.987   1.970  19.847  0.00  0.00    +0.000 C 
ATOM     28  F   UNL     1       3.979   1.192  18.729  0.00  0.00    +0.000 F 
ATOM     29  F   UNL     1       5.073   1.558  20.567  0.00  0.00    +0.000 F 
ENDBRANCH  12  27
TORSDOF 3
ENDMDL
