MODEL 1
REMARK VINA RESULT:      -8.4      0.000      0.000
REMARK  Name = 
REMARK  5 active torsions:
REMARK  status: ('A' for Active; 'I' for Inactive)
REMARK    1  A    between atoms: C_1  and  C_2
REMARK    2  A    between atoms: C_2  and  C_3
REMARK    3  A    between atoms: C_6  and  C_7
REMARK    4  A    between atoms: C_15  and  C_17
REMARK    5  A    between atoms: C_24  and  C_25
REMARK                            x       y       z     vdW  Elec       q    Type
REMARK                         _______ _______ _______ _____ _____    ______ ____
ROOT
ATOM      1  C   UNL     1       6.360   4.590  13.973  0.00  0.00    +0.000 A 
ATOM      2  N   UNL     1       7.467   5.313  13.951  0.00  0.00    +0.000 NA
ATOM      3  N   UNL     1       7.645   5.873  15.196  0.00  0.00    +0.000 NA
ATOM      4  C   UNL     1       6.650   5.480  15.965  0.00  0.00    +0.000 A 
ATOM      5  N   UNL     1       5.795   4.726  15.208  0.00  0.00    +0.000 N 
ATOM      6  C   UNL     1       4.556   4.186  15.700  0.00  0.00    +0.000 C 
ATOM      7  C   UNL     1       4.165   4.821  17.029  0.00  0.00    +0.000 C 
ATOM      8  N   UNL     1       5.303   4.967  17.954  0.00  0.00    +0.000 N 
ATOM      9  C   UNL     1       5.270   4.582  19.305  0.00  0.00    +0.000 C 
ATOM     10  O   UNL     1       6.253   4.608  20.044  0.00  0.00    +0.000 OA
ATOM     11  C   UNL     1       6.422   5.805  17.423  0.00  0.00    +0.000 C 
ATOM     12  C   UNL     1       7.767   5.765  18.161  0.00  0.00    +0.000 C 
ENDROOT
BRANCH   9  13
ATOM     13  C   UNL     1       4.021   4.075  19.944  0.00  0.00    +0.000 A 
ATOM     14  C   UNL     1       2.993   4.994  20.224  0.00  0.00    +0.000 A 
ATOM     15  C   UNL     1       1.803   4.561  20.811  0.00  0.00    +0.000 A 
ATOM     16  C   UNL     1       1.648   3.218  21.131  0.00  0.00    +0.000 A 
ATOM     17  F   UNL     1       0.525   2.805  21.730  0.00  0.00    +0.000 F 
ATOM     18  C   UNL     1       2.636   2.291  20.821  0.00  0.00    +0.000 A 
ATOM     19  C   UNL     1       3.800   2.712  20.184  0.00  0.00    +0.000 A 
ENDBRANCH   9  13
BRANCH   1  23
ATOM     20  C   UNL     1       4.558   2.960  11.335  0.00  0.00    +0.000 A 
ATOM     21  N   UNL     1       5.579   2.137  11.089  0.00  0.00    +0.000 NA
ATOM     22  S   UNL     1       6.788   2.545  12.164  0.00  0.00    +0.000 S 
ATOM     23  C   UNL     1       5.870   3.805  12.885  0.00  0.00    +0.000 A 
ATOM     24  N   UNL     1       4.677   3.930  12.333  0.00  0.00    +0.000 NA
BRANCH  20  26
ATOM     25  C   UNL     1       3.013   4.062   9.711  0.00  0.00    +0.000 C 
ATOM     26  C   UNL     1       3.294   2.828  10.555  0.00  0.00    +0.000 C 
ENDBRANCH  20  26
ENDBRANCH   1  23
TORSDOF 3
ENDMDL
MODEL 2
REMARK VINA RESULT:      -8.2      1.238      1.846
REMARK  Name = 
REMARK  5 active torsions:
REMARK  status: ('A' for Active; 'I' for Inactive)
REMARK    1  A    between atoms: C_1  and  C_2
REMARK    2  A    between atoms: C_2  and  C_3
REMARK    3  A    between atoms: C_6  and  C_7
REMARK    4  A    between atoms: C_15  and  C_17
REMARK    5  A    between atoms: C_24  and  C_25
REMARK                            x       y       z     vdW  Elec       q    Type
REMARK                         _______ _______ _______ _____ _____    ______ ____
ROOT
ATOM      1  C   UNL     1       6.461   4.459  13.965  0.00  0.00    +0.000 A 
ATOM      2  N   UNL     1       7.535   5.227  13.909  0.00  0.00    +0.000 NA
ATOM      3  N   UNL     1       7.659   5.887  15.111  0.00  0.00    +0.000 NA
ATOM      4  C   UNL     1       6.666   5.507  15.889  0.00  0.00    +0.000 A 
ATOM      5  N   UNL     1       5.862   4.660  15.175  0.00  0.00    +0.000 N 
ATOM      6  C   UNL     1       4.637   4.102  15.681  0.00  0.00    +0.000 C 
ATOM      7  C   UNL     1       4.189   4.816  16.950  0.00  0.00    +0.000 C 
ATOM      8  N   UNL     1       5.297   5.083  17.884  0.00  0.00    +0.000 N 
ATOM      9  C   UNL     1       5.251   4.798  19.260  0.00  0.00    +0.000 C 
ATOM     10  O   UNL     1       6.215   4.923  20.014  0.00  0.00    +0.000 OA
ATOM     11  C   UNL     1       6.391   5.928  17.314  0.00  0.00    +0.000 C 
ATOM     12  C   UNL     1       7.718   6.005  18.078  0.00  0.00    +0.000 C 
ENDROOT
BRANCH   9  13
ATOM     13  C   UNL     1       4.011   4.284  19.911  0.00  0.00    +0.000 A 
ATOM     14  C   UNL     1       3.962   2.928  20.279  0.00  0.00    +0.000 A 
ATOM     15  C   UNL     1       2.826   2.407  20.900  0.00  0.00    +0.000 A 
ATOM     16  C   UNL     1       1.737   3.236  21.138  0.00  0.00    +0.000 A 
ATOM     17  F   UNL     1       0.631   2.733  21.697  0.00  0.00    +0.000 F 
ATOM     18  C   UNL     1       1.786   4.589  20.820  0.00  0.00    +0.000 A 
ATOM     19  C   UNL     1       2.940   5.121  20.252  0.00  0.00    +0.000 A 
ENDBRANCH   9  13
BRANCH   1  23
ATOM     20  C   UNL     1       5.980   1.941  11.456  0.00  0.00    +0.000 A 
ATOM     21  N   UNL     1       4.811   2.469  11.089  0.00  0.00    +0.000 NA
ATOM     22  S   UNL     1       4.562   3.797  12.068  0.00  0.00    +0.000 S 
ATOM     23  C   UNL     1       6.031   3.573  12.929  0.00  0.00    +0.000 A 
ATOM     24  N   UNL     1       6.704   2.521  12.500  0.00  0.00    +0.000 NA
BRANCH  20  26
ATOM     25  C   UNL     1       6.067  -0.555  11.391  0.00  0.00    +0.000 C 
ATOM     26  C   UNL     1       6.511   0.746  10.740  0.00  0.00    +0.000 C 
ENDBRANCH  20  26
ENDBRANCH   1  23
TORSDOF 3
ENDMDL
MODEL 3
REMARK VINA RESULT:      -7.0      9.483     11.857
REMARK  Name = 
REMARK  5 active torsions:
REMARK  status: ('A' for Active; 'I' for Inactive)
REMARK    1  A    between atoms: C_1  and  C_2
REMARK    2  A    between atoms: C_2  and  C_3
REMARK    3  A    between atoms: C_6  and  C_7
REMARK    4  A    between atoms: C_15  and  C_17
REMARK    5  A    between atoms: C_24  and  C_25
REMARK                            x       y       z     vdW  Elec       q    Type
REMARK                         _______ _______ _______ _____ _____    ______ ____
ROOT
ATOM      1  C   UNL     1       0.393  10.171  21.018  0.00  0.00    +0.000 A 
ATOM      2  N   UNL     1       0.703  10.298  22.296  0.00  0.00    +0.000 NA
ATOM      3  N   UNL     1      -0.217  11.136  22.885  0.00  0.00    +0.000 NA
ATOM      4  C   UNL     1      -1.082  11.503  21.961  0.00  0.00    +0.000 A 
ATOM      5  N   UNL     1      -0.689  10.964  20.767  0.00  0.00    +0.000 N 
ATOM      6  C   UNL     1      -1.358  11.212  19.518  0.00  0.00    +0.000 C 
ATOM      7  C   UNL     1      -2.327  12.382  19.634  0.00  0.00    +0.000 C 
ATOM      8  N   UNL     1      -3.116  12.356  20.879  0.00  0.00    +0.000 N 
ATOM      9  C   UNL     1      -4.509  12.533  20.930  0.00  0.00    +0.000 C 
ATOM     10  O   UNL     1      -5.175  12.404  21.956  0.00  0.00    +0.000 OA
ATOM     11  C   UNL     1      -2.294  12.392  22.127  0.00  0.00    +0.000 C 
ATOM     12  C   UNL     1      -2.983  12.056  23.456  0.00  0.00    +0.000 C 
ENDROOT
BRANCH   9  13
ATOM     13  C   UNL     1      -5.300  12.866  19.709  0.00  0.00    +0.000 A 
ATOM     14  C   UNL     1      -5.434  11.885  18.711  0.00  0.00    +0.000 A 
ATOM     15  C   UNL     1      -6.174  12.150  17.558  0.00  0.00    +0.000 A 
ATOM     16  C   UNL     1      -6.766  13.397  17.398  0.00  0.00    +0.000 A 
ATOM     17  F   UNL     1      -7.443  13.669  16.276  0.00  0.00    +0.000 F 
ATOM     18  C   UNL     1      -6.680  14.362  18.394  0.00  0.00    +0.000 A 
ATOM     19  C   UNL     1      -5.989  14.078  19.569  0.00  0.00    +0.000 A 
ENDBRANCH   9  13
BRANCH   1  23
ATOM     20  C   UNL     1       2.198   7.656  19.205  0.00  0.00    +0.000 A 
ATOM     21  N   UNL     1       2.210   8.402  18.099  0.00  0.00    +0.000 NA
ATOM     22  S   UNL     1       1.404   9.815  18.470  0.00  0.00    +0.000 S 
ATOM     23  C   UNL     1       1.080   9.333  20.086  0.00  0.00    +0.000 A 
ATOM     24  N   UNL     1       1.561   8.132  20.354  0.00  0.00    +0.000 NA
BRANCH  20  26
ATOM     25  C   UNL     1       2.168   5.329  20.115  0.00  0.00    +0.000 C 
ATOM     26  C   UNL     1       2.876   6.328  19.212  0.00  0.00    +0.000 C 
ENDBRANCH  20  26
ENDBRANCH   1  23
TORSDOF 3
ENDMDL
MODEL 4
REMARK VINA RESULT:      -7.0      9.556     11.806
REMARK  Name = 
REMARK  5 active torsions:
REMARK  status: ('A' for Active; 'I' for Inactive)
REMARK    1  A    between atoms: C_1  and  C_2
REMARK    2  A    between atoms: C_2  and  C_3
REMARK    3  A    between atoms: C_6  and  C_7
REMARK    4  A    between atoms: C_15  and  C_17
REMARK    5  A    between atoms: C_24  and  C_25
REMARK                            x       y       z     vdW  Elec       q    Type
REMARK                         _______ _______ _______ _____ _____    ______ ____
ROOT
ATOM      1  C   UNL     1       0.365  10.205  20.968  0.00  0.00    +0.000 A 
ATOM      2  N   UNL     1       0.674  10.334  22.246  0.00  0.00    +0.000 NA
ATOM      3  N   UNL     1      -0.247  11.172  22.834  0.00  0.00    +0.000 NA
ATOM      4  C   UNL     1      -1.111  11.539  21.909  0.00  0.00    +0.000 A 
ATOM      5  N   UNL     1      -0.717  10.999  20.715  0.00  0.00    +0.000 N 
ATOM      6  C   UNL     1      -1.384  11.246  19.466  0.00  0.00    +0.000 C 
ATOM      7  C   UNL     1      -2.354  12.417  19.580  0.00  0.00    +0.000 C 
ATOM      8  N   UNL     1      -3.144  12.391  20.824  0.00  0.00    +0.000 N 
ATOM      9  C   UNL     1      -4.537  12.568  20.873  0.00  0.00    +0.000 C 
ATOM     10  O   UNL     1      -5.203  12.441  21.899  0.00  0.00    +0.000 OA
ATOM     11  C   UNL     1      -2.322  12.428  22.073  0.00  0.00    +0.000 C 
ATOM     12  C   UNL     1      -3.013  12.093  23.401  0.00  0.00    +0.000 C 
ENDROOT
BRANCH   9  13
ATOM     13  C   UNL     1      -5.327  12.901  19.651  0.00  0.00    +0.000 A 
ATOM     14  C   UNL     1      -5.959  14.155  19.585  0.00  0.00    +0.000 A 
ATOM     15  C   UNL     1      -6.698  14.512  18.457  0.00  0.00    +0.000 A 
ATOM     16  C   UNL     1      -6.818  13.611  17.405  0.00  0.00    +0.000 A 
ATOM     17  F   UNL     1      -7.558  13.933  16.338  0.00  0.00    +0.000 F 
ATOM     18  C   UNL     1      -6.163  12.385  17.437  0.00  0.00    +0.000 A 
ATOM     19  C   UNL     1      -5.379  12.052  18.538  0.00  0.00    +0.000 A 
ENDBRANCH   9  13
BRANCH   1  23
ATOM     20  C   UNL     1       2.169   7.688  19.158  0.00  0.00    +0.000 A 
ATOM     21  N   UNL     1       2.187   8.436  18.053  0.00  0.00    +0.000 NA
ATOM     22  S   UNL     1       1.383   9.851  18.423  0.00  0.00    +0.000 S 
ATOM     23  C   UNL     1       1.053   9.367  20.037  0.00  0.00    +0.000 A 
ATOM     24  N   UNL     1       1.529   8.164  20.305  0.00  0.00    +0.000 NA
BRANCH  20  26
ATOM     25  C   UNL     1       2.324   5.448  18.063  0.00  0.00    +0.000 C 
ATOM     26  C   UNL     1       2.843   6.358  19.165  0.00  0.00    +0.000 C 
ENDBRANCH  20  26
ENDBRANCH   1  23
TORSDOF 3
ENDMDL
MODEL 5
REMARK VINA RESULT:      -6.8      5.794      9.004
REMARK  Name = 
REMARK  5 active torsions:
REMARK  status: ('A' for Active; 'I' for Inactive)
REMARK    1  A    between atoms: C_1  and  C_2
REMARK    2  A    between atoms: C_2  and  C_3
REMARK    3  A    between atoms: C_6  and  C_7
REMARK    4  A    between atoms: C_15  and  C_17
REMARK    5  A    between atoms: C_24  and  C_25
REMARK                            x       y       z     vdW  Elec       q    Type
REMARK                         _______ _______ _______ _____ _____    ______ ____
ROOT
ATOM      1  C   UNL     1       0.975   9.134  20.468  0.00  0.00    +0.000 A 
ATOM      2  N   UNL     1       0.320   8.547  21.454  0.00  0.00    +0.000 NA
ATOM      3  N   UNL     1       0.586   7.198  21.411  0.00  0.00    +0.000 NA
ATOM      4  C   UNL     1       1.408   6.978  20.405  0.00  0.00    +0.000 A 
ATOM      5  N   UNL     1       1.620   8.164  19.756  0.00  0.00    +0.000 N 
ATOM      6  C   UNL     1       2.410   8.293  18.562  0.00  0.00    +0.000 C 
ATOM      7  C   UNL     1       2.696   6.932  17.939  0.00  0.00    +0.000 C 
ATOM      8  N   UNL     1       3.060   5.908  18.934  0.00  0.00    +0.000 N 
ATOM      9  C   UNL     1       4.165   5.048  18.809  0.00  0.00    +0.000 C 
ATOM     10  O   UNL     1       4.525   4.270  19.690  0.00  0.00    +0.000 OA
ATOM     11  C   UNL     1       2.012   5.661  19.973  0.00  0.00    +0.000 C 
ATOM     12  C   UNL     1       2.406   4.858  21.219  0.00  0.00    +0.000 C 
ENDROOT
BRANCH   9  13
ATOM     13  C   UNL     1       5.015   5.042  17.583  0.00  0.00    +0.000 A 
ATOM     14  C   UNL     1       6.200   5.799  17.588  0.00  0.00    +0.000 A 
ATOM     15  C   UNL     1       7.031   5.813  16.466  0.00  0.00    +0.000 A 
ATOM     16  C   UNL     1       6.670   5.085  15.339  0.00  0.00    +0.000 A 
ATOM     17  F   UNL     1       7.443   5.126  14.248  0.00  0.00    +0.000 F 
ATOM     18  C   UNL     1       5.525   4.297  15.334  0.00  0.00    +0.000 A 
ATOM     19  C   UNL     1       4.725   4.238  16.473  0.00  0.00    +0.000 A 
ENDBRANCH   9  13
BRANCH   1  23
ATOM     20  C   UNL     1       1.262  12.710  20.477  0.00  0.00    +0.000 A 
ATOM     21  N   UNL     1       0.726  12.798  19.258  0.00  0.00    +0.000 NA
ATOM     22  S   UNL     1       0.393  11.237  18.772  0.00  0.00    +0.000 S 
ATOM     23  C   UNL     1       0.998  10.541  20.220  0.00  0.00    +0.000 A 
ATOM     24  N   UNL     1       1.449  11.455  21.061  0.00  0.00    +0.000 NA
BRANCH  20  26
ATOM     25  C   UNL     1       3.013  14.462  20.795  0.00  0.00    +0.000 C 
ATOM     26  C   UNL     1       1.643  13.950  21.211  0.00  0.00    +0.000 C 
ENDBRANCH  20  26
ENDBRANCH   1  23
TORSDOF 3
ENDMDL
MODEL 6
REMARK VINA RESULT:      -6.8      5.823      8.684
REMARK  Name = 
REMARK  5 active torsions:
REMARK  status: ('A' for Active; 'I' for Inactive)
REMARK    1  A    between atoms: C_1  and  C_2
REMARK    2  A    between atoms: C_2  and  C_3
REMARK    3  A    between atoms: C_6  and  C_7
REMARK    4  A    between atoms: C_15  and  C_17
REMARK    5  A    between atoms: C_24  and  C_25
REMARK                            x       y       z     vdW  Elec       q    Type
REMARK                         _______ _______ _______ _____ _____    ______ ____
ROOT
ATOM      1  C   UNL     1       1.062   9.118  20.298  0.00  0.00    +0.000 A 
ATOM      2  N   UNL     1       0.417   8.551  21.302  0.00  0.00    +0.000 NA
ATOM      3  N   UNL     1       0.686   7.201  21.285  0.00  0.00    +0.000 NA
ATOM      4  C   UNL     1       1.499   6.961  20.276  0.00  0.00    +0.000 A 
ATOM      5  N   UNL     1       1.702   8.134  19.601  0.00  0.00    +0.000 N 
ATOM      6  C   UNL     1       2.482   8.239  18.397  0.00  0.00    +0.000 C 
ATOM      7  C   UNL     1       2.764   6.866  17.800  0.00  0.00    +0.000 C 
ATOM      8  N   UNL     1       3.139   5.864  18.814  0.00  0.00    +0.000 N 
ATOM      9  C   UNL     1       4.245   5.004  18.697  0.00  0.00    +0.000 C 
ATOM     10  O   UNL     1       4.615   4.245  19.591  0.00  0.00    +0.000 OA
ATOM     11  C   UNL     1       2.102   5.637  19.867  0.00  0.00    +0.000 C 
ATOM     12  C   UNL     1       2.508   4.862  21.126  0.00  0.00    +0.000 C 
ENDROOT
BRANCH   9  13
ATOM     13  C   UNL     1       5.084   4.973  17.463  0.00  0.00    +0.000 A 
ATOM     14  C   UNL     1       6.272   5.726  17.445  0.00  0.00    +0.000 A 
ATOM     15  C   UNL     1       7.093   5.717  16.316  0.00  0.00    +0.000 A 
ATOM     16  C   UNL     1       6.719   4.970  15.205  0.00  0.00    +0.000 A 
ATOM     17  F   UNL     1       7.482   4.990  14.106  0.00  0.00    +0.000 F 
ATOM     18  C   UNL     1       5.571   4.187  15.224  0.00  0.00    +0.000 A 
ATOM     19  C   UNL     1       4.781   4.151  16.370  0.00  0.00    +0.000 A 
ENDBRANCH   9  13
BRANCH   1  23
ATOM     20  C   UNL     1       1.473  12.461  19.063  0.00  0.00    +0.000 A 
ATOM     21  N   UNL     1       0.850  12.975  20.125  0.00  0.00    +0.000 NA
ATOM     22  S   UNL     1       0.415  11.685  21.092  0.00  0.00    +0.000 S 
ATOM     23  C   UNL     1       1.080  10.519  20.020  0.00  0.00    +0.000 A 
ATOM     24  N   UNL     1       1.618  11.076  18.950  0.00  0.00    +0.000 NA
BRANCH  20  26
ATOM     25  C   UNL     1       3.238  14.138  18.504  0.00  0.00    +0.000 C 
ATOM     26  C   UNL     1       2.021  13.367  18.014  0.00  0.00    +0.000 C 
ENDBRANCH  20  26
ENDBRANCH   1  23
TORSDOF 3
ENDMDL
MODEL 7
REMARK VINA RESULT:      -6.8      5.843      9.106
REMARK  Name = 
REMARK  5 active torsions:
REMARK  status: ('A' for Active; 'I' for Inactive)
REMARK    1  A    between atoms: C_1  and  C_2
REMARK    2  A    between atoms: C_2  and  C_3
REMARK    3  A    between atoms: C_6  and  C_7
REMARK    4  A    between atoms: C_15  and  C_17
REMARK    5  A    between atoms: C_24  and  C_25
REMARK                            x       y       z     vdW  Elec       q    Type
REMARK                         _______ _______ _______ _____ _____    ______ ____
ROOT
ATOM      1  C   UNL     1       0.956   9.134  20.462  0.00  0.00    +0.000 A 
ATOM      2  N   UNL     1       0.296   8.535  21.438  0.00  0.00    +0.000 NA
ATOM      3  N   UNL     1       0.578   7.188  21.389  0.00  0.00    +0.000 NA
ATOM      4  C   UNL     1       1.413   6.983  20.391  0.00  0.00    +0.000 A 
ATOM      5  N   UNL     1       1.619   8.175  19.752  0.00  0.00    +0.000 N 
ATOM      6  C   UNL     1       2.420   8.319  18.566  0.00  0.00    +0.000 C 
ATOM      7  C   UNL     1       2.727   6.965  17.939  0.00  0.00    +0.000 C 
ATOM      8  N   UNL     1       3.092   5.939  18.932  0.00  0.00    +0.000 N 
ATOM      9  C   UNL     1       4.208   5.093  18.814  0.00  0.00    +0.000 C 
ATOM     10  O   UNL     1       4.567   4.313  19.695  0.00  0.00    +0.000 OA
ATOM     11  C   UNL     1       2.036   5.675  19.958  0.00  0.00    +0.000 C 
ATOM     12  C   UNL     1       2.425   4.869  21.204  0.00  0.00    +0.000 C 
ENDROOT
BRANCH   9  13
ATOM     13  C   UNL     1       5.071   5.102  17.597  0.00  0.00    +0.000 A 
ATOM     14  C   UNL     1       4.677   4.327  16.492  0.00  0.00    +0.000 A 
ATOM     15  C   UNL     1       5.449   4.316  15.330  0.00  0.00    +0.000 A 
ATOM     16  C   UNL     1       6.619   5.065  15.278  0.00  0.00    +0.000 A 
ATOM     17  F   UNL     1       7.383   5.026  14.181  0.00  0.00    +0.000 F 
ATOM     18  C   UNL     1       6.999   5.870  16.346  0.00  0.00    +0.000 A 
ATOM     19  C   UNL     1       6.199   5.926  17.484  0.00  0.00    +0.000 A 
ENDBRANCH   9  13
BRANCH   1  23
ATOM     20  C   UNL     1       1.262  12.708  20.470  0.00  0.00    +0.000 A 
ATOM     21  N   UNL     1       0.628  12.807  19.300  0.00  0.00    +0.000 NA
ATOM     22  S   UNL     1       0.248  11.251  18.832  0.00  0.00    +0.000 S 
ATOM     23  C   UNL     1       0.966  10.542  20.222  0.00  0.00    +0.000 A 
ATOM     24  N   UNL     1       1.490  11.448  21.029  0.00  0.00    +0.000 NA
BRANCH  20  26
ATOM     25  C   UNL     1       0.560  14.642  21.887  0.00  0.00    +0.000 C 
ATOM     26  C   UNL     1       1.709  13.941  21.179  0.00  0.00    +0.000 C 
ENDBRANCH  20  26
ENDBRANCH   1  23
TORSDOF 3
ENDMDL
MODEL 8
REMARK VINA RESULT:      -6.7     10.073     12.360
REMARK  Name = 
REMARK  5 active torsions:
REMARK  status: ('A' for Active; 'I' for Inactive)
REMARK    1  A    between atoms: C_1  and  C_2
REMARK    2  A    between atoms: C_2  and  C_3
REMARK    3  A    between atoms: C_6  and  C_7
REMARK    4  A    between atoms: C_15  and  C_17
REMARK    5  A    between atoms: C_24  and  C_25
REMARK                            x       y       z     vdW  Elec       q    Type
REMARK                         _______ _______ _______ _____ _____    ______ ____
ROOT
ATOM      1  C   UNL     1      -0.110  10.531  21.602  0.00  0.00    +0.000 A 
ATOM      2  N   UNL     1       0.066  10.724  22.897  0.00  0.00    +0.000 NA
ATOM      3  N   UNL     1      -0.904  11.594  23.343  0.00  0.00    +0.000 NA
ATOM      4  C   UNL     1      -1.664  11.915  22.316  0.00  0.00    +0.000 A 
ATOM      5  N   UNL     1      -1.153  11.314  21.198  0.00  0.00    +0.000 N 
ATOM      6  C   UNL     1      -1.686  11.499  19.876  0.00  0.00    +0.000 C 
ATOM      7  C   UNL     1      -2.653  12.677  19.829  0.00  0.00    +0.000 C 
ATOM      8  N   UNL     1      -3.567  12.717  20.985  0.00  0.00    +0.000 N 
ATOM      9  C   UNL     1      -4.956  12.901  20.880  0.00  0.00    +0.000 C 
ATOM     10  O   UNL     1      -5.726  12.828  21.837  0.00  0.00    +0.000 OA
ATOM     11  C   UNL     1      -2.879  12.815  22.309  0.00  0.00    +0.000 C 
ATOM     12  C   UNL     1      -3.706  12.551  23.574  0.00  0.00    +0.000 C 
ENDROOT
BRANCH   9  13
ATOM     13  C   UNL     1      -5.613  13.173  19.568  0.00  0.00    +0.000 A 
ATOM     14  C   UNL     1      -6.163  14.448  19.348  0.00  0.00    +0.000 A 
ATOM     15  C   UNL     1      -6.776  14.749  18.132  0.00  0.00    +0.000 A 
ATOM     16  C   UNL     1      -6.853  13.774  17.145  0.00  0.00    +0.000 A 
ATOM     17  F   UNL     1      -7.476  14.045  15.992  0.00  0.00    +0.000 F 
ATOM     18  C   UNL     1      -6.277  12.523  17.331  0.00  0.00    +0.000 A 
ATOM     19  C   UNL     1      -5.614  12.240  18.523  0.00  0.00    +0.000 A 
ENDBRANCH   9  13
BRANCH   1  23
ATOM     20  C   UNL     1       1.746   8.770  19.088  0.00  0.00    +0.000 A 
ATOM     21  N   UNL     1       1.917   7.718  19.890  0.00  0.00    +0.000 NA
ATOM     22  S   UNL     1       1.161   8.092  21.331  0.00  0.00    +0.000 S 
ATOM     23  C   UNL     1       0.663   9.644  20.791  0.00  0.00    +0.000 A 
ATOM     24  N   UNL     1       1.055   9.891  19.554  0.00  0.00    +0.000 NA
BRANCH  20  26
ATOM     25  C   UNL     1       3.314   7.636  17.508  0.00  0.00    +0.000 C 
ATOM     26  C   UNL     1       2.282   8.737  17.697  0.00  0.00    +0.000 C 
ENDBRANCH  20  26
ENDBRANCH   1  23
TORSDOF 3
ENDMDL
MODEL 9
REMARK VINA RESULT:      -6.5      7.923     10.118
REMARK  Name = 
REMARK  5 active torsions:
REMARK  status: ('A' for Active; 'I' for Inactive)
REMARK    1  A    between atoms: C_1  and  C_2
REMARK    2  A    between atoms: C_2  and  C_3
REMARK    3  A    between atoms: C_6  and  C_7
REMARK    4  A    between atoms: C_15  and  C_17
REMARK    5  A    between atoms: C_24  and  C_25
REMARK                            x       y       z     vdW  Elec       q    Type
REMARK                         _______ _______ _______ _____ _____    ______ ____
ROOT
ATOM      1  C   UNL     1       1.041  13.132  19.887  0.00  0.00    +0.000 A 
ATOM      2  N   UNL     1       0.057  13.231  20.763  0.00  0.00    +0.000 NA
ATOM      3  N   UNL     1      -0.433  11.969  21.010  0.00  0.00    +0.000 NA
ATOM      4  C   UNL     1       0.263  11.114  20.289  0.00  0.00    +0.000 A 
ATOM      5  N   UNL     1       1.153  11.820  19.526  0.00  0.00    +0.000 N 
ATOM      6  C   UNL     1       2.032  11.219  18.560  0.00  0.00    +0.000 C 
ATOM      7  C   UNL     1       1.624   9.782  18.261  0.00  0.00    +0.000 C 
ATOM      8  N   UNL     1       1.260   9.023  19.470  0.00  0.00    +0.000 N 
ATOM      9  C   UNL     1       1.743   7.736  19.766  0.00  0.00    +0.000 C 
ATOM     10  O   UNL     1       1.520   7.152  20.825  0.00  0.00    +0.000 OA
ATOM     11  C   UNL     1       0.122   9.609  20.243  0.00  0.00    +0.000 C 
ATOM     12  C   UNL     1      -0.132   9.087  21.664  0.00  0.00    +0.000 C 
ENDROOT
BRANCH   9  13
ATOM     13  C   UNL     1       2.604   6.985  18.806  0.00  0.00    +0.000 A 
ATOM     14  C   UNL     1       2.425   5.595  18.695  0.00  0.00    +0.000 A 
ATOM     15  C   UNL     1       3.202   4.855  17.802  0.00  0.00    +0.000 A 
ATOM     16  C   UNL     1       4.164   5.501  17.035  0.00  0.00    +0.000 A 
ATOM     17  F   UNL     1       4.938   4.790  16.207  0.00  0.00    +0.000 F 
ATOM     18  C   UNL     1       4.323   6.880  17.102  0.00  0.00    +0.000 A 
ATOM     19  C   UNL     1       3.510   7.627  17.951  0.00  0.00    +0.000 A 
ENDBRANCH   9  13
BRANCH   1  23
ATOM     20  C   UNL     1       2.534  15.983  18.303  0.00  0.00    +0.000 A 
ATOM     21  N   UNL     1       3.666  15.828  18.993  0.00  0.00    +0.000 NA
ATOM     22  S   UNL     1       3.443  14.498  19.977  0.00  0.00    +0.000 S 
ATOM     23  C   UNL     1       1.841  14.222  19.423  0.00  0.00    +0.000 A 
ATOM     24  N   UNL     1       1.467  15.109  18.518  0.00  0.00    +0.000 NA
BRANCH  20  26
ATOM     25  C   UNL     1       1.156  17.899  17.484  0.00  0.00    +0.000 C 
ATOM     26  C   UNL     1       2.424  17.079  17.298  0.00  0.00    +0.000 C 
ENDBRANCH  20  26
ENDBRANCH   1  23
TORSDOF 3
ENDMDL
