MODEL 1
REMARK VINA RESULT:      -7.4      0.000      0.000
REMARK  Name = 
REMARK  7 active torsions:
REMARK  status: ('A' for Active; 'I' for Inactive)
REMARK    1  A    between atoms: C_1  and  C_2
REMARK    2  A    between atoms: N_5  and  C_6
REMARK    3  A    between atoms: C_6  and  C_7
REMARK    4  A    between atoms: C_7  and  N_8
REMARK    5  A    between atoms: C_12  and  C_13
REMARK    6  A    between atoms: C_13  and  C_14
REMARK    7  A    between atoms: C_13  and  C_15
REMARK                            x       y       z     vdW  Elec       q    Type
REMARK                         _______ _______ _______ _____ _____    ______ ____
ROOT
ATOM      1  C   UNL     1       5.203   4.108  18.115  0.00  0.00    +0.000 C 
ENDROOT
BRANCH   1   2
ATOM      2  N   UNL     1       6.013   4.588  17.003  0.00  0.00    +0.000 N 
ATOM      3  C   UNL     1       6.051   3.962  15.780  0.00  0.00    +0.000 A 
ATOM      4  C   UNL     1       6.937   4.685  15.025  0.00  0.00    +0.000 A 
ATOM      5  N   UNL     1       7.436   5.731  15.750  0.00  0.00    +0.000 NA
ATOM      6  C   UNL     1       6.860   5.677  16.939  0.00  0.00    +0.000 A 
BRANCH   6   7
ATOM      7  C   UNL     1       7.131   6.660  18.048  0.00  0.00    +0.000 C 
ATOM      8  C   UNL     1       8.047   6.036  19.101  0.00  0.00    +0.000 C 
ATOM      9  C   UNL     1       7.786   7.933  17.493  0.00  0.00    +0.000 C 
ENDBRANCH   6   7
ENDBRANCH   1   2
BRANCH   1  10
ATOM     10  C   UNL     1       3.818   3.640  17.634  0.00  0.00    +0.000 C 
BRANCH  10  15
ATOM     11  C   UNL     1       1.322   2.745  21.554  0.00  0.00    +0.000 C 
ATOM     12  C   UNL     1       1.391   3.745  20.400  0.00  0.00    +0.000 C 
ATOM     13  C   UNL     1       1.116   3.050  19.061  0.00  0.00    +0.000 C 
ATOM     14  C   UNL     1       1.377   3.982  17.871  0.00  0.00    +0.000 C 
ATOM     15  N   UNL     1       2.714   4.597  17.866  0.00  0.00    +0.000 NA
ATOM     16  C   UNL     1       2.909   5.331  19.132  0.00  0.00    +0.000 C 
ATOM     17  C   UNL     1       2.746   4.462  20.383  0.00  0.00    +0.000 C 
ENDBRANCH  10  15
ENDBRANCH   1  10
TORSDOF 4
ENDMDL
MODEL 2
REMARK VINA RESULT:      -7.3      0.901      1.020
REMARK  Name = 
REMARK  7 active torsions:
REMARK  status: ('A' for Active; 'I' for Inactive)
REMARK    1  A    between atoms: C_1  and  C_2
REMARK    2  A    between atoms: N_5  and  C_6
REMARK    3  A    between atoms: C_6  and  C_7
REMARK    4  A    between atoms: C_7  and  N_8
REMARK    5  A    between atoms: C_12  and  C_13
REMARK    6  A    between atoms: C_13  and  C_14
REMARK    7  A    between atoms: C_13  and  C_15
REMARK                            x       y       z     vdW  Elec       q    Type
REMARK                         _______ _______ _______ _____ _____    ______ ____
ROOT
ATOM      1  C   UNL     1       4.365   5.006  17.285  0.00  0.00    +0.000 C 
ENDROOT
BRANCH   1   2
ATOM      2  N   UNL     1       5.553   5.119  16.447  0.00  0.00    +0.000 N 
ATOM      3  C   UNL     1       5.675   4.486  15.233  0.00  0.00    +0.000 A 
ATOM      4  C   UNL     1       6.925   4.808  14.776  0.00  0.00    +0.000 A 
ATOM      5  N   UNL     1       7.565   5.618  15.672  0.00  0.00    +0.000 NA
ATOM      6  C   UNL     1       6.724   5.817  16.672  0.00  0.00    +0.000 A 
BRANCH   6   7
ATOM      7  C   UNL     1       7.037   6.664  17.878  0.00  0.00    +0.000 C 
ATOM      8  C   UNL     1       7.848   5.862  18.896  0.00  0.00    +0.000 C 
ATOM      9  C   UNL     1       7.829   7.914  17.467  0.00  0.00    +0.000 C 
ENDBRANCH   6   7
ENDBRANCH   1   2
BRANCH   1  10
ATOM     10  C   UNL     1       3.867   3.553  17.352  0.00  0.00    +0.000 C 
BRANCH  10  15
ATOM     11  C   UNL     1       1.880   3.230  21.636  0.00  0.00    +0.000 C 
ATOM     12  C   UNL     1       1.500   3.241  20.156  0.00  0.00    +0.000 C 
ATOM     13  C   UNL     1       2.112   2.037  19.428  0.00  0.00    +0.000 C 
ATOM     14  C   UNL     1       1.918   2.130  17.910  0.00  0.00    +0.000 C 
ATOM     15  N   UNL     1       2.397   3.388  17.314  0.00  0.00    +0.000 NA
ATOM     16  C   UNL     1       1.721   4.520  17.977  0.00  0.00    +0.000 C 
ATOM     17  C   UNL     1       1.924   4.559  19.495  0.00  0.00    +0.000 C 
ENDBRANCH  10  15
ENDBRANCH   1  10
TORSDOF 4
ENDMDL
MODEL 3
REMARK VINA RESULT:      -6.9      0.690      1.098
REMARK  Name = 
REMARK  7 active torsions:
REMARK  status: ('A' for Active; 'I' for Inactive)
REMARK    1  A    between atoms: C_1  and  C_2
REMARK    2  A    between atoms: N_5  and  C_6
REMARK    3  A    between atoms: C_6  and  C_7
REMARK    4  A    between atoms: C_7  and  N_8
REMARK    5  A    between atoms: C_12  and  C_13
REMARK    6  A    between atoms: C_13  and  C_14
REMARK    7  A    between atoms: C_13  and  C_15
REMARK                            x       y       z     vdW  Elec       q    Type
REMARK                         _______ _______ _______ _____ _____    ______ ____
ROOT
ATOM      1  C   UNL     1       4.843   5.540  17.965  0.00  0.00    +0.000 C 
ENDROOT
BRANCH   1   2
ATOM      2  N   UNL     1       5.722   5.371  16.815  0.00  0.00    +0.000 N 
ATOM      3  C   UNL     1       5.350   4.684  15.684  0.00  0.00    +0.000 A 
ATOM      4  C   UNL     1       6.441   4.718  14.858  0.00  0.00    +0.000 A 
ATOM      5  N   UNL     1       7.464   5.407  15.450  0.00  0.00    +0.000 NA
ATOM      6  C   UNL     1       7.016   5.814  16.625  0.00  0.00    +0.000 A 
BRANCH   6   7
ATOM      7  C   UNL     1       7.833   6.618  17.602  0.00  0.00    +0.000 C 
ATOM      8  C   UNL     1       7.357   8.070  17.625  0.00  0.00    +0.000 C 
ATOM      9  C   UNL     1       7.724   6.024  19.014  0.00  0.00    +0.000 C 
ENDBRANCH   6   7
ENDBRANCH   1   2
BRANCH   1  10
ATOM     10  C   UNL     1       3.735   4.473  17.982  0.00  0.00    +0.000 C 
BRANCH  10  15
ATOM     11  C   UNL     1       1.439   2.627  21.686  0.00  0.00    +0.000 C 
ATOM     12  C   UNL     1       1.241   3.640  20.559  0.00  0.00    +0.000 C 
ATOM     13  C   UNL     1       1.304   2.951  19.190  0.00  0.00    +0.000 C 
ATOM     14  C   UNL     1       1.312   3.966  18.041  0.00  0.00    +0.000 C 
ATOM     15  N   UNL     1       2.360   4.993  18.147  0.00  0.00    +0.000 NA
ATOM     16  C   UNL     1       2.213   5.696  19.438  0.00  0.00    +0.000 C 
ATOM     17  C   UNL     1       2.273   4.770  20.657  0.00  0.00    +0.000 C 
ENDBRANCH  10  15
ENDBRANCH   1  10
TORSDOF 4
ENDMDL
MODEL 4
REMARK VINA RESULT:      -6.8      1.117      1.736
REMARK  Name = 
REMARK  7 active torsions:
REMARK  status: ('A' for Active; 'I' for Inactive)
REMARK    1  A    between atoms: C_1  and  C_2
REMARK    2  A    between atoms: N_5  and  C_6
REMARK    3  A    between atoms: C_6  and  C_7
REMARK    4  A    between atoms: C_7  and  N_8
REMARK    5  A    between atoms: C_12  and  C_13
REMARK    6  A    between atoms: C_13  and  C_14
REMARK    7  A    between atoms: C_13  and  C_15
REMARK                            x       y       z     vdW  Elec       q    Type
REMARK                         _______ _______ _______ _____ _____    ______ ____
ROOT
ATOM      1  C   UNL     1       4.654   4.698  17.822  0.00  0.00    +0.000 C 
ENDROOT
BRANCH   1   2
ATOM      2  N   UNL     1       5.691   4.951  16.829  0.00  0.00    +0.000 N 
ATOM      3  C   UNL     1       5.738   4.308  15.615  0.00  0.00    +0.000 A 
ATOM      4  C   UNL     1       6.858   4.787  14.990  0.00  0.00    +0.000 A 
ATOM      5  N   UNL     1       7.491   5.703  15.783  0.00  0.00    +0.000 NA
ATOM      6  C   UNL     1       6.771   5.811  16.886  0.00  0.00    +0.000 A 
BRANCH   6   7
ATOM      7  C   UNL     1       7.120   6.726  18.031  0.00  0.00    +0.000 C 
ATOM      8  C   UNL     1       8.009   6.001  19.041  0.00  0.00    +0.000 C 
ATOM      9  C   UNL     1       7.846   7.978  17.518  0.00  0.00    +0.000 C 
ENDBRANCH   6   7
ENDBRANCH   1   2
BRANCH   1  10
ATOM     10  C   UNL     1       3.550   3.789  17.255  0.00  0.00    +0.000 C 
BRANCH  10  15
ATOM     11  C   UNL     1       1.207   3.224  21.328  0.00  0.00    +0.000 C 
ATOM     12  C   UNL     1       1.992   2.416  20.295  0.00  0.00    +0.000 C 
ATOM     13  C   UNL     1       3.451   2.886  20.231  0.00  0.00    +0.000 C 
ATOM     14  C   UNL     1       4.209   2.235  19.068  0.00  0.00    +0.000 C 
ATOM     15  N   UNL     1       3.560   2.397  17.757  0.00  0.00    +0.000 NA
ATOM     16  C   UNL     1       2.189   1.854  17.830  0.00  0.00    +0.000 C 
ATOM     17  C   UNL     1       1.324   2.500  18.917  0.00  0.00    +0.000 C 
ENDBRANCH  10  15
ENDBRANCH   1  10
TORSDOF 4
ENDMDL
MODEL 5
REMARK VINA RESULT:      -6.8      1.384      2.772
REMARK  Name = 
REMARK  7 active torsions:
REMARK  status: ('A' for Active; 'I' for Inactive)
REMARK    1  A    between atoms: C_1  and  C_2
REMARK    2  A    between atoms: N_5  and  C_6
REMARK    3  A    between atoms: C_6  and  C_7
REMARK    4  A    between atoms: C_7  and  N_8
REMARK    5  A    between atoms: C_12  and  C_13
REMARK    6  A    between atoms: C_13  and  C_14
REMARK    7  A    between atoms: C_13  and  C_15
REMARK                            x       y       z     vdW  Elec       q    Type
REMARK                         _______ _______ _______ _____ _____    ______ ____
ROOT
ATOM      1  C   UNL     1       4.511   6.181  17.257  0.00  0.00    +0.000 C 
ENDROOT
BRANCH   1   2
ATOM      2  N   UNL     1       5.818   5.536  17.271  0.00  0.00    +0.000 N 
ATOM      3  C   UNL     1       6.543   5.339  18.422  0.00  0.00    +0.000 A 
ATOM      4  C   UNL     1       7.709   4.742  18.024  0.00  0.00    +0.000 A 
ATOM      5  N   UNL     1       7.715   4.567  16.668  0.00  0.00    +0.000 NA
ATOM      6  C   UNL     1       6.561   5.033  16.221  0.00  0.00    +0.000 A 
BRANCH   6   7
ATOM      7  C   UNL     1       6.159   5.026  14.769  0.00  0.00    +0.000 C 
ATOM      8  C   UNL     1       7.396   5.075  13.873  0.00  0.00    +0.000 C 
ATOM      9  C   UNL     1       5.342   3.768  14.442  0.00  0.00    +0.000 C 
ENDBRANCH   6   7
ENDBRANCH   1   2
BRANCH   1  10
ATOM     10  C   UNL     1       3.524   5.460  18.189  0.00  0.00    +0.000 C 
BRANCH  10  15
ATOM     11  C   UNL     1       1.698   2.680  21.557  0.00  0.00    +0.000 C 
ATOM     12  C   UNL     1       1.922   2.713  20.046  0.00  0.00    +0.000 C 
ATOM     13  C   UNL     1       3.420   2.751  19.718  0.00  0.00    +0.000 C 
ATOM     14  C   UNL     1       3.671   2.988  18.224  0.00  0.00    +0.000 C 
ATOM     15  N   UNL     1       2.996   4.176  17.677  0.00  0.00    +0.000 NA
ATOM     16  C   UNL     1       1.546   4.062  17.932  0.00  0.00    +0.000 C 
ATOM     17  C   UNL     1       1.188   3.901  19.412  0.00  0.00    +0.000 C 
ENDBRANCH  10  15
ENDBRANCH   1  10
TORSDOF 4
ENDMDL
MODEL 6
REMARK VINA RESULT:      -6.7      1.641      5.827
REMARK  Name = 
REMARK  7 active torsions:
REMARK  status: ('A' for Active; 'I' for Inactive)
REMARK    1  A    between atoms: C_1  and  C_2
REMARK    2  A    between atoms: N_5  and  C_6
REMARK    3  A    between atoms: C_6  and  C_7
REMARK    4  A    between atoms: C_7  and  N_8
REMARK    5  A    between atoms: C_12  and  C_13
REMARK    6  A    between atoms: C_13  and  C_14
REMARK    7  A    between atoms: C_13  and  C_15
REMARK                            x       y       z     vdW  Elec       q    Type
REMARK                         _______ _______ _______ _____ _____    ______ ____
ROOT
ATOM      1  C   UNL     1       5.067   3.957  19.184  0.00  0.00    +0.000 C 
ENDROOT
BRANCH   1   2
ATOM      2  N   UNL     1       3.856   3.214  18.857  0.00  0.00    +0.000 N 
ATOM      3  C   UNL     1       3.712   2.495  17.695  0.00  0.00    +0.000 A 
ATOM      4  C   UNL     1       2.445   1.975  17.741  0.00  0.00    +0.000 A 
ATOM      5  N   UNL     1       1.817   2.353  18.895  0.00  0.00    +0.000 NA
ATOM      6  C   UNL     1       2.682   3.088  19.574  0.00  0.00    +0.000 A 
BRANCH   6   7
ATOM      7  C   UNL     1       2.389   3.704  20.917  0.00  0.00    +0.000 C 
ATOM      8  C   UNL     1       1.685   5.050  20.743  0.00  0.00    +0.000 C 
ATOM      9  C   UNL     1       1.504   2.771  21.756  0.00  0.00    +0.000 C 
ENDBRANCH   6   7
ENDBRANCH   1   2
BRANCH   1  10
ATOM     10  C   UNL     1       4.965   5.420  18.720  0.00  0.00    +0.000 C 
BRANCH  10  15
ATOM     11  C   UNL     1       5.619   4.333  14.160  0.00  0.00    +0.000 C 
ATOM     12  C   UNL     1       6.275   5.123  15.291  0.00  0.00    +0.000 C 
ATOM     13  C   UNL     1       6.689   4.192  16.437  0.00  0.00    +0.000 C 
ATOM     14  C   UNL     1       7.163   4.977  17.666  0.00  0.00    +0.000 C 
ATOM     15  N   UNL     1       6.206   5.987  18.146  0.00  0.00    +0.000 NA
ATOM     16  C   UNL     1       5.899   6.919  17.042  0.00  0.00    +0.000 C 
ATOM     17  C   UNL     1       5.342   6.233  15.791  0.00  0.00    +0.000 C 
ENDBRANCH  10  15
ENDBRANCH   1  10
TORSDOF 4
ENDMDL
MODEL 7
REMARK VINA RESULT:      -6.6      1.471      6.254
REMARK  Name = 
REMARK  7 active torsions:
REMARK  status: ('A' for Active; 'I' for Inactive)
REMARK    1  A    between atoms: C_1  and  C_2
REMARK    2  A    between atoms: N_5  and  C_6
REMARK    3  A    between atoms: C_6  and  C_7
REMARK    4  A    between atoms: C_7  and  N_8
REMARK    5  A    between atoms: C_12  and  C_13
REMARK    6  A    between atoms: C_13  and  C_14
REMARK    7  A    between atoms: C_13  and  C_15
REMARK                            x       y       z     vdW  Elec       q    Type
REMARK                         _______ _______ _______ _____ _____    ______ ____
ROOT
ATOM      1  C   UNL     1       3.600   4.296  18.685  0.00  0.00    +0.000 C 
ENDROOT
BRANCH   1   2
ATOM      2  N   UNL     1       2.786   5.274  19.398  0.00  0.00    +0.000 N 
ATOM      3  C   UNL     1       2.952   6.631  19.255  0.00  0.00    +0.000 A 
ATOM      4  C   UNL     1       2.036   7.202  20.098  0.00  0.00    +0.000 A 
ATOM      5  N   UNL     1       1.318   6.236  20.746  0.00  0.00    +0.000 NA
ATOM      6  C   UNL     1       1.765   5.072  20.305  0.00  0.00    +0.000 A 
BRANCH   6   7
ATOM      7  C   UNL     1       1.233   3.740  20.765  0.00  0.00    +0.000 C 
ATOM      8  C   UNL     1       0.827   2.886  19.564  0.00  0.00    +0.000 C 
ATOM      9  C   UNL     1       2.293   2.992  21.587  0.00  0.00    +0.000 C 
ENDBRANCH   6   7
ENDBRANCH   1   2
BRANCH   1  10
ATOM     10  C   UNL     1       5.099   4.609  18.829  0.00  0.00    +0.000 C 
BRANCH  10  15
ATOM     11  C   UNL     1       7.684   8.426  17.757  0.00  0.00    +0.000 C 
ATOM     12  C   UNL     1       7.393   7.015  17.246  0.00  0.00    +0.000 C 
ATOM     13  C   UNL     1       5.916   6.872  16.855  0.00  0.00    +0.000 C 
ATOM     14  C   UNL     1       5.551   5.418  16.532  0.00  0.00    +0.000 C 
ATOM     15  N   UNL     1       5.897   4.457  17.592  0.00  0.00    +0.000 NA
ATOM     16  C   UNL     1       7.341   4.560  17.880  0.00  0.00    +0.000 C 
ATOM     17  C   UNL     1       7.792   5.966  18.291  0.00  0.00    +0.000 C 
ENDBRANCH  10  15
ENDBRANCH   1  10
TORSDOF 4
ENDMDL
MODEL 8
REMARK VINA RESULT:      -6.6      1.552      6.061
REMARK  Name = 
REMARK  7 active torsions:
REMARK  status: ('A' for Active; 'I' for Inactive)
REMARK    1  A    between atoms: C_1  and  C_2
REMARK    2  A    between atoms: N_5  and  C_6
REMARK    3  A    between atoms: C_6  and  C_7
REMARK    4  A    between atoms: C_7  and  N_8
REMARK    5  A    between atoms: C_12  and  C_13
REMARK    6  A    between atoms: C_13  and  C_14
REMARK    7  A    between atoms: C_13  and  C_15
REMARK                            x       y       z     vdW  Elec       q    Type
REMARK                         _______ _______ _______ _____ _____    ______ ____
ROOT
ATOM      1  C   UNL     1       4.972   3.363  19.630  0.00  0.00    +0.000 C 
ENDROOT
BRANCH   1   2
ATOM      2  N   UNL     1       3.718   2.902  19.047  0.00  0.00    +0.000 N 
ATOM      3  C   UNL     1       3.654   2.217  17.857  0.00  0.00    +0.000 A 
ATOM      4  C   UNL     1       2.322   1.992  17.635  0.00  0.00    +0.000 A 
ATOM      5  N   UNL     1       1.575   2.516  18.653  0.00  0.00    +0.000 NA
ATOM      6  C   UNL     1       2.426   3.050  19.512  0.00  0.00    +0.000 A 
BRANCH   6   7
ATOM      7  C   UNL     1       2.013   3.734  20.789  0.00  0.00    +0.000 C 
ATOM      8  C   UNL     1       1.002   4.843  20.495  0.00  0.00    +0.000 C 
ATOM      9  C   UNL     1       1.392   2.724  21.765  0.00  0.00    +0.000 C 
ENDBRANCH   6   7
ENDBRANCH   1   2
BRANCH   1  10
ATOM     10  C   UNL     1       5.420   4.696  19.008  0.00  0.00    +0.000 C 
BRANCH  10  15
ATOM     11  C   UNL     1       7.694   8.684  17.856  0.00  0.00    +0.000 C 
ATOM     12  C   UNL     1       7.531   7.239  17.385  0.00  0.00    +0.000 C 
ATOM     13  C   UNL     1       6.079   6.960  16.977  0.00  0.00    +0.000 C 
ATOM     14  C   UNL     1       5.843   5.472  16.694  0.00  0.00    +0.000 C 
ATOM     15  N   UNL     1       6.249   4.575  17.788  0.00  0.00    +0.000 NA
ATOM     16  C   UNL     1       7.675   4.809  18.094  0.00  0.00    +0.000 C 
ATOM     17  C   UNL     1       7.998   6.259  18.468  0.00  0.00    +0.000 C 
ENDBRANCH  10  15
ENDBRANCH   1  10
TORSDOF 4
ENDMDL
MODEL 9
REMARK VINA RESULT:      -6.6      1.422      2.587
REMARK  Name = 
REMARK  7 active torsions:
REMARK  status: ('A' for Active; 'I' for Inactive)
REMARK    1  A    between atoms: C_1  and  C_2
REMARK    2  A    between atoms: N_5  and  C_6
REMARK    3  A    between atoms: C_6  and  C_7
REMARK    4  A    between atoms: C_7  and  N_8
REMARK    5  A    between atoms: C_12  and  C_13
REMARK    6  A    between atoms: C_13  and  C_14
REMARK    7  A    between atoms: C_13  and  C_15
REMARK                            x       y       z     vdW  Elec       q    Type
REMARK                         _______ _______ _______ _____ _____    ______ ____
ROOT
ATOM      1  C   UNL     1       4.203   4.858  16.993  0.00  0.00    +0.000 C 
ENDROOT
BRANCH   1   2
ATOM      2  N   UNL     1       5.656   4.755  17.048  0.00  0.00    +0.000 N 
ATOM      3  C   UNL     1       6.353   4.632  18.226  0.00  0.00    +0.000 A 
ATOM      4  C   UNL     1       7.674   4.596  17.867  0.00  0.00    +0.000 A 
ATOM      5  N   UNL     1       7.802   4.690  16.509  0.00  0.00    +0.000 NA
ATOM      6  C   UNL     1       6.577   4.768  16.018  0.00  0.00    +0.000 A 
BRANCH   6   7
ATOM      7  C   UNL     1       6.267   4.880  14.548  0.00  0.00    +0.000 C 
ATOM      8  C   UNL     1       7.528   5.245  13.765  0.00  0.00    +0.000 C 
ATOM      9  C   UNL     1       5.700   3.557  14.014  0.00  0.00    +0.000 C 
ENDBRANCH   6   7
ENDBRANCH   1   2
BRANCH   1  10
ATOM     10  C   UNL     1       3.536   3.511  17.319  0.00  0.00    +0.000 C 
BRANCH  10  15
ATOM     11  C   UNL     1       2.074   3.284  21.815  0.00  0.00    +0.000 C 
ATOM     12  C   UNL     1       1.518   3.413  20.398  0.00  0.00    +0.000 C 
ATOM     13  C   UNL     1       1.853   2.168  19.566  0.00  0.00    +0.000 C 
ATOM     14  C   UNL     1       1.487   2.353  18.089  0.00  0.00    +0.000 C 
ATOM     15  N   UNL     1       2.065   3.555  17.468  0.00  0.00    +0.000 NA
ATOM     16  C   UNL     1       1.648   4.742  18.242  0.00  0.00    +0.000 C 
ATOM     17  C   UNL     1       2.042   4.685  19.721  0.00  0.00    +0.000 C 
ENDBRANCH  10  15
ENDBRANCH   1  10
TORSDOF 4
ENDMDL
