MODEL 1
REMARK VINA RESULT:      -8.3      0.000      0.000
REMARK  Name = 
REMARK  7 active torsions:
REMARK  status: ('A' for Active; 'I' for Inactive)
REMARK    1  A    between atoms: C_1  and  O_2
REMARK    2  A    between atoms: O_2  and  C_3
REMARK    3  A    between atoms: C_8  and  N_9
REMARK    4  A    between atoms: C_12  and  C_13
REMARK    5  A    between atoms: C_13  and  N_14
REMARK    6  A    between atoms: N_14  and  C_15
REMARK    7  A    between atoms: C_15  and  C_16
REMARK                            x       y       z     vdW  Elec       q    Type
REMARK                         _______ _______ _______ _____ _____    ______ ____
ROOT
ATOM      1  C   UNL     1       7.568   7.119  17.367  0.00  0.00    +0.000 C 
ENDROOT
BRANCH   1   5
ATOM      2  N   UNL     1       4.946   4.639  18.098  0.00  0.00    +0.000 N 
ATOM      3  C   UNL     1       5.399   4.972  16.747  0.00  0.00    +0.000 C 
ATOM      4  C   UNL     1       6.923   4.799  16.688  0.00  0.00    +0.000 C 
ATOM      5  C   UNL     1       7.649   5.635  17.761  0.00  0.00    +0.000 C 
ATOM      6  C   UNL     1       7.039   5.337  19.143  0.00  0.00    +0.000 C 
ATOM      7  C   UNL     1       5.511   5.485  19.160  0.00  0.00    +0.000 C 
BRANCH   2  13
ATOM      8  C   UNL     1       2.488   4.584  18.400  0.00  0.00    +0.000 A 
ATOM      9  C   UNL     1       1.323   3.838  18.664  0.00  0.00    +0.000 A 
ATOM     10  C   UNL     1       1.386   2.466  18.887  0.00  0.00    +0.000 A 
ATOM     11  C   UNL     1       2.609   1.820  18.810  0.00  0.00    +0.000 A 
ATOM     12  C   UNL     1       3.762   2.547  18.497  0.00  0.00    +0.000 A 
ATOM     13  C   UNL     1       3.751   3.944  18.294  0.00  0.00    +0.000 A 
BRANCH   8  15
ATOM     14  C   UNL     1       2.186   6.704  19.426  0.00  0.00    +0.000 C 
ATOM     15  O   UNL     1       2.434   5.952  18.245  0.00  0.00    +0.000 OA
ENDBRANCH   8  15
ENDBRANCH   2  13
ENDBRANCH   1   5
BRANCH   1  16
ATOM     16  N   UNL     1       8.288   8.022  18.272  0.00  0.00    +0.000 NA
ATOM     17  H   UNL     1       9.285   7.808  18.198  0.00  0.00    +0.000 HD
BRANCH  16  18
ATOM     18  C   UNL     1       8.095   9.426  17.872  0.00  0.00    +0.000 C 
BRANCH  18  19
ATOM     19  C   UNL     1       9.111  10.494  18.339  0.00  0.00    +0.000 C 
ATOM     20  C   UNL     1       9.384  10.506  19.835  0.00  0.00    +0.000 C 
ATOM     21  O   UNL     1      10.627  11.214  20.013  0.00  0.00    +0.000 OA
ATOM     22  C   UNL     1      10.549  12.459  19.421  0.00  0.00    +0.000 A 
ATOM     23  C   UNL     1      11.519  13.395  19.746  0.00  0.00    +0.000 A 
ATOM     24  C   UNL     1      11.347  14.723  19.351  0.00  0.00    +0.000 A 
ATOM     25  C   UNL     1      10.196  15.103  18.666  0.00  0.00    +0.000 A 
ATOM     26  C   UNL     1       9.298  14.121  18.234  0.00  0.00    +0.000 A 
ATOM     27  F   UNL     1       8.194  14.498  17.568  0.00  0.00    +0.000 F 
ATOM     28  C   UNL     1       9.512  12.788  18.533  0.00  0.00    +0.000 A 
ATOM     29  O   UNL     1       8.725  11.828  17.943  0.00  0.00    +0.000 OA
ENDBRANCH  18  19
ENDBRANCH  16  18
ENDBRANCH   1  16
TORSDOF 6
ENDMDL
MODEL 2
REMARK VINA RESULT:      -8.0      1.016      1.186
REMARK  Name = 
REMARK  7 active torsions:
REMARK  status: ('A' for Active; 'I' for Inactive)
REMARK    1  A    between atoms: C_1  and  O_2
REMARK    2  A    between atoms: O_2  and  C_3
REMARK    3  A    between atoms: C_8  and  N_9
REMARK    4  A    between atoms: C_12  and  C_13
REMARK    5  A    between atoms: C_13  and  N_14
REMARK    6  A    between atoms: N_14  and  C_15
REMARK    7  A    between atoms: C_15  and  C_16
REMARK                            x       y       z     vdW  Elec       q    Type
REMARK                         _______ _______ _______ _____ _____    ______ ____
ROOT
ATOM      1  C   UNL     1       7.476   6.777  17.609  0.00  0.00    +0.000 C 
ENDROOT
BRANCH   1   5
ATOM      2  N   UNL     1       4.329   4.906  18.006  0.00  0.00    +0.000 N 
ATOM      3  C   UNL     1       4.394   6.330  17.674  0.00  0.00    +0.000 C 
ATOM      4  C   UNL     1       5.284   6.501  16.435  0.00  0.00    +0.000 C 
ATOM      5  C   UNL     1       6.686   5.891  16.633  0.00  0.00    +0.000 C 
ATOM      6  C   UNL     1       6.548   4.432  17.107  0.00  0.00    +0.000 C 
ATOM      7  C   UNL     1       5.625   4.291  18.325  0.00  0.00    +0.000 C 
BRANCH   2  13
ATOM      8  C   UNL     1       2.386   4.853  19.542  0.00  0.00    +0.000 A 
ATOM      9  C   UNL     1       1.223   4.199  19.991  0.00  0.00    +0.000 A 
ATOM     10  C   UNL     1       0.810   2.999  19.421  0.00  0.00    +0.000 A 
ATOM     11  C   UNL     1       1.534   2.461  18.370  0.00  0.00    +0.000 A 
ATOM     12  C   UNL     1       2.661   3.133  17.884  0.00  0.00    +0.000 A 
ATOM     13  C   UNL     1       3.135   4.336  18.453  0.00  0.00    +0.000 A 
BRANCH   8  15
ATOM     14  C   UNL     1       1.849   7.012  20.375  0.00  0.00    +0.000 C 
ATOM     15  O   UNL     1       2.830   6.007  20.150  0.00  0.00    +0.000 OA
ENDBRANCH   8  15
ENDBRANCH   2  13
ENDBRANCH   1   5
BRANCH   1  16
ATOM     16  N   UNL     1       7.979   8.022  17.020  0.00  0.00    +0.000 NA
ATOM     17  H   UNL     1       7.475   8.178  16.145  0.00  0.00    +0.000 HD
BRANCH  16  18
ATOM     18  C   UNL     1       7.711   9.166  17.908  0.00  0.00    +0.000 C 
BRANCH  18  19
ATOM     19  C   UNL     1       8.801  10.244  18.105  0.00  0.00    +0.000 C 
ATOM     20  C   UNL     1       9.418  10.283  19.496  0.00  0.00    +0.000 C 
ATOM     21  O   UNL     1      10.664  10.997  19.366  0.00  0.00    +0.000 OA
ATOM     22  C   UNL     1      10.440  12.231  18.789  0.00  0.00    +0.000 A 
ATOM     23  C   UNL     1      11.454  13.175  18.862  0.00  0.00    +0.000 A 
ATOM     24  C   UNL     1      11.185  14.496  18.496  0.00  0.00    +0.000 A 
ATOM     25  C   UNL     1       9.903  14.861  18.094  0.00  0.00    +0.000 A 
ATOM     26  C   UNL     1       8.936  13.870  17.901  0.00  0.00    +0.000 A 
ATOM     27  F   UNL     1       7.704  14.232  17.507  0.00  0.00    +0.000 F 
ATOM     28  C   UNL     1       9.223  12.542  18.163  0.00  0.00    +0.000 A 
ATOM     29  O   UNL     1       8.325  11.570  17.790  0.00  0.00    +0.000 OA
ENDBRANCH  18  19
ENDBRANCH  16  18
ENDBRANCH   1  16
TORSDOF 6
ENDMDL
MODEL 3
REMARK VINA RESULT:      -8.0      5.473      7.903
REMARK  Name = 
REMARK  7 active torsions:
REMARK  status: ('A' for Active; 'I' for Inactive)
REMARK    1  A    between atoms: C_1  and  O_2
REMARK    2  A    between atoms: O_2  and  C_3
REMARK    3  A    between atoms: C_8  and  N_9
REMARK    4  A    between atoms: C_12  and  C_13
REMARK    5  A    between atoms: C_13  and  N_14
REMARK    6  A    between atoms: N_14  and  C_15
REMARK    7  A    between atoms: C_15  and  C_16
REMARK                            x       y       z     vdW  Elec       q    Type
REMARK                         _______ _______ _______ _____ _____    ______ ____
ROOT
ATOM      1  C   UNL     1       1.705   3.233  20.051  0.00  0.00    +0.000 C 
ENDROOT
BRANCH   1   5
ATOM      2  N   UNL     1       4.034   3.838  17.263  0.00  0.00    +0.000 N 
ATOM      3  C   UNL     1       4.088   2.659  18.129  0.00  0.00    +0.000 C 
ATOM      4  C   UNL     1       2.707   1.989  18.126  0.00  0.00    +0.000 C 
ATOM      5  C   UNL     1       1.584   2.959  18.543  0.00  0.00    +0.000 C 
ATOM      6  C   UNL     1       1.661   4.234  17.683  0.00  0.00    +0.000 C 
ATOM      7  C   UNL     1       3.063   4.861  17.679  0.00  0.00    +0.000 C 
BRANCH   2  13
ATOM      8  C   UNL     1       6.232   4.919  16.896  0.00  0.00    +0.000 A 
ATOM      9  C   UNL     1       7.265   5.278  16.010  0.00  0.00    +0.000 A 
ATOM     10  C   UNL     1       7.191   4.959  14.657  0.00  0.00    +0.000 A 
ATOM     11  C   UNL     1       6.104   4.244  14.185  0.00  0.00    +0.000 A 
ATOM     12  C   UNL     1       5.099   3.839  15.071  0.00  0.00    +0.000 A 
ATOM     13  C   UNL     1       5.116   4.167  16.444  0.00  0.00    +0.000 A 
BRANCH   8  15
ATOM     14  C   UNL     1       7.568   5.541  18.759  0.00  0.00    +0.000 C 
ATOM     15  O   UNL     1       6.274   5.292  18.222  0.00  0.00    +0.000 OA
ENDBRANCH   8  15
ENDBRANCH   2  13
ENDBRANCH   1   5
BRANCH   1  16
ATOM     16  N   UNL     1       0.862   4.332  20.532  0.00  0.00    +0.000 NA
ATOM     17  H   UNL     1       0.374   4.007  21.370  0.00  0.00    +0.000 HD
BRANCH  16  18
ATOM     18  C   UNL     1       1.683   5.495  20.910  0.00  0.00    +0.000 C 
BRANCH  18  19
ATOM     19  C   UNL     1       1.201   6.916  20.540  0.00  0.00    +0.000 C 
ATOM     20  C   UNL     1       2.217   7.759  19.783  0.00  0.00    +0.000 C 
ATOM     21  O   UNL     1       1.472   8.821  19.154  0.00  0.00    +0.000 OA
ATOM     22  C   UNL     1       0.735   9.503  20.101  0.00  0.00    +0.000 A 
ATOM     23  C   UNL     1       0.202  10.734  19.747  0.00  0.00    +0.000 A 
ATOM     24  C   UNL     1      -0.350  11.550  20.737  0.00  0.00    +0.000 A 
ATOM     25  C   UNL     1      -0.333  11.140  22.067  0.00  0.00    +0.000 A 
ATOM     26  C   UNL     1       0.087   9.844  22.382  0.00  0.00    +0.000 A 
ATOM     27  F   UNL     1       0.093   9.457  23.668  0.00  0.00    +0.000 F 
ATOM     28  C   UNL     1       0.541   8.989  21.393  0.00  0.00    +0.000 A 
ATOM     29  O   UNL     1       0.769   7.668  21.695  0.00  0.00    +0.000 OA
ENDBRANCH  18  19
ENDBRANCH  16  18
ENDBRANCH   1  16
TORSDOF 6
ENDMDL
MODEL 4
REMARK VINA RESULT:      -8.0      1.133      1.715
REMARK  Name = 
REMARK  7 active torsions:
REMARK  status: ('A' for Active; 'I' for Inactive)
REMARK    1  A    between atoms: C_1  and  O_2
REMARK    2  A    between atoms: O_2  and  C_3
REMARK    3  A    between atoms: C_8  and  N_9
REMARK    4  A    between atoms: C_12  and  C_13
REMARK    5  A    between atoms: C_13  and  N_14
REMARK    6  A    between atoms: N_14  and  C_15
REMARK    7  A    between atoms: C_15  and  C_16
REMARK                            x       y       z     vdW  Elec       q    Type
REMARK                         _______ _______ _______ _____ _____    ______ ____
ROOT
ATOM      1  C   UNL     1       7.145   7.851  17.489  0.00  0.00    +0.000 C 
ENDROOT
BRANCH   1   5
ATOM      2  N   UNL     1       4.759   5.106  18.065  0.00  0.00    +0.000 N 
ATOM      3  C   UNL     1       4.908   5.802  16.785  0.00  0.00    +0.000 C 
ATOM      4  C   UNL     1       6.385   5.746  16.370  0.00  0.00    +0.000 C 
ATOM      5  C   UNL     1       7.319   6.324  17.452  0.00  0.00    +0.000 C 
ATOM      6  C   UNL     1       7.023   5.643  18.802  0.00  0.00    +0.000 C 
ATOM      7  C   UNL     1       5.534   5.685  19.171  0.00  0.00    +0.000 C 
BRANCH   2  13
ATOM      8  C   UNL     1       3.701   3.076  19.012  0.00  0.00    +0.000 A 
ATOM      9  C   UNL     1       2.550   2.282  19.176  0.00  0.00    +0.000 A 
ATOM     10  C   UNL     1       1.336   2.655  18.606  0.00  0.00    +0.000 A 
ATOM     11  C   UNL     1       1.252   3.844  17.902  0.00  0.00    +0.000 A 
ATOM     12  C   UNL     1       2.379   4.662  17.779  0.00  0.00    +0.000 A 
ATOM     13  C   UNL     1       3.638   4.310  18.313  0.00  0.00    +0.000 A 
BRANCH   8  15
ATOM     14  C   UNL     1       4.868   1.745  20.595  0.00  0.00    +0.000 C 
ATOM     15  O   UNL     1       4.917   2.675  19.519  0.00  0.00    +0.000 OA
ENDBRANCH   8  15
ENDBRANCH   2  13
ENDBRANCH   1   5
BRANCH   1  16
ATOM     16  N   UNL     1       8.315   8.577  17.994  0.00  0.00    +0.000 NA
ATOM     17  H   UNL     1       9.118   8.314  17.418  0.00  0.00    +0.000 HD
BRANCH  16  18
ATOM     18  C   UNL     1       8.123  10.031  17.866  0.00  0.00    +0.000 C 
BRANCH  18  19
ATOM     19  C   UNL     1       9.244  10.989  18.330  0.00  0.00    +0.000 C 
ATOM     20  C   UNL     1       9.601  10.887  19.805  0.00  0.00    +0.000 C 
ATOM     21  O   UNL     1      10.904  11.488  19.948  0.00  0.00    +0.000 OA
ATOM     22  C   UNL     1      10.891  12.769  19.435  0.00  0.00    +0.000 A 
ATOM     23  C   UNL     1      11.948  13.608  19.754  0.00  0.00    +0.000 A 
ATOM     24  C   UNL     1      11.859  14.967  19.447  0.00  0.00    +0.000 A 
ATOM     25  C   UNL     1      10.705  15.474  18.856  0.00  0.00    +0.000 A 
ATOM     26  C   UNL     1       9.710  14.592  18.424  0.00  0.00    +0.000 A 
ATOM     27  F   UNL     1       8.602  15.091  17.850  0.00  0.00    +0.000 F 
ATOM     28  C   UNL     1       9.835  13.230  18.632  0.00  0.00    +0.000 A 
ATOM     29  O   UNL     1       8.942  12.370  18.037  0.00  0.00    +0.000 OA
ENDBRANCH  18  19
ENDBRANCH  16  18
ENDBRANCH   1  16
TORSDOF 6
ENDMDL
MODEL 5
REMARK VINA RESULT:      -8.0      1.277      1.398
REMARK  Name = 
REMARK  7 active torsions:
REMARK  status: ('A' for Active; 'I' for Inactive)
REMARK    1  A    between atoms: C_1  and  O_2
REMARK    2  A    between atoms: O_2  and  C_3
REMARK    3  A    between atoms: C_8  and  N_9
REMARK    4  A    between atoms: C_12  and  C_13
REMARK    5  A    between atoms: C_13  and  N_14
REMARK    6  A    between atoms: N_14  and  C_15
REMARK    7  A    between atoms: C_15  and  C_16
REMARK                            x       y       z     vdW  Elec       q    Type
REMARK                         _______ _______ _______ _____ _____    ______ ____
ROOT
ATOM      1  C   UNL     1       7.409   7.673  18.026  0.00  0.00    +0.000 C 
ENDROOT
BRANCH   1   5
ATOM      2  N   UNL     1       4.750   5.128  17.903  0.00  0.00    +0.000 N 
ATOM      3  C   UNL     1       4.677   6.418  17.214  0.00  0.00    +0.000 C 
ATOM      4  C   UNL     1       5.927   6.573  16.337  0.00  0.00    +0.000 C 
ATOM      5  C   UNL     1       7.231   6.426  17.145  0.00  0.00    +0.000 C 
ATOM      6  C   UNL     1       7.191   5.112  17.948  0.00  0.00    +0.000 C 
ATOM      7  C   UNL     1       5.914   4.971  18.788  0.00  0.00    +0.000 C 
BRANCH   2  13
ATOM      8  C   UNL     1       2.524   4.744  18.918  0.00  0.00    +0.000 A 
ATOM      9  C   UNL     1       1.419   3.892  19.114  0.00  0.00    +0.000 A 
ATOM     10  C   UNL     1       1.384   2.623  18.544  0.00  0.00    +0.000 A 
ATOM     11  C   UNL     1       2.432   2.209  17.740  0.00  0.00    +0.000 A 
ATOM     12  C   UNL     1       3.508   3.070  17.500  0.00  0.00    +0.000 A 
ATOM     13  C   UNL     1       3.603   4.353  18.082  0.00  0.00    +0.000 A 
BRANCH   8  15
ATOM     14  C   UNL     1       1.724   6.158  20.650  0.00  0.00    +0.000 C 
ATOM     15  O   UNL     1       2.589   5.973  19.536  0.00  0.00    +0.000 OA
ENDBRANCH   8  15
ENDBRANCH   2  13
ENDBRANCH   1   5
BRANCH   1  16
ATOM     16  N   UNL     1       8.172   8.753  17.392  0.00  0.00    +0.000 NA
ATOM     17  H   UNL     1       7.542   9.249  16.757  0.00  0.00    +0.000 HD
BRANCH  16  18
ATOM     18  C   UNL     1       8.649   9.716  18.399  0.00  0.00    +0.000 C 
BRANCH  18  19
ATOM     19  C   UNL     1       9.418  10.976  17.939  0.00  0.00    +0.000 C 
ATOM     20  C   UNL     1      10.805  11.135  18.542  0.00  0.00    +0.000 C 
ATOM     21  O   UNL     1      11.511  12.063  17.694  0.00  0.00    +0.000 OA
ATOM     22  C   UNL     1      10.787  13.233  17.573  0.00  0.00    +0.000 A 
ATOM     23  C   UNL     1      11.434  14.346  17.058  0.00  0.00    +0.000 A 
ATOM     24  C   UNL     1      10.811  15.594  17.131  0.00  0.00    +0.000 A 
ATOM     25  C   UNL     1       9.568  15.716  17.746  0.00  0.00    +0.000 A 
ATOM     26  C   UNL     1       8.878  14.565  18.137  0.00  0.00    +0.000 A 
ATOM     27  F   UNL     1       7.677  14.694  18.724  0.00  0.00    +0.000 F 
ATOM     28  C   UNL     1       9.445  13.313  17.975  0.00  0.00    +0.000 A 
ATOM     29  O   UNL     1       8.679  12.191  18.190  0.00  0.00    +0.000 OA
ENDBRANCH  18  19
ENDBRANCH  16  18
ENDBRANCH   1  16
TORSDOF 6
ENDMDL
MODEL 6
REMARK VINA RESULT:      -7.9      1.107      1.772
REMARK  Name = 
REMARK  7 active torsions:
REMARK  status: ('A' for Active; 'I' for Inactive)
REMARK    1  A    between atoms: C_1  and  O_2
REMARK    2  A    between atoms: O_2  and  C_3
REMARK    3  A    between atoms: C_8  and  N_9
REMARK    4  A    between atoms: C_12  and  C_13
REMARK    5  A    between atoms: C_13  and  N_14
REMARK    6  A    between atoms: N_14  and  C_15
REMARK    7  A    between atoms: C_15  and  C_16
REMARK                            x       y       z     vdW  Elec       q    Type
REMARK                         _______ _______ _______ _____ _____    ______ ____
ROOT
ATOM      1  C   UNL     1       6.949   7.251  17.180  0.00  0.00    +0.000 C 
ENDROOT
BRANCH   1   5
ATOM      2  N   UNL     1       4.410   4.984  18.585  0.00  0.00    +0.000 N 
ATOM      3  C   UNL     1       4.421   5.433  17.192  0.00  0.00    +0.000 C 
ATOM      4  C   UNL     1       5.795   5.113  16.587  0.00  0.00    +0.000 C 
ATOM      5  C   UNL     1       6.950   5.730  17.400  0.00  0.00    +0.000 C 
ATOM      6  C   UNL     1       6.809   5.327  18.879  0.00  0.00    +0.000 C 
ATOM      7  C   UNL     1       5.414   5.628  19.445  0.00  0.00    +0.000 C 
BRANCH   2  13
ATOM      8  C   UNL     1       2.783   3.122  18.738  0.00  0.00    +0.000 A 
ATOM      9  C   UNL     1       1.588   2.607  19.276  0.00  0.00    +0.000 A 
ATOM     10  C   UNL     1       0.820   3.357  20.162  0.00  0.00    +0.000 A 
ATOM     11  C   UNL     1       1.259   4.612  20.549  0.00  0.00    +0.000 A 
ATOM     12  C   UNL     1       2.472   5.108  20.057  0.00  0.00    +0.000 A 
ATOM     13  C   UNL     1       3.267   4.397  19.133  0.00  0.00    +0.000 A 
BRANCH   8  15
ATOM     14  C   UNL     1       3.999   1.142  18.242  0.00  0.00    +0.000 C 
ATOM     15  O   UNL     1       3.509   2.407  17.811  0.00  0.00    +0.000 OA
ENDBRANCH   8  15
ENDBRANCH   2  13
ENDBRANCH   1   5
BRANCH   1  16
ATOM     16  N   UNL     1       8.026   7.961  17.879  0.00  0.00    +0.000 NA
ATOM     17  H   UNL     1       8.915   7.574  17.555  0.00  0.00    +0.000 HD
BRANCH  16  18
ATOM     18  C   UNL     1       8.007   9.395  17.548  0.00  0.00    +0.000 C 
BRANCH  18  19
ATOM     19  C   UNL     1       9.054  10.335  18.188  0.00  0.00    +0.000 C 
ATOM     20  C   UNL     1       9.184  10.212  19.699  0.00  0.00    +0.000 C 
ATOM     21  O   UNL     1      10.457  10.797  20.044  0.00  0.00    +0.000 OA
ATOM     22  C   UNL     1      10.531  12.085  19.552  0.00  0.00    +0.000 A 
ATOM     23  C   UNL     1      11.536  12.909  20.038  0.00  0.00    +0.000 A 
ATOM     24  C   UNL     1      11.506  14.272  19.739  0.00  0.00    +0.000 A 
ATOM     25  C   UNL     1      10.457  14.798  18.989  0.00  0.00    +0.000 A 
ATOM     26  C   UNL     1       9.531  13.932  18.400  0.00  0.00    +0.000 A 
ATOM     27  F   UNL     1       8.527  14.450  17.673  0.00  0.00    +0.000 F 
ATOM     28  C   UNL     1       9.612  12.566  18.606  0.00  0.00    +0.000 A 
ATOM     29  O   UNL     1       8.812  11.723  17.872  0.00  0.00    +0.000 OA
ENDBRANCH  18  19
ENDBRANCH  16  18
ENDBRANCH   1  16
TORSDOF 6
ENDMDL
MODEL 7
REMARK VINA RESULT:      -7.8      1.567      1.842
REMARK  Name = 
REMARK  7 active torsions:
REMARK  status: ('A' for Active; 'I' for Inactive)
REMARK    1  A    between atoms: C_1  and  O_2
REMARK    2  A    between atoms: O_2  and  C_3
REMARK    3  A    between atoms: C_8  and  N_9
REMARK    4  A    between atoms: C_12  and  C_13
REMARK    5  A    between atoms: C_13  and  N_14
REMARK    6  A    between atoms: N_14  and  C_15
REMARK    7  A    between atoms: C_15  and  C_16
REMARK                            x       y       z     vdW  Elec       q    Type
REMARK                         _______ _______ _______ _____ _____    ______ ____
ROOT
ATOM      1  C   UNL     1       7.055   7.852  17.585  0.00  0.00    +0.000 C 
ENDROOT
BRANCH   1   5
ATOM      2  N   UNL     1       4.873   4.927  18.074  0.00  0.00    +0.000 N 
ATOM      3  C   UNL     1       4.643   5.955  17.057  0.00  0.00    +0.000 C 
ATOM      4  C   UNL     1       5.917   6.098  16.213  0.00  0.00    +0.000 C 
ATOM      5  C   UNL     1       7.158   6.406  17.074  0.00  0.00    +0.000 C 
ATOM      6  C   UNL     1       7.271   5.366  18.203  0.00  0.00    +0.000 C 
ATOM      7  C   UNL     1       5.970   5.221  19.006  0.00  0.00    +0.000 C 
BRANCH   2  13
ATOM      8  C   UNL     1       2.974   4.243  19.511  0.00  0.00    +0.000 A 
ATOM      9  C   UNL     1       2.011   3.275  19.855  0.00  0.00    +0.000 A 
ATOM     10  C   UNL     1       1.939   2.063  19.175  0.00  0.00    +0.000 A 
ATOM     11  C   UNL     1       2.803   1.823  18.119  0.00  0.00    +0.000 A 
ATOM     12  C   UNL     1       3.727   2.802  17.740  0.00  0.00    +0.000 A 
ATOM     13  C   UNL     1       3.858   4.032  18.420  0.00  0.00    +0.000 A 
BRANCH   8  15
ATOM     14  C   UNL     1       2.208   6.466  19.847  0.00  0.00    +0.000 C 
ATOM     15  O   UNL     1       3.089   5.415  20.227  0.00  0.00    +0.000 OA
ENDBRANCH   8  15
ENDBRANCH   2  13
ENDBRANCH   1   5
BRANCH   1  16
ATOM     16  N   UNL     1       8.256   8.661  17.348  0.00  0.00    +0.000 NA
ATOM     17  H   UNL     1       7.998   9.422  16.716  0.00  0.00    +0.000 HD
BRANCH  16  18
ATOM     18  C   UNL     1       8.739   9.260  18.604  0.00  0.00    +0.000 C 
BRANCH  18  19
ATOM     19  C   UNL     1       9.074  10.769  18.645  0.00  0.00    +0.000 C 
ATOM     20  C   UNL     1      10.324  11.167  17.876  0.00  0.00    +0.000 C 
ATOM     21  O   UNL     1      10.226  12.589  17.654  0.00  0.00    +0.000 OA
ATOM     22  C   UNL     1      10.044  13.241  18.857  0.00  0.00    +0.000 A 
ATOM     23  C   UNL     1      10.234  14.615  18.886  0.00  0.00    +0.000 A 
ATOM     24  C   UNL     1      10.283  15.272  20.117  0.00  0.00    +0.000 A 
ATOM     25  C   UNL     1      10.175  14.546  21.300  0.00  0.00    +0.000 A 
ATOM     26  C   UNL     1       9.852  13.186  21.244  0.00  0.00    +0.000 A 
ATOM     27  F   UNL     1       9.743  12.496  22.392  0.00  0.00    +0.000 F 
ATOM     28  C   UNL     1       9.699  12.546  20.027  0.00  0.00    +0.000 A 
ATOM     29  O   UNL     1       9.201  11.265  19.995  0.00  0.00    +0.000 OA
ENDBRANCH  18  19
ENDBRANCH  16  18
ENDBRANCH   1  16
TORSDOF 6
ENDMDL
MODEL 8
REMARK VINA RESULT:      -7.8      1.836      2.518
REMARK  Name = 
REMARK  7 active torsions:
REMARK  status: ('A' for Active; 'I' for Inactive)
REMARK    1  A    between atoms: C_1  and  O_2
REMARK    2  A    between atoms: O_2  and  C_3
REMARK    3  A    between atoms: C_8  and  N_9
REMARK    4  A    between atoms: C_12  and  C_13
REMARK    5  A    between atoms: C_13  and  N_14
REMARK    6  A    between atoms: N_14  and  C_15
REMARK    7  A    between atoms: C_15  and  C_16
REMARK                            x       y       z     vdW  Elec       q    Type
REMARK                         _______ _______ _______ _____ _____    ______ ____
ROOT
ATOM      1  C   UNL     1       6.734   7.907  17.653  0.00  0.00    +0.000 C 
ENDROOT
BRANCH   1   5
ATOM      2  N   UNL     1       4.239   5.372  18.605  0.00  0.00    +0.000 N 
ATOM      3  C   UNL     1       3.970   6.473  17.679  0.00  0.00    +0.000 C 
ATOM      4  C   UNL     1       5.024   6.440  16.565  0.00  0.00    +0.000 C 
ATOM      5  C   UNL     1       6.462   6.492  17.118  0.00  0.00    +0.000 C 
ATOM      6  C   UNL     1       6.643   5.392  18.180  0.00  0.00    +0.000 C 
ATOM      7  C   UNL     1       5.553   5.430  19.261  0.00  0.00    +0.000 C 
BRANCH   2  13
ATOM      8  C   UNL     1       2.893   3.302  18.815  0.00  0.00    +0.000 A 
ATOM      9  C   UNL     1       1.780   2.639  19.366  0.00  0.00    +0.000 A 
ATOM     10  C   UNL     1       0.905   3.301  20.223  0.00  0.00    +0.000 A 
ATOM     11  C   UNL     1       1.157   4.618  20.569  0.00  0.00    +0.000 A 
ATOM     12  C   UNL     1       2.290   5.266  20.065  0.00  0.00    +0.000 A 
ATOM     13  C   UNL     1       3.187   4.645  19.168  0.00  0.00    +0.000 A 
BRANCH   8  15
ATOM     14  C   UNL     1       3.934   1.279  18.135  0.00  0.00    +0.000 C 
ATOM     15  O   UNL     1       3.722   2.668  17.915  0.00  0.00    +0.000 OA
ENDBRANCH   8  15
ENDBRANCH   2  13
ENDBRANCH   1   5
BRANCH   1  16
ATOM     16  N   UNL     1       8.070   8.424  17.337  0.00  0.00    +0.000 NA
ATOM     17  H   UNL     1       7.957   9.185  16.663  0.00  0.00    +0.000 HD
BRANCH  16  18
ATOM     18  C   UNL     1       8.716   8.975  18.540  0.00  0.00    +0.000 C 
BRANCH  18  19
ATOM     19  C   UNL     1       8.992  10.493  18.624  0.00  0.00    +0.000 C 
ATOM     20  C   UNL     1      10.226  10.961  17.867  0.00  0.00    +0.000 C 
ATOM     21  O   UNL     1      10.073  12.384  17.686  0.00  0.00    +0.000 OA
ATOM     22  C   UNL     1       9.867  12.994  18.907  0.00  0.00    +0.000 A 
ATOM     23  C   UNL     1      10.005  14.373  18.976  0.00  0.00    +0.000 A 
ATOM     24  C   UNL     1      10.030  14.996  20.225  0.00  0.00    +0.000 A 
ATOM     25  C   UNL     1       9.951  14.232  21.386  0.00  0.00    +0.000 A 
ATOM     26  C   UNL     1       9.680  12.864  21.292  0.00  0.00    +0.000 A 
ATOM     27  F   UNL     1       9.599  12.137  22.419  0.00  0.00    +0.000 F 
ATOM     28  C   UNL     1       9.551  12.253  20.057  0.00  0.00    +0.000 A 
ATOM     29  O   UNL     1       9.102  10.956  19.988  0.00  0.00    +0.000 OA
ENDBRANCH  18  19
ENDBRANCH  16  18
ENDBRANCH   1  16
TORSDOF 6
ENDMDL
MODEL 9
REMARK VINA RESULT:      -7.7      1.745      2.369
REMARK  Name = 
REMARK  7 active torsions:
REMARK  status: ('A' for Active; 'I' for Inactive)
REMARK    1  A    between atoms: C_1  and  O_2
REMARK    2  A    between atoms: O_2  and  C_3
REMARK    3  A    between atoms: C_8  and  N_9
REMARK    4  A    between atoms: C_12  and  C_13
REMARK    5  A    between atoms: C_13  and  N_14
REMARK    6  A    between atoms: N_14  and  C_15
REMARK    7  A    between atoms: C_15  and  C_16
REMARK                            x       y       z     vdW  Elec       q    Type
REMARK                         _______ _______ _______ _____ _____    ______ ____
ROOT
ATOM      1  C   UNL     1       6.991   7.849  17.674  0.00  0.00    +0.000 C 
ENDROOT
BRANCH   1   5
ATOM      2  N   UNL     1       4.664   5.031  18.125  0.00  0.00    +0.000 N 
ATOM      3  C   UNL     1       4.727   5.851  16.914  0.00  0.00    +0.000 C 
ATOM      4  C   UNL     1       6.174   5.855  16.403  0.00  0.00    +0.000 C 
ATOM      5  C   UNL     1       7.172   6.335  17.476  0.00  0.00    +0.000 C 
ATOM      6  C   UNL     1       6.968   5.522  18.767  0.00  0.00    +0.000 C 
ATOM      7  C   UNL     1       5.505   5.508  19.233  0.00  0.00    +0.000 C 
BRANCH   2  13
ATOM      8  C   UNL     1       3.670   2.946  19.022  0.00  0.00    +0.000 A 
ATOM      9  C   UNL     1       2.541   2.119  19.177  0.00  0.00    +0.000 A 
ATOM     10  C   UNL     1       1.310   2.480  18.637  0.00  0.00    +0.000 A 
ATOM     11  C   UNL     1       1.186   3.689  17.973  0.00  0.00    +0.000 A 
ATOM     12  C   UNL     1       2.292   4.538  17.860  0.00  0.00    +0.000 A 
ATOM     13  C   UNL     1       3.567   4.200  18.364  0.00  0.00    +0.000 A 
BRANCH   8  15
ATOM     14  C   UNL     1       4.894   1.760  20.675  0.00  0.00    +0.000 C 
ATOM     15  O   UNL     1       4.903   2.559  19.498  0.00  0.00    +0.000 OA
ENDBRANCH   8  15
ENDBRANCH   2  13
ENDBRANCH   1   5
BRANCH   1  16
ATOM     16  N   UNL     1       8.181   8.644  17.353  0.00  0.00    +0.000 NA
ATOM     17  H   UNL     1       7.886   9.417  16.752  0.00  0.00    +0.000 HD
BRANCH  16  18
ATOM     18  C   UNL     1       8.771   9.218  18.574  0.00  0.00    +0.000 C 
BRANCH  18  19
ATOM     19  C   UNL     1       9.081  10.732  18.627  0.00  0.00    +0.000 C 
ATOM     20  C   UNL     1      10.312  11.160  17.843  0.00  0.00    +0.000 C 
ATOM     21  O   UNL     1      10.187  12.582  17.638  0.00  0.00    +0.000 OA
ATOM     22  C   UNL     1      10.013  13.218  18.851  0.00  0.00    +0.000 A 
ATOM     23  C   UNL     1      10.181  14.594  18.893  0.00  0.00    +0.000 A 
ATOM     24  C   UNL     1      10.239  15.239  20.131  0.00  0.00    +0.000 A 
ATOM     25  C   UNL     1      10.162  14.497  21.306  0.00  0.00    +0.000 A 
ATOM     26  C   UNL     1       9.861  13.134  21.240  0.00  0.00    +0.000 A 
ATOM     27  F   UNL     1       9.782  12.429  22.382  0.00  0.00    +0.000 F 
ATOM     28  C   UNL     1       9.699  12.505  20.019  0.00  0.00    +0.000 A 
ATOM     29  O   UNL     1       9.222  11.216  19.980  0.00  0.00    +0.000 OA
ENDBRANCH  18  19
ENDBRANCH  16  18
ENDBRANCH   1  16
TORSDOF 6
ENDMDL
