MODEL 1
REMARK VINA RESULT:      -8.3      0.000      0.000
REMARK  Name = 
REMARK  6 active torsions:
REMARK  status: ('A' for Active; 'I' for Inactive)
REMARK    1  A    between atoms: C_1  and  N_2
REMARK    2  A    between atoms: N_5  and  C_6
REMARK    3  A    between atoms: C_10  and  C_11
REMARK    4  A    between atoms: C_23  and  C_24
REMARK    5  A    between atoms: C_27  and  C_28
REMARK    6  A    between atoms: C_31  and  C_32
REMARK                            x       y       z     vdW  Elec       q    Type
REMARK                         _______ _______ _______ _____ _____    ______ ____
ROOT
ATOM      1  C   UNL     1      -0.443   9.965  23.517  0.00  0.00    +0.000 C 
ATOM      2  N   UNL     1      -0.039  10.322  22.168  0.00  0.00    +0.000 N 
ATOM      3  C   UNL     1       0.941   9.558  21.564  0.00  0.00    +0.000 C 
ATOM      4  O   UNL     1       1.807   8.997  22.238  0.00  0.00    +0.000 OA
ATOM      5  N   UNL     1       0.815   9.382  20.165  0.00  0.00    +0.000 N 
ATOM      6  C   UNL     1      -0.184  10.048  19.416  0.00  0.00    +0.000 C 
ATOM      7  C   UNL     1      -0.972  10.952  20.023  0.00  0.00    +0.000 C 
ATOM      8  C   UNL     1      -2.109  11.596  19.319  0.00  0.00    +0.000 C 
ATOM      9  O   UNL     1      -2.863  12.354  19.929  0.00  0.00    +0.000 OA
ATOM     10  C   UNL     1      -2.384  11.322  17.871  0.00  0.00    +0.000 C 
ATOM     11  C   UNL     1      -1.437  10.390  17.149  0.00  0.00    +0.000 C 
ATOM     12  C   UNL     1      -0.351   9.690  17.960  0.00  0.00    +0.000 C 
ATOM     13  C   UNL     1      -0.819  11.337  21.469  0.00  0.00    +0.000 C 
ENDROOT
BRANCH   5  14
ATOM     14  C   UNL     1       1.566   8.268  19.634  0.00  0.00    +0.000 A 
ATOM     15  C   UNL     1       2.368   8.396  18.498  0.00  0.00    +0.000 A 
ATOM     16  C   UNL     1       3.087   7.297  18.013  0.00  0.00    +0.000 A 
ATOM     17  C   UNL     1       2.990   6.053  18.639  0.00  0.00    +0.000 A 
ATOM     18  C   UNL     1       2.177   5.893  19.769  0.00  0.00    +0.000 A 
ATOM     19  C   UNL     1       1.493   7.015  20.274  0.00  0.00    +0.000 A 
BRANCH  18  20
ATOM     20  C   UNL     1       1.997   4.538  20.414  0.00  0.00    +0.000 C 
ATOM     21  F   UNL     1       0.693   4.150  20.507  0.00  0.00    +0.000 F 
ATOM     22  F   UNL     1       2.639   3.539  19.754  0.00  0.00    +0.000 F 
ATOM     23  F   UNL     1       2.476   4.515  21.690  0.00  0.00    +0.000 F 
ENDBRANCH  18  20
ENDBRANCH   5  14
BRANCH  13  24
ATOM     24  C   UNL     1      -0.232  12.748  21.665  0.00  0.00    +0.000 A 
ATOM     25  C   UNL     1       0.978  13.067  20.999  0.00  0.00    +0.000 A 
ATOM     26  C   UNL     1       1.586  14.325  21.128  0.00  0.00    +0.000 A 
ATOM     27  C   UNL     1       1.000  15.307  21.916  0.00  0.00    +0.000 A 
ATOM     28  C   UNL     1      -0.199  15.017  22.572  0.00  0.00    +0.000 A 
ATOM     29  C   UNL     1      -0.818  13.745  22.486  0.00  0.00    +0.000 A 
BRANCH  29  30
ATOM     30  C   UNL     1      -2.019  13.556  23.310  0.00  0.00    +0.000 A 
ATOM     31  C   UNL     1      -3.031  12.622  23.419  0.00  0.00    +0.000 A 
ATOM     32  C   UNL     1      -3.899  13.062  24.448  0.00  0.00    +0.000 A 
ATOM     33  C   UNL     1      -3.387  14.255  24.889  0.00  0.00    +0.000 A 
ATOM     34  O   UNL     1      -2.249  14.558  24.217  0.00  0.00    +0.000 OA
ENDBRANCH  29  30
BRANCH  27  35
ATOM     35  C   UNL     1       1.621  16.595  22.071  0.00  0.00    +0.000 C 
ATOM     36  N   UNL     1       2.129  17.626  22.195  0.00  0.00    +0.000 NA
ENDBRANCH  27  35
ENDBRANCH  13  24
TORSDOF 5
ENDMDL
MODEL 2
REMARK VINA RESULT:      -8.3      1.669      1.730
REMARK  Name = 
REMARK  6 active torsions:
REMARK  status: ('A' for Active; 'I' for Inactive)
REMARK    1  A    between atoms: C_1  and  N_2
REMARK    2  A    between atoms: N_5  and  C_6
REMARK    3  A    between atoms: C_10  and  C_11
REMARK    4  A    between atoms: C_23  and  C_24
REMARK    5  A    between atoms: C_27  and  C_28
REMARK    6  A    between atoms: C_31  and  C_32
REMARK                            x       y       z     vdW  Elec       q    Type
REMARK                         _______ _______ _______ _____ _____    ______ ____
ROOT
ATOM      1  C   UNL     1      -0.774  11.037  22.648  0.00  0.00    +0.000 C 
ATOM      2  N   UNL     1      -0.559  11.185  21.218  0.00  0.00    +0.000 N 
ATOM      3  C   UNL     1       0.535  10.552  20.662  0.00  0.00    +0.000 C 
ATOM      4  O   UNL     1       1.554  10.353  21.326  0.00  0.00    +0.000 OA
ATOM      5  N   UNL     1       0.364  10.065  19.343  0.00  0.00    +0.000 N 
ATOM      6  C   UNL     1      -0.814  10.318  18.601  0.00  0.00    +0.000 C 
ATOM      7  C   UNL     1      -1.756  11.128  19.113  0.00  0.00    +0.000 C 
ATOM      8  C   UNL     1      -3.059  11.339  18.435  0.00  0.00    +0.000 C 
ATOM      9  O   UNL     1      -3.932  12.019  18.974  0.00  0.00    +0.000 OA
ATOM     10  C   UNL     1      -3.354  10.714  17.104  0.00  0.00    +0.000 C 
ATOM     11  C   UNL     1      -2.259   9.889  16.467  0.00  0.00    +0.000 C 
ATOM     12  C   UNL     1      -0.985   9.635  17.266  0.00  0.00    +0.000 C 
ATOM     13  C   UNL     1      -1.606  11.831  20.435  0.00  0.00    +0.000 C 
ENDROOT
BRANCH   5  14
ATOM     14  C   UNL     1       1.326   9.061  18.949  0.00  0.00    +0.000 A 
ATOM     15  C   UNL     1       2.184   9.252  17.864  0.00  0.00    +0.000 A 
ATOM     16  C   UNL     1       3.109   8.262  17.512  0.00  0.00    +0.000 A 
ATOM     17  C   UNL     1       3.166   7.061  18.221  0.00  0.00    +0.000 A 
ATOM     18  C   UNL     1       2.303   6.836  19.301  0.00  0.00    +0.000 A 
ATOM     19  C   UNL     1       1.408   7.856  19.674  0.00  0.00    +0.000 A 
BRANCH  18  20
ATOM     20  C   UNL     1       2.296   5.513  20.031  0.00  0.00    +0.000 C 
ATOM     21  F   UNL     1       1.607   5.546  21.208  0.00  0.00    +0.000 F 
ATOM     22  F   UNL     1       1.750   4.501  19.305  0.00  0.00    +0.000 F 
ATOM     23  F   UNL     1       3.555   5.105  20.357  0.00  0.00    +0.000 F 
ENDBRANCH  18  20
ENDBRANCH   5  14
BRANCH  13  24
ATOM     24  C   UNL     1      -1.367  13.346  20.295  0.00  0.00    +0.000 A 
ATOM     25  C   UNL     1      -0.386  13.787  19.372  0.00  0.00    +0.000 A 
ATOM     26  C   UNL     1      -0.099  15.147  19.187  0.00  0.00    +0.000 A 
ATOM     27  C   UNL     1      -0.789  16.112  19.909  0.00  0.00    +0.000 A 
ATOM     28  C   UNL     1      -1.769  15.700  20.817  0.00  0.00    +0.000 A 
ATOM     29  C   UNL     1      -2.056  14.332  21.048  0.00  0.00    +0.000 A 
BRANCH  29  30
ATOM     30  C   UNL     1      -3.038  14.049  22.102  0.00  0.00    +0.000 A 
ATOM     31  C   UNL     1      -4.388  13.766  22.175  0.00  0.00    +0.000 A 
ATOM     32  C   UNL     1      -4.708  13.596  23.544  0.00  0.00    +0.000 A 
ATOM     33  C   UNL     1      -3.544  13.814  24.234  0.00  0.00    +0.000 A 
ATOM     34  O   UNL     1      -2.529  14.078  23.375  0.00  0.00    +0.000 OA
ENDBRANCH  29  30
BRANCH  27  35
ATOM     35  C   UNL     1      -0.493  17.509  19.742  0.00  0.00    +0.000 C 
ATOM     36  N   UNL     1      -0.246  18.631  19.610  0.00  0.00    +0.000 NA
ENDBRANCH  27  35
ENDBRANCH  13  24
TORSDOF 5
ENDMDL
MODEL 3
REMARK VINA RESULT:      -8.0      1.640      1.786
REMARK  Name = 
REMARK  6 active torsions:
REMARK  status: ('A' for Active; 'I' for Inactive)
REMARK    1  A    between atoms: C_1  and  N_2
REMARK    2  A    between atoms: N_5  and  C_6
REMARK    3  A    between atoms: C_10  and  C_11
REMARK    4  A    between atoms: C_23  and  C_24
REMARK    5  A    between atoms: C_27  and  C_28
REMARK    6  A    between atoms: C_31  and  C_32
REMARK                            x       y       z     vdW  Elec       q    Type
REMARK                         _______ _______ _______ _____ _____    ______ ____
ROOT
ATOM      1  C   UNL     1      -1.227  10.731  22.936  0.00  0.00    +0.000 C 
ATOM      2  N   UNL     1      -0.929  11.031  21.546  0.00  0.00    +0.000 N 
ATOM      3  C   UNL     1       0.201  10.464  20.992  0.00  0.00    +0.000 C 
ATOM      4  O   UNL     1       1.181  10.197  21.691  0.00  0.00    +0.000 OA
ATOM      5  N   UNL     1       0.112  10.118  19.621  0.00  0.00    +0.000 N 
ATOM      6  C   UNL     1      -1.022  10.446  18.841  0.00  0.00    +0.000 C 
ATOM      7  C   UNL     1      -2.000  11.196  19.379  0.00  0.00    +0.000 C 
ATOM      8  C   UNL     1      -3.262  11.475  18.651  0.00  0.00    +0.000 C 
ATOM      9  O   UNL     1      -4.171  12.092  19.206  0.00  0.00    +0.000 OA
ATOM     10  C   UNL     1      -3.473  10.994  17.246  0.00  0.00    +0.000 C 
ATOM     11  C   UNL     1      -2.335  10.244  16.591  0.00  0.00    +0.000 C 
ATOM     12  C   UNL     1      -1.108   9.909  17.434  0.00  0.00    +0.000 C 
ATOM     13  C   UNL     1      -1.934  11.754  20.775  0.00  0.00    +0.000 C 
ENDROOT
BRANCH   5  14
ATOM     14  C   UNL     1       1.105   9.165  19.181  0.00  0.00    +0.000 A 
ATOM     15  C   UNL     1       1.982   9.448  18.132  0.00  0.00    +0.000 A 
ATOM     16  C   UNL     1       2.936   8.504  17.734  0.00  0.00    +0.000 A 
ATOM     17  C   UNL     1       3.003   7.258  18.359  0.00  0.00    +0.000 A 
ATOM     18  C   UNL     1       2.122   6.941  19.400  0.00  0.00    +0.000 A 
ATOM     19  C   UNL     1       1.197   7.914  19.822  0.00  0.00    +0.000 A 
BRANCH  18  20
ATOM     20  C   UNL     1       2.128   5.570  20.037  0.00  0.00    +0.000 C 
ATOM     21  F   UNL     1       1.635   4.592  19.224  0.00  0.00    +0.000 F 
ATOM     22  F   UNL     1       3.367   5.157  20.412  0.00  0.00    +0.000 F 
ATOM     23  F   UNL     1       1.361   5.529  21.163  0.00  0.00    +0.000 F 
ENDBRANCH  18  20
ENDBRANCH   5  14
BRANCH  13  24
ATOM     24  C   UNL     1      -1.700  13.276  20.811  0.00  0.00    +0.000 A 
ATOM     25  C   UNL     1      -0.636  13.809  20.040  0.00  0.00    +0.000 A 
ATOM     26  C   UNL     1      -0.348  15.181  20.021  0.00  0.00    +0.000 A 
ATOM     27  C   UNL     1      -1.118  16.068  20.761  0.00  0.00    +0.000 A 
ATOM     28  C   UNL     1      -2.180  15.566  21.519  0.00  0.00    +0.000 A 
ATOM     29  C   UNL     1      -2.473  14.181  21.583  0.00  0.00    +0.000 A 
BRANCH  29  30
ATOM     30  C   UNL     1      -3.553  13.792  22.499  0.00  0.00    +0.000 A 
ATOM     31  C   UNL     1      -3.678  13.491  23.841  0.00  0.00    +0.000 A 
ATOM     32  C   UNL     1      -5.042  13.190  24.078  0.00  0.00    +0.000 A 
ATOM     33  C   UNL     1      -5.668  13.294  22.863  0.00  0.00    +0.000 A 
ATOM     34  O   UNL     1      -4.783  13.666  21.906  0.00  0.00    +0.000 OA
ENDBRANCH  29  30
BRANCH  27  35
ATOM     35  C   UNL     1      -0.824  17.475  20.765  0.00  0.00    +0.000 C 
ATOM     36  N   UNL     1      -0.594  18.608  20.773  0.00  0.00    +0.000 NA
ENDBRANCH  27  35
ENDBRANCH  13  24
TORSDOF 5
ENDMDL
MODEL 4
REMARK VINA RESULT:      -7.8      4.692      8.715
REMARK  Name = 
REMARK  6 active torsions:
REMARK  status: ('A' for Active; 'I' for Inactive)
REMARK    1  A    between atoms: C_1  and  N_2
REMARK    2  A    between atoms: N_5  and  C_6
REMARK    3  A    between atoms: C_10  and  C_11
REMARK    4  A    between atoms: C_23  and  C_24
REMARK    5  A    between atoms: C_27  and  C_28
REMARK    6  A    between atoms: C_31  and  C_32
REMARK                            x       y       z     vdW  Elec       q    Type
REMARK                         _______ _______ _______ _____ _____    ______ ____
ROOT
ATOM      1  C   UNL     1      -0.754  10.091  22.688  0.00  0.00    +0.000 C 
ATOM      2  N   UNL     1      -0.955  11.385  22.059  0.00  0.00    +0.000 N 
ATOM      3  C   UNL     1      -1.751  12.304  22.714  0.00  0.00    +0.000 C 
ATOM      4  O   UNL     1      -2.666  11.933  23.452  0.00  0.00    +0.000 OA
ATOM      5  N   UNL     1      -1.378  13.663  22.567  0.00  0.00    +0.000 N 
ATOM      6  C   UNL     1      -0.329  14.060  21.706  0.00  0.00    +0.000 C 
ATOM      7  C   UNL     1       0.266  13.143  20.923  0.00  0.00    +0.000 C 
ATOM      8  C   UNL     1       1.446  13.475  20.086  0.00  0.00    +0.000 C 
ATOM      9  O   UNL     1       2.019  12.592  19.448  0.00  0.00    +0.000 OA
ATOM     10  C   UNL     1       1.982  14.874  20.017  0.00  0.00    +0.000 C 
ATOM     11  C   UNL     1       1.252  15.936  20.809  0.00  0.00    +0.000 C 
ATOM     12  C   UNL     1       0.110  15.503  21.722  0.00  0.00    +0.000 C 
ATOM     13  C   UNL     1      -0.159  11.700  20.878  0.00  0.00    +0.000 C 
ENDROOT
BRANCH   5  14
ATOM     14  C   UNL     1      -1.931  14.544  23.570  0.00  0.00    +0.000 A 
ATOM     15  C   UNL     1      -1.231  14.863  24.735  0.00  0.00    +0.000 A 
ATOM     16  C   UNL     1      -1.794  15.724  25.685  0.00  0.00    +0.000 A 
ATOM     17  C   UNL     1      -3.072  16.253  25.493  0.00  0.00    +0.000 A 
ATOM     18  C   UNL     1      -3.803  15.933  24.342  0.00  0.00    +0.000 A 
ATOM     19  C   UNL     1      -3.210  15.102  23.374  0.00  0.00    +0.000 A 
BRANCH  18  20
ATOM     20  C   UNL     1      -5.217  16.432  24.153  0.00  0.00    +0.000 C 
ATOM     21  F   UNL     1      -5.426  17.027  22.944  0.00  0.00    +0.000 F 
ATOM     22  F   UNL     1      -6.152  15.449  24.253  0.00  0.00    +0.000 F 
ATOM     23  F   UNL     1      -5.555  17.369  25.084  0.00  0.00    +0.000 F 
ENDBRANCH  18  20
ENDBRANCH   5  14
BRANCH  13  24
ATOM     24  C   UNL     1      -0.889  11.322  19.575  0.00  0.00    +0.000 A 
ATOM     25  C   UNL     1      -2.041  12.065  19.213  0.00  0.00    +0.000 A 
ATOM     26  C   UNL     1      -2.770  11.783  18.049  0.00  0.00    +0.000 A 
ATOM     27  C   UNL     1      -2.368  10.758  17.203  0.00  0.00    +0.000 A 
ATOM     28  C   UNL     1      -1.229  10.019  17.535  0.00  0.00    +0.000 A 
ATOM     29  C   UNL     1      -0.492  10.261  18.721  0.00  0.00    +0.000 A 
BRANCH  29  30
ATOM     30  C   UNL     1       0.621   9.341  18.987  0.00  0.00    +0.000 A 
ATOM     31  C   UNL     1       1.143   8.678  20.080  0.00  0.00    +0.000 A 
ATOM     32  C   UNL     1       2.257   7.930  19.626  0.00  0.00    +0.000 A 
ATOM     33  C   UNL     1       2.373   8.202  18.287  0.00  0.00    +0.000 A 
ATOM     34  O   UNL     1       1.387   9.043  17.889  0.00  0.00    +0.000 OA
ENDBRANCH  29  30
BRANCH  27  35
ATOM     35  C   UNL     1      -3.116  10.446  16.015  0.00  0.00    +0.000 C 
ATOM     36  N   UNL     1      -3.711  10.199  15.055  0.00  0.00    +0.000 NA
ENDBRANCH  27  35
ENDBRANCH  13  24
TORSDOF 5
ENDMDL
MODEL 5
REMARK VINA RESULT:      -7.7      4.454      8.525
REMARK  Name = 
REMARK  6 active torsions:
REMARK  status: ('A' for Active; 'I' for Inactive)
REMARK    1  A    between atoms: C_1  and  N_2
REMARK    2  A    between atoms: N_5  and  C_6
REMARK    3  A    between atoms: C_10  and  C_11
REMARK    4  A    between atoms: C_23  and  C_24
REMARK    5  A    between atoms: C_27  and  C_28
REMARK    6  A    between atoms: C_31  and  C_32
REMARK                            x       y       z     vdW  Elec       q    Type
REMARK                         _______ _______ _______ _____ _____    ______ ____
ROOT
ATOM      1  C   UNL     1      -0.542  10.065  22.400  0.00  0.00    +0.000 C 
ATOM      2  N   UNL     1      -0.823  11.346  21.775  0.00  0.00    +0.000 N 
ATOM      3  C   UNL     1      -1.629  12.235  22.459  0.00  0.00    +0.000 C 
ATOM      4  O   UNL     1      -2.497  11.831  23.236  0.00  0.00    +0.000 OA
ATOM      5  N   UNL     1      -1.319  13.607  22.292  0.00  0.00    +0.000 N 
ATOM      6  C   UNL     1      -0.325  14.043  21.385  0.00  0.00    +0.000 C 
ATOM      7  C   UNL     1       0.275  13.146  20.582  0.00  0.00    +0.000 C 
ATOM      8  C   UNL     1       1.404  13.523  19.695  0.00  0.00    +0.000 C 
ATOM      9  O   UNL     1       1.986  12.661  19.037  0.00  0.00    +0.000 OA
ATOM     10  C   UNL     1       1.878  14.943  19.598  0.00  0.00    +0.000 C 
ATOM     11  C   UNL     1       1.138  15.978  20.415  0.00  0.00    +0.000 C 
ATOM     12  C   UNL     1       0.054  15.503  21.378  0.00  0.00    +0.000 C 
ATOM     13  C   UNL     1      -0.092  11.687  20.560  0.00  0.00    +0.000 C 
ENDROOT
BRANCH   5  14
ATOM     14  C   UNL     1      -1.867  14.471  23.313  0.00  0.00    +0.000 A 
ATOM     15  C   UNL     1      -3.190  14.913  23.270  0.00  0.00    +0.000 A 
ATOM     16  C   UNL     1      -3.691  15.745  24.278  0.00  0.00    +0.000 A 
ATOM     17  C   UNL     1      -2.867  16.166  25.324  0.00  0.00    +0.000 A 
ATOM     18  C   UNL     1      -1.530  15.753  25.380  0.00  0.00    +0.000 A 
ATOM     19  C   UNL     1      -1.050  14.881  24.385  0.00  0.00    +0.000 A 
BRANCH  18  20
ATOM     20  C   UNL     1      -0.602  16.260  26.460  0.00  0.00    +0.000 C 
ATOM     21  F   UNL     1      -0.254  15.305  27.370  0.00  0.00    +0.000 F 
ATOM     22  F   UNL     1       0.567  16.758  25.974  0.00  0.00    +0.000 F 
ATOM     23  F   UNL     1      -1.167  17.267  27.184  0.00  0.00    +0.000 F 
ENDBRANCH  18  20
ENDBRANCH   5  14
BRANCH  13  24
ATOM     24  C   UNL     1      -0.859  11.272  19.291  0.00  0.00    +0.000 A 
ATOM     25  C   UNL     1      -2.063  11.954  18.983  0.00  0.00    +0.000 A 
ATOM     26  C   UNL     1      -2.828  11.634  17.852  0.00  0.00    +0.000 A 
ATOM     27  C   UNL     1      -2.412  10.631  16.987  0.00  0.00    +0.000 A 
ATOM     28  C   UNL     1      -1.222   9.953  17.265  0.00  0.00    +0.000 A 
ATOM     29  C   UNL     1      -0.446  10.233  18.418  0.00  0.00    +0.000 A 
BRANCH  29  30
ATOM     30  C   UNL     1       0.724   9.372  18.631  0.00  0.00    +0.000 A 
ATOM     31  C   UNL     1       1.255   8.629  19.667  0.00  0.00    +0.000 A 
ATOM     32  C   UNL     1       2.439   8.021  19.185  0.00  0.00    +0.000 A 
ATOM     33  C   UNL     1       2.583   8.449  17.890  0.00  0.00    +0.000 A 
ATOM     34  O   UNL     1       1.551   9.256  17.543  0.00  0.00    +0.000 OA
ENDBRANCH  29  30
BRANCH  27  35
ATOM     35  C   UNL     1      -3.196  10.282  15.832  0.00  0.00    +0.000 C 
ATOM     36  N   UNL     1      -3.820  10.006  14.900  0.00  0.00    +0.000 NA
ENDBRANCH  27  35
ENDBRANCH  13  24
TORSDOF 5
ENDMDL
MODEL 6
REMARK VINA RESULT:      -7.5      5.266      8.335
REMARK  Name = 
REMARK  6 active torsions:
REMARK  status: ('A' for Active; 'I' for Inactive)
REMARK    1  A    between atoms: C_1  and  N_2
REMARK    2  A    between atoms: N_5  and  C_6
REMARK    3  A    between atoms: C_10  and  C_11
REMARK    4  A    between atoms: C_23  and  C_24
REMARK    5  A    between atoms: C_27  and  C_28
REMARK    6  A    between atoms: C_31  and  C_32
REMARK                            x       y       z     vdW  Elec       q    Type
REMARK                         _______ _______ _______ _____ _____    ______ ____
ROOT
ATOM      1  C   UNL     1      -1.815   9.747  18.267  0.00  0.00    +0.000 C 
ATOM      2  N   UNL     1      -2.013  11.023  18.934  0.00  0.00    +0.000 N 
ATOM      3  C   UNL     1      -3.171  11.723  18.657  0.00  0.00    +0.000 C 
ATOM      4  O   UNL     1      -3.728  11.613  17.563  0.00  0.00    +0.000 OA
ATOM      5  N   UNL     1      -3.716  12.468  19.731  0.00  0.00    +0.000 N 
ATOM      6  C   UNL     1      -3.050  12.584  20.973  0.00  0.00    +0.000 C 
ATOM      7  C   UNL     1      -1.818  12.063  21.113  0.00  0.00    +0.000 C 
ATOM      8  C   UNL     1      -1.117  12.052  22.422  0.00  0.00    +0.000 C 
ATOM      9  O   UNL     1      -0.027  11.491  22.533  0.00  0.00    +0.000 OA
ATOM     10  C   UNL     1      -1.723  12.692  23.635  0.00  0.00    +0.000 C 
ATOM     11  C   UNL     1      -3.060  13.377  23.463  0.00  0.00    +0.000 C 
ATOM     12  C   UNL     1      -3.765  13.262  22.115  0.00  0.00    +0.000 C 
ATOM     13  C   UNL     1      -1.076  11.393  19.988  0.00  0.00    +0.000 C 
ENDROOT
BRANCH   5  14
ATOM     14  C   UNL     1      -5.106  12.828  19.562  0.00  0.00    +0.000 A 
ATOM     15  C   UNL     1      -6.131  11.893  19.719  0.00  0.00    +0.000 A 
ATOM     16  C   UNL     1      -7.468  12.276  19.553  0.00  0.00    +0.000 A 
ATOM     17  C   UNL     1      -7.791  13.588  19.201  0.00  0.00    +0.000 A 
ATOM     18  C   UNL     1      -6.780  14.540  19.019  0.00  0.00    +0.000 A 
ATOM     19  C   UNL     1      -5.443  14.155  19.232  0.00  0.00    +0.000 A 
BRANCH  18  20
ATOM     20  C   UNL     1      -7.104  15.944  18.563  0.00  0.00    +0.000 C 
ATOM     21  F   UNL     1      -7.757  16.684  19.504  0.00  0.00    +0.000 F 
ATOM     22  F   UNL     1      -6.004  16.664  18.216  0.00  0.00    +0.000 F 
ATOM     23  F   UNL     1      -7.916  15.948  17.468  0.00  0.00    +0.000 F 
ENDBRANCH  18  20
ENDBRANCH   5  14
BRANCH  13  24
ATOM     24  C   UNL     1       0.096  12.232  19.447  0.00  0.00    +0.000 A 
ATOM     25  C   UNL     1      -0.032  13.644  19.455  0.00  0.00    +0.000 A 
ATOM     26  C   UNL     1       0.984  14.484  18.973  0.00  0.00    +0.000 A 
ATOM     27  C   UNL     1       2.162  13.942  18.478  0.00  0.00    +0.000 A 
ATOM     28  C   UNL     1       2.314  12.553  18.472  0.00  0.00    +0.000 A 
ATOM     29  C   UNL     1       1.292  11.680  18.921  0.00  0.00    +0.000 A 
BRANCH  29  30
ATOM     30  C   UNL     1       1.554  10.244  18.761  0.00  0.00    +0.000 A 
ATOM     31  C   UNL     1       1.863   9.385  17.725  0.00  0.00    +0.000 A 
ATOM     32  C   UNL     1       1.986   8.087  18.278  0.00  0.00    +0.000 A 
ATOM     33  C   UNL     1       1.715   8.219  19.616  0.00  0.00    +0.000 A 
ATOM     34  O   UNL     1       1.463   9.517  19.919  0.00  0.00    +0.000 OA
ENDBRANCH  29  30
BRANCH  27  35
ATOM     35  C   UNL     1       3.205  14.790  17.965  0.00  0.00    +0.000 C 
ATOM     36  N   UNL     1       4.037  15.480  17.556  0.00  0.00    +0.000 NA
ENDBRANCH  27  35
ENDBRANCH  13  24
TORSDOF 5
ENDMDL
MODEL 7
REMARK VINA RESULT:      -7.4      1.576      2.023
REMARK  Name = 
REMARK  6 active torsions:
REMARK  status: ('A' for Active; 'I' for Inactive)
REMARK    1  A    between atoms: C_1  and  N_2
REMARK    2  A    between atoms: N_5  and  C_6
REMARK    3  A    between atoms: C_10  and  C_11
REMARK    4  A    between atoms: C_23  and  C_24
REMARK    5  A    between atoms: C_27  and  C_28
REMARK    6  A    between atoms: C_31  and  C_32
REMARK                            x       y       z     vdW  Elec       q    Type
REMARK                         _______ _______ _______ _____ _____    ______ ____
ROOT
ATOM      1  C   UNL     1      -0.413  10.019  23.495  0.00  0.00    +0.000 C 
ATOM      2  N   UNL     1       0.063  10.231  22.138  0.00  0.00    +0.000 N 
ATOM      3  C   UNL     1       1.006   9.353  21.640  0.00  0.00    +0.000 C 
ATOM      4  O   UNL     1       1.805   8.791  22.393  0.00  0.00    +0.000 OA
ATOM      5  N   UNL     1       0.917   9.068  20.256  0.00  0.00    +0.000 N 
ATOM      6  C   UNL     1      -0.004   9.735  19.414  0.00  0.00    +0.000 C 
ATOM      7  C   UNL     1      -0.745  10.740  19.912  0.00  0.00    +0.000 C 
ATOM      8  C   UNL     1      -1.807  11.400  19.112  0.00  0.00    +0.000 C 
ATOM      9  O   UNL     1      -2.525  12.258  19.626  0.00  0.00    +0.000 OA
ATOM     10  C   UNL     1      -2.050  11.023  17.681  0.00  0.00    +0.000 C 
ATOM     11  C   UNL     1      -1.149   9.970  17.078  0.00  0.00    +0.000 C 
ATOM     12  C   UNL     1      -0.146   9.267  17.987  0.00  0.00    +0.000 C 
ATOM     13  C   UNL     1      -0.615  11.235  21.327  0.00  0.00    +0.000 C 
ENDROOT
BRANCH   5  14
ATOM     14  C   UNL     1       1.603   7.862  19.850  0.00  0.00    +0.000 A 
ATOM     15  C   UNL     1       1.430   6.654  20.529  0.00  0.00    +0.000 A 
ATOM     16  C   UNL     1       2.106   5.503  20.106  0.00  0.00    +0.000 A 
ATOM     17  C   UNL     1       2.983   5.554  19.021  0.00  0.00    +0.000 A 
ATOM     18  C   UNL     1       3.189   6.758  18.335  0.00  0.00    +0.000 A 
ATOM     19  C   UNL     1       2.470   7.898  18.741  0.00  0.00    +0.000 A 
BRANCH  18  20
ATOM     20  C   UNL     1       4.192   6.852  17.209  0.00  0.00    +0.000 C 
ATOM     21  F   UNL     1       4.435   5.658  16.597  0.00  0.00    +0.000 F 
ATOM     22  F   UNL     1       3.814   7.708  16.222  0.00  0.00    +0.000 F 
ATOM     23  F   UNL     1       5.406   7.293  17.644  0.00  0.00    +0.000 F 
ENDBRANCH  18  20
ENDBRANCH   5  14
BRANCH  13  24
ATOM     24  C   UNL     1       0.065  12.613  21.430  0.00  0.00    +0.000 A 
ATOM     25  C   UNL     1       1.285  12.811  20.734  0.00  0.00    +0.000 A 
ATOM     26  C   UNL     1       1.975  14.031  20.780  0.00  0.00    +0.000 A 
ATOM     27  C   UNL     1       1.466  15.095  21.511  0.00  0.00    +0.000 A 
ATOM     28  C   UNL     1       0.259  14.926  22.196  0.00  0.00    +0.000 A 
ATOM     29  C   UNL     1      -0.443  13.695  22.194  0.00  0.00    +0.000 A 
BRANCH  29  30
ATOM     30  C   UNL     1      -1.642  13.636  23.039  0.00  0.00    +0.000 A 
ATOM     31  C   UNL     1      -2.807  12.896  23.088  0.00  0.00    +0.000 A 
ATOM     32  C   UNL     1      -3.558  13.368  24.191  0.00  0.00    +0.000 A 
ATOM     33  C   UNL     1      -2.826  14.390  24.738  0.00  0.00    +0.000 A 
ATOM     34  O   UNL     1      -1.665  14.554  24.058  0.00  0.00    +0.000 OA
ENDBRANCH  29  30
BRANCH  27  35
ATOM     35  C   UNL     1       2.173  16.346  21.581  0.00  0.00    +0.000 C 
ATOM     36  N   UNL     1       2.746  17.348  21.642  0.00  0.00    +0.000 NA
ENDBRANCH  27  35
ENDBRANCH  13  24
TORSDOF 5
ENDMDL
MODEL 8
REMARK VINA RESULT:      -7.3      1.782      2.235
REMARK  Name = 
REMARK  6 active torsions:
REMARK  status: ('A' for Active; 'I' for Inactive)
REMARK    1  A    between atoms: C_1  and  N_2
REMARK    2  A    between atoms: N_5  and  C_6
REMARK    3  A    between atoms: C_10  and  C_11
REMARK    4  A    between atoms: C_23  and  C_24
REMARK    5  A    between atoms: C_27  and  C_28
REMARK    6  A    between atoms: C_31  and  C_32
REMARK                            x       y       z     vdW  Elec       q    Type
REMARK                         _______ _______ _______ _____ _____    ______ ____
ROOT
ATOM      1  C   UNL     1      -0.652  11.089  23.095  0.00  0.00    +0.000 C 
ATOM      2  N   UNL     1      -0.220  11.041  21.709  0.00  0.00    +0.000 N 
ATOM      3  C   UNL     1       0.734  10.105  21.362  0.00  0.00    +0.000 C 
ATOM      4  O   UNL     1       1.570   9.722  22.184  0.00  0.00    +0.000 OA
ATOM      5  N   UNL     1       0.616   9.552  20.063  0.00  0.00    +0.000 N 
ATOM      6  C   UNL     1      -0.346  10.019  19.138  0.00  0.00    +0.000 C 
ATOM      7  C   UNL     1      -1.103  11.085  19.453  0.00  0.00    +0.000 C 
ATOM      8  C   UNL     1      -2.206  11.549  18.574  0.00  0.00    +0.000 C 
ATOM      9  O   UNL     1      -2.934  12.474  18.934  0.00  0.00    +0.000 OA
ATOM     10  C   UNL     1      -2.476  10.893  17.253  0.00  0.00    +0.000 C 
ATOM     11  C   UNL     1      -1.560   9.764  16.839  0.00  0.00    +0.000 C 
ATOM     12  C   UNL     1      -0.513   9.277  17.835  0.00  0.00    +0.000 C 
ATOM     13  C   UNL     1      -0.950  11.850  20.739  0.00  0.00    +0.000 C 
ENDROOT
BRANCH   5  14
ATOM     14  C   UNL     1       1.327   8.307  19.879  0.00  0.00    +0.000 A 
ATOM     15  C   UNL     1       1.179   7.239  20.765  0.00  0.00    +0.000 A 
ATOM     16  C   UNL     1       1.878   6.044  20.555  0.00  0.00    +0.000 A 
ATOM     17  C   UNL     1       2.753   5.915  19.475  0.00  0.00    +0.000 A 
ATOM     18  C   UNL     1       2.934   6.980  18.582  0.00  0.00    +0.000 A 
ATOM     19  C   UNL     1       2.193   8.160  18.778  0.00  0.00    +0.000 A 
BRANCH  18  20
ATOM     20  C   UNL     1       3.935   6.888  17.453  0.00  0.00    +0.000 C 
ATOM     21  F   UNL     1       5.217   7.141  17.842  0.00  0.00    +0.000 F 
ATOM     22  F   UNL     1       3.959   5.669  16.853  0.00  0.00    +0.000 F 
ATOM     23  F   UNL     1       3.669   7.789  16.464  0.00  0.00    +0.000 F 
ENDBRANCH  18  20
ENDBRANCH   5  14
BRANCH  13  24
ATOM     24  C   UNL     1      -0.308  13.237  20.549  0.00  0.00    +0.000 A 
ATOM     25  C   UNL     1       0.749  13.363  19.612  0.00  0.00    +0.000 A 
ATOM     26  C   UNL     1       1.395  14.587  19.382  0.00  0.00    +0.000 A 
ATOM     27  C   UNL     1       1.000  15.726  20.070  0.00  0.00    +0.000 A 
ATOM     28  C   UNL     1      -0.047  15.627  20.990  0.00  0.00    +0.000 A 
ATOM     29  C   UNL     1      -0.695  14.398  21.267  0.00  0.00    +0.000 A 
BRANCH  29  30
ATOM     30  C   UNL     1      -1.708  14.428  22.330  0.00  0.00    +0.000 A 
ATOM     31  C   UNL     1      -3.083  14.341  22.416  0.00  0.00    +0.000 A 
ATOM     32  C   UNL     1      -3.427  14.448  23.786  0.00  0.00    +0.000 A 
ATOM     33  C   UNL     1      -2.245  14.626  24.458  0.00  0.00    +0.000 A 
ATOM     34  O   UNL     1      -1.202  14.606  23.592  0.00  0.00    +0.000 OA
ENDBRANCH  29  30
BRANCH  27  35
ATOM     35  C   UNL     1       1.665  16.983  19.857  0.00  0.00    +0.000 C 
ATOM     36  N   UNL     1       2.194  17.995  19.678  0.00  0.00    +0.000 NA
ENDBRANCH  27  35
ENDBRANCH  13  24
TORSDOF 5
ENDMDL
MODEL 9
REMARK VINA RESULT:      -7.3      2.268      2.651
REMARK  Name = 
REMARK  6 active torsions:
REMARK  status: ('A' for Active; 'I' for Inactive)
REMARK    1  A    between atoms: C_1  and  N_2
REMARK    2  A    between atoms: N_5  and  C_6
REMARK    3  A    between atoms: C_10  and  C_11
REMARK    4  A    between atoms: C_23  and  C_24
REMARK    5  A    between atoms: C_27  and  C_28
REMARK    6  A    between atoms: C_31  and  C_32
REMARK                            x       y       z     vdW  Elec       q    Type
REMARK                         _______ _______ _______ _____ _____    ______ ____
ROOT
ATOM      1  C   UNL     1      -0.876  11.903  22.827  0.00  0.00    +0.000 C 
ATOM      2  N   UNL     1      -0.519  11.688  21.435  0.00  0.00    +0.000 N 
ATOM      3  C   UNL     1       0.454  10.748  21.156  0.00  0.00    +0.000 C 
ATOM      4  O   UNL     1       1.349  10.507  21.969  0.00  0.00    +0.000 OA
ATOM      5  N   UNL     1       0.288  10.024  19.950  0.00  0.00    +0.000 N 
ATOM      6  C   UNL     1      -0.743  10.330  19.032  0.00  0.00    +0.000 C 
ATOM      7  C   UNL     1      -1.526  11.401  19.250  0.00  0.00    +0.000 C 
ATOM      8  C   UNL     1      -2.694  11.705  18.386  0.00  0.00    +0.000 C 
ATOM      9  O   UNL     1      -3.440  12.643  18.666  0.00  0.00    +0.000 OA
ATOM     10  C   UNL     1      -3.008  10.871  17.180  0.00  0.00    +0.000 C 
ATOM     11  C   UNL     1      -2.069   9.730  16.862  0.00  0.00    +0.000 C 
ATOM     12  C   UNL     1      -0.949   9.417  17.849  0.00  0.00    +0.000 C 
ATOM     13  C   UNL     1      -1.335  12.335  20.414  0.00  0.00    +0.000 C 
ENDROOT
BRANCH   5  14
ATOM     14  C   UNL     1       1.040   8.792  19.887  0.00  0.00    +0.000 A 
ATOM     15  C   UNL     1       0.949   7.823  20.889  0.00  0.00    +0.000 A 
ATOM     16  C   UNL     1       1.687   6.637  20.794  0.00  0.00    +0.000 A 
ATOM     17  C   UNL     1       2.545   6.420  19.715  0.00  0.00    +0.000 A 
ATOM     18  C   UNL     1       2.669   7.384  18.706  0.00  0.00    +0.000 A 
ATOM     19  C   UNL     1       1.889   8.553  18.789  0.00  0.00    +0.000 A 
BRANCH  18  20
ATOM     20  C   UNL     1       3.650   7.203  17.570  0.00  0.00    +0.000 C 
ATOM     21  F   UNL     1       3.351   7.952  16.471  0.00  0.00    +0.000 F 
ATOM     22  F   UNL     1       4.928   7.524  17.907  0.00  0.00    +0.000 F 
ATOM     23  F   UNL     1       3.689   5.912  17.133  0.00  0.00    +0.000 F 
ENDBRANCH  18  20
ENDBRANCH   5  14
BRANCH  13  24
ATOM     24  C   UNL     1      -0.765  13.706  20.006  0.00  0.00    +0.000 A 
ATOM     25  C   UNL     1       0.387  13.733  19.180  0.00  0.00    +0.000 A 
ATOM     26  C   UNL     1       0.977  14.938  18.768  0.00  0.00    +0.000 A 
ATOM     27  C   UNL     1       0.431  16.153  19.158  0.00  0.00    +0.000 A 
ATOM     28  C   UNL     1      -0.711  16.150  19.964  0.00  0.00    +0.000 A 
ATOM     29  C   UNL     1      -1.309  14.949  20.422  0.00  0.00    +0.000 A 
BRANCH  29  30
ATOM     30  C   UNL     1      -2.442  15.103  21.343  0.00  0.00    +0.000 A 
ATOM     31  C   UNL     1      -3.795  14.828  21.333  0.00  0.00    +0.000 A 
ATOM     32  C   UNL     1      -4.317  15.242  22.583  0.00  0.00    +0.000 A 
ATOM     33  C   UNL     1      -3.261  15.776  23.275  0.00  0.00    +0.000 A 
ATOM     34  O   UNL     1      -2.124  15.689  22.542  0.00  0.00    +0.000 OA
ENDBRANCH  29  30
BRANCH  27  35
ATOM     35  C   UNL     1       1.035  17.395  18.757  0.00  0.00    +0.000 C 
ATOM     36  N   UNL     1       1.516  18.398  18.442  0.00  0.00    +0.000 NA
ENDBRANCH  27  35
ENDBRANCH  13  24
TORSDOF 5
ENDMDL
