MODEL 1
REMARK VINA RESULT:      -6.5      0.000      0.000
REMARK  Name = 
REMARK  15 active torsions:
REMARK  status: ('A' for Active; 'I' for Inactive)
REMARK    1  A    between atoms: C_1  and  C_2
REMARK    2  A    between atoms: C_2  and  C_3
REMARK    3  A    between atoms: C_3  and  N_4
REMARK    4  A    between atoms: N_4  and  C_5
REMARK    5  A    between atoms: N_4  and  C_8
REMARK    6  A    between atoms: C_5  and  C_6
REMARK    7  A    between atoms: C_6  and  C_7
REMARK    8  A    between atoms: C_8  and  C_9
REMARK    9  A    between atoms: C_9  and  N_10
REMARK   10  A    between atoms: C_11  and  C_13
REMARK   11  A    between atoms: N_15  and  C_16
REMARK   12  A    between atoms: C_16  and  C_17
REMARK   13  A    between atoms: C_17  and  C_18
REMARK   14  A    between atoms: C_17  and  C_19
REMARK   15  A    between atoms: N_30  and  C_31
REMARK                            x       y       z     vdW  Elec       q    Type
REMARK                         _______ _______ _______ _____ _____    ______ ____
ROOT
ATOM      1  C   UNL     1      -1.218  11.360  20.391  0.00  0.00    +0.000 A 
ATOM      2  C   UNL     1      -1.267  11.894  21.636  0.00  0.00    +0.000 A 
ATOM      3  N   UNL     1      -2.350  12.655  22.090  0.00  0.00    +0.000 N 
ATOM      4  C   UNL     1      -3.472  12.887  21.281  0.00  0.00    +0.000 A 
ATOM      5  O   UNL     1      -4.433  13.567  21.658  0.00  0.00    +0.000 OA
ATOM      6  C   UNL     1      -3.411  12.279  19.972  0.00  0.00    +0.000 A 
ATOM      7  C   UNL     1      -2.321  11.552  19.509  0.00  0.00    +0.000 A 
ATOM      8  C   UNL     1      -2.602  11.126  18.184  0.00  0.00    +0.000 A 
ATOM      9  C   UNL     1      -1.914  10.381  17.204  0.00  0.00    +0.000 A 
ATOM     10  C   UNL     1      -2.494  10.108  15.970  0.00  0.00    +0.000 A 
ATOM     11  C   UNL     1      -3.772  10.560  15.695  0.00  0.00    +0.000 A 
ATOM     12  C   UNL     1      -4.492  11.302  16.636  0.00  0.00    +0.000 A 
ATOM     13  C   UNL     1      -3.893  11.583  17.875  0.00  0.00    +0.000 A 
ATOM     14  N   UNL     1      -4.354  12.281  18.978  0.00  0.00    +0.000 N 
ATOM     15  C   UNL     1      -5.661  12.902  19.098  0.00  0.00    +0.000 C 
ENDROOT
BRANCH   1  17
ATOM     16  N   UNL     1       0.291   9.429  20.430  0.00  0.00    +0.000 N 
ATOM     17  C   UNL     1       0.084  10.719  19.984  0.00  0.00    +0.000 C 
ATOM     18  O   UNL     1       0.926  11.286  19.333  0.00  0.00    +0.000 OA
ATOM     19  H   UNL     1      -0.500   8.872  20.728  0.00  0.00    +0.000 HD
BRANCH  16  20
ATOM     20  C   UNL     1       1.513   8.738  20.090  0.00  0.00    +0.000 C 
BRANCH  20  21
ATOM     21  C   UNL     1       1.560   7.266  20.569  0.00  0.00    +0.000 C 
BRANCH  21  22
ATOM     22  N   UNL     1       2.539   6.389  19.867  0.00  0.00    +0.000 NA
BRANCH  22  23
ATOM     23  C   UNL     1       2.032   4.994  19.879  0.00  0.00    +0.000 C 
BRANCH  23  25
ATOM     24  C   UNL     1       1.336   2.927  21.258  0.00  0.00    +0.000 C 
ATOM     25  C   UNL     1       2.146   4.209  21.202  0.00  0.00    +0.000 C 
ENDBRANCH  23  25
ENDBRANCH  22  23
BRANCH  22  26
ATOM     26  C   UNL     1       2.881   6.899  18.524  0.00  0.00    +0.000 C 
BRANCH  26  27
ATOM     27  C   UNL     1       3.707   5.962  17.628  0.00  0.00    +0.000 C 
ATOM     28  C   UNL     1       4.768   6.696  16.825  0.00  0.00    +0.000 C 
ENDBRANCH  26  27
ENDBRANCH  22  26
ENDBRANCH  21  22
ENDBRANCH  20  21
ENDBRANCH  16  20
ENDBRANCH   1  17
BRANCH   3  29
ATOM     29  C   UNL     1      -2.267  13.357  23.378  0.00  0.00    +0.000 C 
BRANCH  29  30
ATOM     30  C   UNL     1      -1.164  14.431  23.501  0.00  0.00    +0.000 C 
ATOM     31  C   UNL     1      -1.181  15.444  22.352  0.00  0.00    +0.000 C 
ATOM     32  C   UNL     1      -1.266  15.180  24.828  0.00  0.00    +0.000 C 
ENDBRANCH  29  30
ENDBRANCH   3  29
TORSDOF 10
ENDMDL
MODEL 2
REMARK VINA RESULT:      -6.5      3.199      9.880
REMARK  Name = 
REMARK  15 active torsions:
REMARK  status: ('A' for Active; 'I' for Inactive)
REMARK    1  A    between atoms: C_1  and  C_2
REMARK    2  A    between atoms: C_2  and  C_3
REMARK    3  A    between atoms: C_3  and  N_4
REMARK    4  A    between atoms: N_4  and  C_5
REMARK    5  A    between atoms: N_4  and  C_8
REMARK    6  A    between atoms: C_5  and  C_6
REMARK    7  A    between atoms: C_6  and  C_7
REMARK    8  A    between atoms: C_8  and  C_9
REMARK    9  A    between atoms: C_9  and  N_10
REMARK   10  A    between atoms: C_11  and  C_13
REMARK   11  A    between atoms: N_15  and  C_16
REMARK   12  A    between atoms: C_16  and  C_17
REMARK   13  A    between atoms: C_17  and  C_18
REMARK   14  A    between atoms: C_17  and  C_19
REMARK   15  A    between atoms: N_30  and  C_31
REMARK                            x       y       z     vdW  Elec       q    Type
REMARK                         _______ _______ _______ _____ _____    ______ ____
ROOT
ATOM      1  C   UNL     1       3.464   6.569  18.125  0.00  0.00    +0.000 A 
ATOM      2  C   UNL     1       4.542   7.038  17.450  0.00  0.00    +0.000 A 
ATOM      3  N   UNL     1       5.521   6.197  16.909  0.00  0.00    +0.000 N 
ATOM      4  C   UNL     1       5.424   4.802  17.012  0.00  0.00    +0.000 A 
ATOM      5  O   UNL     1       6.284   4.041  16.552  0.00  0.00    +0.000 OA
ATOM      6  C   UNL     1       4.250   4.325  17.705  0.00  0.00    +0.000 A 
ATOM      7  C   UNL     1       3.296   5.161  18.272  0.00  0.00    +0.000 A 
ATOM      8  C   UNL     1       2.301   4.352  18.882  0.00  0.00    +0.000 A 
ATOM      9  C   UNL     1       1.114   4.596  19.602  0.00  0.00    +0.000 A 
ATOM     10  C   UNL     1       0.323   3.548  20.061  0.00  0.00    +0.000 A 
ATOM     11  C   UNL     1       0.694   2.242  19.800  0.00  0.00    +0.000 A 
ATOM     12  C   UNL     1       1.862   1.951  19.090  0.00  0.00    +0.000 A 
ATOM     13  C   UNL     1       2.660   3.016  18.640  0.00  0.00    +0.000 A 
ATOM     14  N   UNL     1       3.847   3.035  17.928  0.00  0.00    +0.000 N 
ATOM     15  C   UNL     1       4.560   1.865  17.446  0.00  0.00    +0.000 C 
ENDROOT
BRANCH   1  17
ATOM     16  N   UNL     1       2.193   8.661  18.020  0.00  0.00    +0.000 N 
ATOM     17  C   UNL     1       2.594   7.597  18.802  0.00  0.00    +0.000 C 
ATOM     18  O   UNL     1       2.275   7.533  19.963  0.00  0.00    +0.000 OA
ATOM     19  H   UNL     1       2.224   8.579  17.012  0.00  0.00    +0.000 HD
BRANCH  16  20
ATOM     20  C   UNL     1       1.359   9.695  18.588  0.00  0.00    +0.000 C 
BRANCH  20  21
ATOM     21  C   UNL     1      -0.080   9.732  18.015  0.00  0.00    +0.000 C 
BRANCH  21  22
ATOM     22  N   UNL     1      -1.013  10.690  18.672  0.00  0.00    +0.000 NA
BRANCH  22  23
ATOM     23  C   UNL     1      -0.244  11.876  19.129  0.00  0.00    +0.000 C 
BRANCH  23  25
ATOM     24  C   UNL     1      -0.419  14.450  19.147  0.00  0.00    +0.000 C 
ATOM     25  C   UNL     1      -0.403  13.178  18.318  0.00  0.00    +0.000 C 
ENDBRANCH  23  25
ENDBRANCH  22  23
BRANCH  22  26
ATOM     26  C   UNL     1      -2.175  11.012  17.818  0.00  0.00    +0.000 C 
BRANCH  26  27
ATOM     27  C   UNL     1      -2.390  10.114  16.590  0.00  0.00    +0.000 C 
ATOM     28  C   UNL     1      -3.016  10.854  15.420  0.00  0.00    +0.000 C 
ENDBRANCH  26  27
ENDBRANCH  22  26
ENDBRANCH  21  22
ENDBRANCH  20  21
ENDBRANCH  16  20
ENDBRANCH   1  17
BRANCH   3  29
ATOM     29  C   UNL     1       6.753   6.767  16.350  0.00  0.00    +0.000 C 
BRANCH  29  30
ATOM     30  C   UNL     1       7.824   7.213  17.369  0.00  0.00    +0.000 C 
ATOM     31  C   UNL     1       7.754   8.707  17.700  0.00  0.00    +0.000 C 
ATOM     32  C   UNL     1       7.725   6.410  18.665  0.00  0.00    +0.000 C 
ENDBRANCH  29  30
ENDBRANCH   3  29
TORSDOF 10
ENDMDL
MODEL 3
REMARK VINA RESULT:      -6.4      1.133      2.333
REMARK  Name = 
REMARK  15 active torsions:
REMARK  status: ('A' for Active; 'I' for Inactive)
REMARK    1  A    between atoms: C_1  and  C_2
REMARK    2  A    between atoms: C_2  and  C_3
REMARK    3  A    between atoms: C_3  and  N_4
REMARK    4  A    between atoms: N_4  and  C_5
REMARK    5  A    between atoms: N_4  and  C_8
REMARK    6  A    between atoms: C_5  and  C_6
REMARK    7  A    between atoms: C_6  and  C_7
REMARK    8  A    between atoms: C_8  and  C_9
REMARK    9  A    between atoms: C_9  and  N_10
REMARK   10  A    between atoms: C_11  and  C_13
REMARK   11  A    between atoms: N_15  and  C_16
REMARK   12  A    between atoms: C_16  and  C_17
REMARK   13  A    between atoms: C_17  and  C_18
REMARK   14  A    between atoms: C_17  and  C_19
REMARK   15  A    between atoms: N_30  and  C_31
REMARK                            x       y       z     vdW  Elec       q    Type
REMARK                         _______ _______ _______ _____ _____    ______ ____
ROOT
ATOM      1  C   UNL     1      -0.581  11.333  19.700  0.00  0.00    +0.000 A 
ATOM      2  C   UNL     1      -0.386  11.806  20.955  0.00  0.00    +0.000 A 
ATOM      3  N   UNL     1      -1.380  12.484  21.671  0.00  0.00    +0.000 N 
ATOM      4  C   UNL     1      -2.658  12.688  21.132  0.00  0.00    +0.000 A 
ATOM      5  O   UNL     1      -3.547  13.295  21.742  0.00  0.00    +0.000 OA
ATOM      6  C   UNL     1      -2.852  12.144  19.808  0.00  0.00    +0.000 A 
ATOM      7  C   UNL     1      -1.856  11.502  19.084  0.00  0.00    +0.000 A 
ATOM      8  C   UNL     1      -2.395  11.120  17.827  0.00  0.00    +0.000 A 
ATOM      9  C   UNL     1      -1.900  10.461  16.683  0.00  0.00    +0.000 A 
ATOM     10  C   UNL     1      -2.719  10.211  15.587  0.00  0.00    +0.000 A 
ATOM     11  C   UNL     1      -4.045  10.602  15.616  0.00  0.00    +0.000 A 
ATOM     12  C   UNL     1      -4.579  11.259  16.727  0.00  0.00    +0.000 A 
ATOM     13  C   UNL     1      -3.742  11.517  17.826  0.00  0.00    +0.000 A 
ATOM     14  N   UNL     1      -3.986  12.137  19.038  0.00  0.00    +0.000 N 
ATOM     15  C   UNL     1      -5.264  12.677  19.468  0.00  0.00    +0.000 C 
ENDROOT
BRANCH   1  17
ATOM     16  N   UNL     1       0.684   9.414  18.851  0.00  0.00    +0.000 N 
ATOM     17  C   UNL     1       0.631  10.785  18.991  0.00  0.00    +0.000 C 
ATOM     18  O   UNL     1       1.529  11.479  18.584  0.00  0.00    +0.000 OA
ATOM     19  H   UNL     1      -0.165   8.870  18.938  0.00  0.00    +0.000 HD
BRANCH  16  20
ATOM     20  C   UNL     1       1.812   8.802  18.187  0.00  0.00    +0.000 C 
BRANCH  20  21
ATOM     21  C   UNL     1       2.493   7.677  19.006  0.00  0.00    +0.000 C 
BRANCH  21  22
ATOM     22  N   UNL     1       2.880   6.461  18.236  0.00  0.00    +0.000 NA
BRANCH  22  23
ATOM     23  C   UNL     1       4.088   6.767  17.427  0.00  0.00    +0.000 C 
BRANCH  23  25
ATOM     24  C   UNL     1       6.163   5.854  16.195  0.00  0.00    +0.000 C 
ATOM     25  C   UNL     1       4.739   5.601  16.656  0.00  0.00    +0.000 C 
ENDBRANCH  23  25
ENDBRANCH  22  23
BRANCH  22  26
ATOM     26  C   UNL     1       3.014   5.272  19.100  0.00  0.00    +0.000 C 
BRANCH  26  27
ATOM     27  C   UNL     1       1.848   4.272  19.073  0.00  0.00    +0.000 C 
ATOM     28  C   UNL     1       1.805   3.449  17.796  0.00  0.00    +0.000 C 
ENDBRANCH  26  27
ENDBRANCH  22  26
ENDBRANCH  21  22
ENDBRANCH  20  21
ENDBRANCH  16  20
ENDBRANCH   1  17
BRANCH   3  29
ATOM     29  C   UNL     1      -1.054  13.130  22.948  0.00  0.00    +0.000 C 
BRANCH  29  30
ATOM     30  C   UNL     1      -0.888  14.665  22.915  0.00  0.00    +0.000 C 
ATOM     31  C   UNL     1      -1.081  15.320  24.286  0.00  0.00    +0.000 C 
ATOM     32  C   UNL     1       0.478  15.063  22.359  0.00  0.00    +0.000 C 
ENDBRANCH  29  30
ENDBRANCH   3  29
TORSDOF 10
ENDMDL
MODEL 4
REMARK VINA RESULT:      -6.3      2.867      9.842
REMARK  Name = 
REMARK  15 active torsions:
REMARK  status: ('A' for Active; 'I' for Inactive)
REMARK    1  A    between atoms: C_1  and  C_2
REMARK    2  A    between atoms: C_2  and  C_3
REMARK    3  A    between atoms: C_3  and  N_4
REMARK    4  A    between atoms: N_4  and  C_5
REMARK    5  A    between atoms: N_4  and  C_8
REMARK    6  A    between atoms: C_5  and  C_6
REMARK    7  A    between atoms: C_6  and  C_7
REMARK    8  A    between atoms: C_8  and  C_9
REMARK    9  A    between atoms: C_9  and  N_10
REMARK   10  A    between atoms: C_11  and  C_13
REMARK   11  A    between atoms: N_15  and  C_16
REMARK   12  A    between atoms: C_16  and  C_17
REMARK   13  A    between atoms: C_17  and  C_18
REMARK   14  A    between atoms: C_17  and  C_19
REMARK   15  A    between atoms: N_30  and  C_31
REMARK                            x       y       z     vdW  Elec       q    Type
REMARK                         _______ _______ _______ _____ _____    ______ ____
ROOT
ATOM      1  C   UNL     1       3.444   6.524  18.186  0.00  0.00    +0.000 A 
ATOM      2  C   UNL     1       4.509   7.013  17.504  0.00  0.00    +0.000 A 
ATOM      3  N   UNL     1       5.477   6.188  16.920  0.00  0.00    +0.000 N 
ATOM      4  C   UNL     1       5.381   4.790  16.984  0.00  0.00    +0.000 A 
ATOM      5  O   UNL     1       6.232   4.043  16.487  0.00  0.00    +0.000 OA
ATOM      6  C   UNL     1       4.220   4.294  17.686  0.00  0.00    +0.000 A 
ATOM      7  C   UNL     1       3.278   5.113  18.295  0.00  0.00    +0.000 A 
ATOM      8  C   UNL     1       2.295   4.286  18.900  0.00  0.00    +0.000 A 
ATOM      9  C   UNL     1       1.122   4.509  19.651  0.00  0.00    +0.000 A 
ATOM     10  C   UNL     1       0.340   3.449  20.094  0.00  0.00    +0.000 A 
ATOM     11  C   UNL     1       0.705   2.150  19.789  0.00  0.00    +0.000 A 
ATOM     12  C   UNL     1       1.858   1.881  19.048  0.00  0.00    +0.000 A 
ATOM     13  C   UNL     1       2.649   2.958  18.614  0.00  0.00    +0.000 A 
ATOM     14  N   UNL     1       3.821   2.997  17.880  0.00  0.00    +0.000 N 
ATOM     15  C   UNL     1       4.525   1.842  17.350  0.00  0.00    +0.000 C 
ENDROOT
BRANCH   1  17
ATOM     16  N   UNL     1       2.104   8.575  18.145  0.00  0.00    +0.000 N 
ATOM     17  C   UNL     1       2.587   7.532  18.908  0.00  0.00    +0.000 C 
ATOM     18  O   UNL     1       2.346   7.471  20.088  0.00  0.00    +0.000 OA
ATOM     19  H   UNL     1       2.073   8.483  17.138  0.00  0.00    +0.000 HD
BRANCH  16  20
ATOM     20  C   UNL     1       1.276   9.590  18.756  0.00  0.00    +0.000 C 
BRANCH  20  21
ATOM     21  C   UNL     1      -0.042   9.872  17.994  0.00  0.00    +0.000 C 
BRANCH  21  22
ATOM     22  N   UNL     1      -0.805  11.070  18.445  0.00  0.00    +0.000 NA
BRANCH  22  23
ATOM     23  C   UNL     1      -1.977  11.261  17.552  0.00  0.00    +0.000 C 
BRANCH  23  25
ATOM     24  C   UNL     1      -2.866  10.021  15.471  0.00  0.00    +0.000 C 
ATOM     25  C   UNL     1      -2.639   9.994  16.972  0.00  0.00    +0.000 C 
ENDBRANCH  23  25
ENDBRANCH  22  23
BRANCH  22  26
ATOM     26  C   UNL     1      -1.141  11.011  19.882  0.00  0.00    +0.000 C 
BRANCH  26  27
ATOM     27  C   UNL     1      -0.621  12.164  20.754  0.00  0.00    +0.000 C 
ATOM     28  C   UNL     1      -1.437  12.362  22.020  0.00  0.00    +0.000 C 
ENDBRANCH  26  27
ENDBRANCH  22  26
ENDBRANCH  21  22
ENDBRANCH  20  21
ENDBRANCH  16  20
ENDBRANCH   1  17
BRANCH   3  29
ATOM     29  C   UNL     1       6.698   6.774  16.353  0.00  0.00    +0.000 C 
BRANCH  29  30
ATOM     30  C   UNL     1       7.788   7.194  17.365  0.00  0.00    +0.000 C 
ATOM     31  C   UNL     1       7.722   8.678  17.737  0.00  0.00    +0.000 C 
ATOM     32  C   UNL     1       7.713   6.355  18.639  0.00  0.00    +0.000 C 
ENDBRANCH  29  30
ENDBRANCH   3  29
TORSDOF 10
ENDMDL
MODEL 5
REMARK VINA RESULT:      -6.3      1.019      2.407
REMARK  Name = 
REMARK  15 active torsions:
REMARK  status: ('A' for Active; 'I' for Inactive)
REMARK    1  A    between atoms: C_1  and  C_2
REMARK    2  A    between atoms: C_2  and  C_3
REMARK    3  A    between atoms: C_3  and  N_4
REMARK    4  A    between atoms: N_4  and  C_5
REMARK    5  A    between atoms: N_4  and  C_8
REMARK    6  A    between atoms: C_5  and  C_6
REMARK    7  A    between atoms: C_6  and  C_7
REMARK    8  A    between atoms: C_8  and  C_9
REMARK    9  A    between atoms: C_9  and  N_10
REMARK   10  A    between atoms: C_11  and  C_13
REMARK   11  A    between atoms: N_15  and  C_16
REMARK   12  A    between atoms: C_16  and  C_17
REMARK   13  A    between atoms: C_17  and  C_18
REMARK   14  A    between atoms: C_17  and  C_19
REMARK   15  A    between atoms: N_30  and  C_31
REMARK                            x       y       z     vdW  Elec       q    Type
REMARK                         _______ _______ _______ _____ _____    ______ ____
ROOT
ATOM      1  C   UNL     1      -1.496  11.837  20.390  0.00  0.00    +0.000 A 
ATOM      2  C   UNL     1      -1.721  12.576  21.504  0.00  0.00    +0.000 A 
ATOM      3  N   UNL     1      -2.896  13.312  21.698  0.00  0.00    +0.000 N 
ATOM      4  C   UNL     1      -3.930  13.303  20.751  0.00  0.00    +0.000 A 
ATOM      5  O   UNL     1      -4.970  13.956  20.897  0.00  0.00    +0.000 OA
ATOM      6  C   UNL     1      -3.680  12.482  19.589  0.00  0.00    +0.000 A 
ATOM      7  C   UNL     1      -2.500  11.778  19.380  0.00  0.00    +0.000 A 
ATOM      8  C   UNL     1      -2.599  11.103  18.135  0.00  0.00    +0.000 A 
ATOM      9  C   UNL     1      -1.757  10.258  17.384  0.00  0.00    +0.000 A 
ATOM     10  C   UNL     1      -2.173   9.724  16.169  0.00  0.00    +0.000 A 
ATOM     11  C   UNL     1      -3.437  10.012  15.688  0.00  0.00    +0.000 A 
ATOM     12  C   UNL     1      -4.307  10.845  16.398  0.00  0.00    +0.000 A 
ATOM     13  C   UNL     1      -3.873  11.389  17.619  0.00  0.00    +0.000 A 
ATOM     14  N   UNL     1      -4.501  12.229  18.522  0.00  0.00    +0.000 N 
ATOM     15  C   UNL     1      -5.850  12.750  18.392  0.00  0.00    +0.000 C 
ENDROOT
BRANCH   1  17
ATOM     16  N   UNL     1      -0.036   9.871  20.319  0.00  0.00    +0.000 N 
ATOM     17  C   UNL     1      -0.117  11.246  20.242  0.00  0.00    +0.000 C 
ATOM     18  O   UNL     1       0.877  11.913  20.094  0.00  0.00    +0.000 OA
ATOM     19  H   UNL     1      -0.867   9.313  20.168  0.00  0.00    +0.000 HD
BRANCH  16  20
ATOM     20  C   UNL     1       1.247   9.218  20.191  0.00  0.00    +0.000 C 
BRANCH  20  21
ATOM     21  C   UNL     1       1.588   8.773  18.747  0.00  0.00    +0.000 C 
BRANCH  21  22
ATOM     22  N   UNL     1       2.205   7.422  18.617  0.00  0.00    +0.000 NA
BRANCH  22  23
ATOM     23  C   UNL     1       3.464   7.541  17.838  0.00  0.00    +0.000 C 
BRANCH  23  25
ATOM     24  C   UNL     1       5.054   6.393  16.161  0.00  0.00    +0.000 C 
ATOM     25  C   UNL     1       4.119   6.234  17.346  0.00  0.00    +0.000 C 
ENDBRANCH  23  25
ENDBRANCH  22  23
BRANCH  22  26
ATOM     26  C   UNL     1       2.360   6.751  19.923  0.00  0.00    +0.000 C 
BRANCH  26  27
ATOM     27  C   UNL     1       1.642   5.403  20.088  0.00  0.00    +0.000 C 
ATOM     28  C   UNL     1       2.365   4.459  21.034  0.00  0.00    +0.000 C 
ENDBRANCH  26  27
ENDBRANCH  22  26
ENDBRANCH  21  22
ENDBRANCH  20  21
ENDBRANCH  16  20
ENDBRANCH   1  17
BRANCH   3  29
ATOM     29  C   UNL     1      -3.006  14.234  22.836  0.00  0.00    +0.000 C 
BRANCH  29  30
ATOM     30  C   UNL     1      -2.984  13.592  24.241  0.00  0.00    +0.000 C 
ATOM     31  C   UNL     1      -3.089  14.619  25.372  0.00  0.00    +0.000 C 
ATOM     32  C   UNL     1      -4.101  12.562  24.396  0.00  0.00    +0.000 C 
ENDBRANCH  29  30
ENDBRANCH   3  29
TORSDOF 10
ENDMDL
MODEL 6
REMARK VINA RESULT:      -6.2      1.065      1.167
REMARK  Name = 
REMARK  15 active torsions:
REMARK  status: ('A' for Active; 'I' for Inactive)
REMARK    1  A    between atoms: C_1  and  C_2
REMARK    2  A    between atoms: C_2  and  C_3
REMARK    3  A    between atoms: C_3  and  N_4
REMARK    4  A    between atoms: N_4  and  C_5
REMARK    5  A    between atoms: N_4  and  C_8
REMARK    6  A    between atoms: C_5  and  C_6
REMARK    7  A    between atoms: C_6  and  C_7
REMARK    8  A    between atoms: C_8  and  C_9
REMARK    9  A    between atoms: C_9  and  N_10
REMARK   10  A    between atoms: C_11  and  C_13
REMARK   11  A    between atoms: N_15  and  C_16
REMARK   12  A    between atoms: C_16  and  C_17
REMARK   13  A    between atoms: C_17  and  C_18
REMARK   14  A    between atoms: C_17  and  C_19
REMARK   15  A    between atoms: N_30  and  C_31
REMARK                            x       y       z     vdW  Elec       q    Type
REMARK                         _______ _______ _______ _____ _____    ______ ____
ROOT
ATOM      1  C   UNL     1      -0.714  10.814  19.858  0.00  0.00    +0.000 A 
ATOM      2  C   UNL     1      -0.561  11.307  21.112  0.00  0.00    +0.000 A 
ATOM      3  N   UNL     1      -1.502  12.153  21.712  0.00  0.00    +0.000 N 
ATOM      4  C   UNL     1      -2.683  12.517  21.051  0.00  0.00    +0.000 A 
ATOM      5  O   UNL     1      -3.521  13.273  21.558  0.00  0.00    +0.000 OA
ATOM      6  C   UNL     1      -2.839  11.952  19.731  0.00  0.00    +0.000 A 
ATOM      7  C   UNL     1      -1.890  11.140  19.122  0.00  0.00    +0.000 A 
ATOM      8  C   UNL     1      -2.368  10.788  17.832  0.00  0.00    +0.000 A 
ATOM      9  C   UNL     1      -1.878  10.015  16.759  0.00  0.00    +0.000 A 
ATOM     10  C   UNL     1      -2.625   9.841  15.599  0.00  0.00    +0.000 A 
ATOM     11  C   UNL     1      -3.876  10.422  15.493  0.00  0.00    +0.000 A 
ATOM     12  C   UNL     1      -4.402  11.196  16.530  0.00  0.00    +0.000 A 
ATOM     13  C   UNL     1      -3.635  11.376  17.694  0.00  0.00    +0.000 A 
ATOM     14  N   UNL     1      -3.889  12.077  18.860  0.00  0.00    +0.000 N 
ATOM     15  C   UNL     1      -5.105  12.816  19.152  0.00  0.00    +0.000 C 
ENDROOT
BRANCH   1  17
ATOM     16  N   UNL     1       0.910   8.985  20.012  0.00  0.00    +0.000 N 
ATOM     17  C   UNL     1       0.461  10.066  19.282  0.00  0.00    +0.000 C 
ATOM     18  O   UNL     1       1.012  10.387  18.259  0.00  0.00    +0.000 OA
ATOM     19  H   UNL     1       0.300   8.560  20.699  0.00  0.00    +0.000 HD
BRANCH  16  20
ATOM     20  C   UNL     1       2.034   8.212  19.536  0.00  0.00    +0.000 C 
BRANCH  20  21
ATOM     21  C   UNL     1       1.825   6.680  19.619  0.00  0.00    +0.000 C 
BRANCH  21  22
ATOM     22  N   UNL     1       3.050   5.875  19.888  0.00  0.00    +0.000 NA
BRANCH  22  23
ATOM     23  C   UNL     1       2.657   4.600  20.541  0.00  0.00    +0.000 C 
BRANCH  23  25
ATOM     24  C   UNL     1       0.916   3.006  19.499  0.00  0.00    +0.000 C 
ATOM     25  C   UNL     1       1.178   4.175  20.431  0.00  0.00    +0.000 C 
ENDBRANCH  23  25
ENDBRANCH  22  23
BRANCH  22  26
ATOM     26  C   UNL     1       3.884   5.706  18.681  0.00  0.00    +0.000 C 
BRANCH  26  27
ATOM     27  C   UNL     1       4.321   4.271  18.348  0.00  0.00    +0.000 C 
ATOM     28  C   UNL     1       3.764   3.775  17.024  0.00  0.00    +0.000 C 
ENDBRANCH  26  27
ENDBRANCH  22  26
ENDBRANCH  21  22
ENDBRANCH  20  21
ENDBRANCH  16  20
ENDBRANCH   1  17
BRANCH   3  29
ATOM     29  C   UNL     1      -1.196  12.799  22.994  0.00  0.00    +0.000 C 
BRANCH  29  30
ATOM     30  C   UNL     1      -0.509  14.180  22.918  0.00  0.00    +0.000 C 
ATOM     31  C   UNL     1      -0.136  14.587  21.490  0.00  0.00    +0.000 C 
ATOM     32  C   UNL     1      -1.384  15.269  23.536  0.00  0.00    +0.000 C 
ENDBRANCH  29  30
ENDBRANCH   3  29
TORSDOF 10
ENDMDL
MODEL 7
REMARK VINA RESULT:      -6.2      1.072      1.198
REMARK  Name = 
REMARK  15 active torsions:
REMARK  status: ('A' for Active; 'I' for Inactive)
REMARK    1  A    between atoms: C_1  and  C_2
REMARK    2  A    between atoms: C_2  and  C_3
REMARK    3  A    between atoms: C_3  and  N_4
REMARK    4  A    between atoms: N_4  and  C_5
REMARK    5  A    between atoms: N_4  and  C_8
REMARK    6  A    between atoms: C_5  and  C_6
REMARK    7  A    between atoms: C_6  and  C_7
REMARK    8  A    between atoms: C_8  and  C_9
REMARK    9  A    between atoms: C_9  and  N_10
REMARK   10  A    between atoms: C_11  and  C_13
REMARK   11  A    between atoms: N_15  and  C_16
REMARK   12  A    between atoms: C_16  and  C_17
REMARK   13  A    between atoms: C_17  and  C_18
REMARK   14  A    between atoms: C_17  and  C_19
REMARK   15  A    between atoms: N_30  and  C_31
REMARK                            x       y       z     vdW  Elec       q    Type
REMARK                         _______ _______ _______ _____ _____    ______ ____
ROOT
ATOM      1  C   UNL     1      -0.519  11.361  19.701  0.00  0.00    +0.000 A 
ATOM      2  C   UNL     1      -0.329  11.842  20.955  0.00  0.00    +0.000 A 
ATOM      3  N   UNL     1      -1.336  12.493  21.676  0.00  0.00    +0.000 N 
ATOM      4  C   UNL     1      -2.623  12.662  21.146  0.00  0.00    +0.000 A 
ATOM      5  O   UNL     1      -3.523  13.246  21.760  0.00  0.00    +0.000 OA
ATOM      6  C   UNL     1      -2.811  12.112  19.823  0.00  0.00    +0.000 A 
ATOM      7  C   UNL     1      -1.802  11.495  19.093  0.00  0.00    +0.000 A 
ATOM      8  C   UNL     1      -2.338  11.098  17.840  0.00  0.00    +0.000 A 
ATOM      9  C   UNL     1      -1.834  10.450  16.694  0.00  0.00    +0.000 A 
ATOM     10  C   UNL     1      -2.652  10.177  15.604  0.00  0.00    +0.000 A 
ATOM     11  C   UNL     1      -3.988  10.533  15.640  0.00  0.00    +0.000 A 
ATOM     12  C   UNL     1      -4.533  11.176  16.754  0.00  0.00    +0.000 A 
ATOM     13  C   UNL     1      -3.695  11.458  17.847  0.00  0.00    +0.000 A 
ATOM     14  N   UNL     1      -3.949  12.073  19.061  0.00  0.00    +0.000 N 
ATOM     15  C   UNL     1      -5.237  12.580  19.497  0.00  0.00    +0.000 C 
ENDROOT
BRANCH   1  17
ATOM     16  N   UNL     1       0.848   9.474  18.945  0.00  0.00    +0.000 N 
ATOM     17  C   UNL     1       0.702  10.845  18.986  0.00  0.00    +0.000 C 
ATOM     18  O   UNL     1       1.534  11.566  18.493  0.00  0.00    +0.000 OA
ATOM     19  H   UNL     1       0.043   8.882  19.106  0.00  0.00    +0.000 HD
BRANCH  16  20
ATOM     20  C   UNL     1       1.993   8.892  18.282  0.00  0.00    +0.000 C 
BRANCH  20  21
ATOM     21  C   UNL     1       1.972   7.344  18.230  0.00  0.00    +0.000 C 
BRANCH  21  22
ATOM     22  N   UNL     1       3.247   6.668  18.601  0.00  0.00    +0.000 NA
BRANCH  22  23
ATOM     23  C   UNL     1       2.934   5.356  19.223  0.00  0.00    +0.000 C 
BRANCH  23  25
ATOM     24  C   UNL     1       1.083   4.071  20.478  0.00  0.00    +0.000 C 
ATOM     25  C   UNL     1       1.904   5.343  20.371  0.00  0.00    +0.000 C 
ENDBRANCH  23  25
ENDBRANCH  22  23
BRANCH  22  26
ATOM     26  C   UNL     1       4.189   6.592  17.466  0.00  0.00    +0.000 C 
BRANCH  26  27
ATOM     27  C   UNL     1       4.642   5.185  17.047  0.00  0.00    +0.000 C 
ATOM     28  C   UNL     1       6.147   4.996  17.141  0.00  0.00    +0.000 C 
ENDBRANCH  26  27
ENDBRANCH  22  26
ENDBRANCH  21  22
ENDBRANCH  20  21
ENDBRANCH  16  20
ENDBRANCH   1  17
BRANCH   3  29
ATOM     29  C   UNL     1      -1.020  13.150  22.951  0.00  0.00    +0.000 C 
BRANCH  29  30
ATOM     30  C   UNL     1      -0.430  14.574  22.858  0.00  0.00    +0.000 C 
ATOM     31  C   UNL     1      -0.425  15.132  21.432  0.00  0.00    +0.000 C 
ATOM     32  C   UNL     1      -1.179  15.544  23.771  0.00  0.00    +0.000 C 
ENDBRANCH  29  30
ENDBRANCH   3  29
TORSDOF 10
ENDMDL
MODEL 8
REMARK VINA RESULT:      -6.2      0.799      1.148
REMARK  Name = 
REMARK  15 active torsions:
REMARK  status: ('A' for Active; 'I' for Inactive)
REMARK    1  A    between atoms: C_1  and  C_2
REMARK    2  A    between atoms: C_2  and  C_3
REMARK    3  A    between atoms: C_3  and  N_4
REMARK    4  A    between atoms: N_4  and  C_5
REMARK    5  A    between atoms: N_4  and  C_8
REMARK    6  A    between atoms: C_5  and  C_6
REMARK    7  A    between atoms: C_6  and  C_7
REMARK    8  A    between atoms: C_8  and  C_9
REMARK    9  A    between atoms: C_9  and  N_10
REMARK   10  A    between atoms: C_11  and  C_13
REMARK   11  A    between atoms: N_15  and  C_16
REMARK   12  A    between atoms: C_16  and  C_17
REMARK   13  A    between atoms: C_17  and  C_18
REMARK   14  A    between atoms: C_17  and  C_19
REMARK   15  A    between atoms: N_30  and  C_31
REMARK                            x       y       z     vdW  Elec       q    Type
REMARK                         _______ _______ _______ _____ _____    ______ ____
ROOT
ATOM      1  C   UNL     1      -1.125  11.371  20.185  0.00  0.00    +0.000 A 
ATOM      2  C   UNL     1      -1.140  11.992  21.390  0.00  0.00    +0.000 A 
ATOM      3  N   UNL     1      -2.193  12.817  21.802  0.00  0.00    +0.000 N 
ATOM      4  C   UNL     1      -3.319  13.026  20.992  0.00  0.00    +0.000 A 
ATOM      5  O   UNL     1      -4.254  13.761  21.332  0.00  0.00    +0.000 OA
ATOM      6  C   UNL     1      -3.295  12.326  19.728  0.00  0.00    +0.000 A 
ATOM      7  C   UNL     1      -2.234  11.534  19.305  0.00  0.00    +0.000 A 
ATOM      8  C   UNL     1      -2.547  11.025  18.017  0.00  0.00    +0.000 A 
ATOM      9  C   UNL     1      -1.896  10.192  17.084  0.00  0.00    +0.000 A 
ATOM     10  C   UNL     1      -2.501   9.851  15.879  0.00  0.00    +0.000 A 
ATOM     11  C   UNL     1      -3.768  10.323  15.589  0.00  0.00    +0.000 A 
ATOM     12  C   UNL     1      -4.452  11.151  16.483  0.00  0.00    +0.000 A 
ATOM     13  C   UNL     1      -3.828  11.499  17.692  0.00  0.00    +0.000 A 
ATOM     14  N   UNL     1      -4.251  12.287  18.748  0.00  0.00    +0.000 N 
ATOM     15  C   UNL     1      -5.537  12.956  18.840  0.00  0.00    +0.000 C 
ENDROOT
BRANCH   1  17
ATOM     16  N   UNL     1       0.339   9.414  20.367  0.00  0.00    +0.000 N 
ATOM     17  C   UNL     1       0.151  10.662  19.809  0.00  0.00    +0.000 C 
ATOM     18  O   UNL     1       0.989  11.145  19.089  0.00  0.00    +0.000 OA
ATOM     19  H   UNL     1      -0.457   8.907  20.733  0.00  0.00    +0.000 HD
BRANCH  16  20
ATOM     20  C   UNL     1       1.536   8.664  20.064  0.00  0.00    +0.000 C 
BRANCH  20  21
ATOM     21  C   UNL     1       1.558   7.239  20.670  0.00  0.00    +0.000 C 
BRANCH  21  22
ATOM     22  N   UNL     1       2.459   6.263  19.994  0.00  0.00    +0.000 NA
BRANCH  22  23
ATOM     23  C   UNL     1       2.307   4.936  20.642  0.00  0.00    +0.000 C 
BRANCH  23  25
ATOM     24  C   UNL     1       1.129   2.864  19.654  0.00  0.00    +0.000 C 
ATOM     25  C   UNL     1       0.985   4.177  20.402  0.00  0.00    +0.000 C 
ENDBRANCH  23  25
ENDBRANCH  22  23
BRANCH  22  26
ATOM     26  C   UNL     1       2.268   6.248  18.530  0.00  0.00    +0.000 C 
BRANCH  26  27
ATOM     27  C   UNL     1       3.406   5.638  17.698  0.00  0.00    +0.000 C 
ATOM     28  C   UNL     1       4.768   5.796  18.354  0.00  0.00    +0.000 C 
ENDBRANCH  26  27
ENDBRANCH  22  26
ENDBRANCH  21  22
ENDBRANCH  20  21
ENDBRANCH  16  20
ENDBRANCH   1  17
BRANCH   3  29
ATOM     29  C   UNL     1      -2.071  13.604  23.035  0.00  0.00    +0.000 C 
BRANCH  29  30
ATOM     30  C   UNL     1      -3.353  13.749  23.885  0.00  0.00    +0.000 C 
ATOM     31  C   UNL     1      -3.880  12.410  24.410  0.00  0.00    +0.000 C 
ATOM     32  C   UNL     1      -3.132  14.696  25.063  0.00  0.00    +0.000 C 
ENDBRANCH  29  30
ENDBRANCH   3  29
TORSDOF 10
ENDMDL
MODEL 9
REMARK VINA RESULT:      -6.2      2.868      9.752
REMARK  Name = 
REMARK  15 active torsions:
REMARK  status: ('A' for Active; 'I' for Inactive)
REMARK    1  A    between atoms: C_1  and  C_2
REMARK    2  A    between atoms: C_2  and  C_3
REMARK    3  A    between atoms: C_3  and  N_4
REMARK    4  A    between atoms: N_4  and  C_5
REMARK    5  A    between atoms: N_4  and  C_8
REMARK    6  A    between atoms: C_5  and  C_6
REMARK    7  A    between atoms: C_6  and  C_7
REMARK    8  A    between atoms: C_8  and  C_9
REMARK    9  A    between atoms: C_9  and  N_10
REMARK   10  A    between atoms: C_11  and  C_13
REMARK   11  A    between atoms: N_15  and  C_16
REMARK   12  A    between atoms: C_16  and  C_17
REMARK   13  A    between atoms: C_17  and  C_18
REMARK   14  A    between atoms: C_17  and  C_19
REMARK   15  A    between atoms: N_30  and  C_31
REMARK                            x       y       z     vdW  Elec       q    Type
REMARK                         _______ _______ _______ _____ _____    ______ ____
ROOT
ATOM      1  C   UNL     1       3.405   6.586  18.224  0.00  0.00    +0.000 A 
ATOM      2  C   UNL     1       4.451   7.081  17.517  0.00  0.00    +0.000 A 
ATOM      3  N   UNL     1       5.405   6.260  16.905  0.00  0.00    +0.000 N 
ATOM      4  C   UNL     1       5.314   4.862  16.966  0.00  0.00    +0.000 A 
ATOM      5  O   UNL     1       6.153   4.119  16.443  0.00  0.00    +0.000 OA
ATOM      6  C   UNL     1       4.172   4.360  17.695  0.00  0.00    +0.000 A 
ATOM      7  C   UNL     1       3.244   5.174  18.332  0.00  0.00    +0.000 A 
ATOM      8  C   UNL     1       2.279   4.343  18.958  0.00  0.00    +0.000 A 
ATOM      9  C   UNL     1       1.125   4.560  19.739  0.00  0.00    +0.000 A 
ATOM     10  C   UNL     1       0.357   3.496  20.198  0.00  0.00    +0.000 A 
ATOM     11  C   UNL     1       0.716   2.199  19.877  0.00  0.00    +0.000 A 
ATOM     12  C   UNL     1       1.852   1.935  19.106  0.00  0.00    +0.000 A 
ATOM     13  C   UNL     1       2.628   3.017  18.656  0.00  0.00    +0.000 A 
ATOM     14  N   UNL     1       3.781   3.062  17.893  0.00  0.00    +0.000 N 
ATOM     15  C   UNL     1       4.473   1.911  17.341  0.00  0.00    +0.000 C 
ENDROOT
BRANCH   1  17
ATOM     16  N   UNL     1       2.140   8.685  18.250  0.00  0.00    +0.000 N 
ATOM     17  C   UNL     1       2.565   7.589  18.972  0.00  0.00    +0.000 C 
ATOM     18  O   UNL     1       2.289   7.480  20.141  0.00  0.00    +0.000 OA
ATOM     19  H   UNL     1       2.133   8.643  17.238  0.00  0.00    +0.000 HD
BRANCH  16  20
ATOM     20  C   UNL     1       1.332   9.699  18.889  0.00  0.00    +0.000 C 
BRANCH  20  21
ATOM     21  C   UNL     1      -0.019   9.968  18.181  0.00  0.00    +0.000 C 
BRANCH  21  22
ATOM     22  N   UNL     1      -0.923  10.937  18.862  0.00  0.00    +0.000 NA
BRANCH  22  23
ATOM     23  C   UNL     1      -0.115  11.804  19.757  0.00  0.00    +0.000 C 
BRANCH  23  25
ATOM     24  C   UNL     1      -0.957  11.205  22.121  0.00  0.00    +0.000 C 
ATOM     25  C   UNL     1      -0.775  12.282  21.066  0.00  0.00    +0.000 C 
ENDBRANCH  23  25
ENDBRANCH  22  23
BRANCH  22  26
ATOM     26  C   UNL     1      -1.771  11.677  17.905  0.00  0.00    +0.000 C 
BRANCH  26  27
ATOM     27  C   UNL     1      -3.278  11.384  17.959  0.00  0.00    +0.000 C 
ATOM     28  C   UNL     1      -3.620   9.965  17.538  0.00  0.00    +0.000 C 
ENDBRANCH  26  27
ENDBRANCH  22  26
ENDBRANCH  21  22
ENDBRANCH  20  21
ENDBRANCH  16  20
ENDBRANCH   1  17
BRANCH   3  29
ATOM     29  C   UNL     1       6.610   6.851  16.310  0.00  0.00    +0.000 C 
BRANCH  29  30
ATOM     30  C   UNL     1       7.751   7.207  17.288  0.00  0.00    +0.000 C 
ATOM     31  C   UNL     1       7.761   8.686  17.687  0.00  0.00    +0.000 C 
ATOM     32  C   UNL     1       7.687   6.349  18.550  0.00  0.00    +0.000 C 
ENDBRANCH  29  30
ENDBRANCH   3  29
TORSDOF 10
ENDMDL
