MODEL 1
REMARK VINA RESULT:      -9.2      0.000      0.000
REMARK  Name = 
REMARK  3 active torsions:
REMARK  status: ('A' for Active; 'I' for Inactive)
REMARK    1  A    between atoms: C_6  and  N_7
REMARK    2  A    between atoms: C_19  and  C_20
REMARK    3  A    between atoms: C_20  and  C_21
REMARK                            x       y       z     vdW  Elec       q    Type
REMARK                         _______ _______ _______ _____ _____    ______ ____
ROOT
ATOM      1  O   UNL     1       0.575  10.284  22.113  0.00  0.00    +0.000 OA
ATOM      2  C   UNL     1       0.364  10.272  20.895  0.00  0.00    +0.000 C 
ATOM      3  N   UNL     1      -0.485  11.232  20.411  0.00  0.00    +0.000 N 
ATOM      4  C   UNL     1      -1.270  11.166  19.254  0.00  0.00    +0.000 A 
ATOM      5  C   UNL     1      -2.579  11.653  19.386  0.00  0.00    +0.000 A 
ATOM      6  C   UNL     1      -3.519  11.476  18.367  0.00  0.00    +0.000 A 
ATOM      7  C   UNL     1      -3.099  10.906  17.161  0.00  0.00    +0.000 A 
ATOM      8  C   UNL     1      -1.763  10.513  16.998  0.00  0.00    +0.000 A 
ATOM      9  C   UNL     1      -0.836  10.619  18.047  0.00  0.00    +0.000 A 
ATOM     10  N   UNL     1       0.477  10.163  17.855  0.00  0.00    +0.000 N 
ATOM     11  C   UNL     1       1.116   9.250  18.691  0.00  0.00    +0.000 A 
ATOM     12  N   UNL     1       1.845   8.327  18.011  0.00  0.00    +0.000 NA
ATOM     13  C   UNL     1       2.416   7.303  18.696  0.00  0.00    +0.000 A 
ATOM     14  C   UNL     1       2.273   7.165  20.069  0.00  0.00    +0.000 A 
ATOM     15  C   UNL     1       1.571   8.141  20.759  0.00  0.00    +0.000 A 
ATOM     16  C   UNL     1       0.993   9.218  20.073  0.00  0.00    +0.000 A 
ATOM     17  H   UNL     1      -0.839  11.791  21.179  0.00  0.00    +0.000 HD
ATOM     18  H   UNL     1       0.695   9.880  16.903  0.00  0.00    +0.000 HD
ENDROOT
BRANCH   6  19
ATOM     19  N   UNL     1      -4.882  11.827  18.587  0.00  0.00    +0.000 N 
ATOM     20  C   UNL     1      -5.975  11.465  17.833  0.00  0.00    +0.000 A 
ATOM     21  N   UNL     1      -7.104  11.920  18.322  0.00  0.00    +0.000 NA
ATOM     22  C   UNL     1      -6.753  12.605  19.451  0.00  0.00    +0.000 A 
ATOM     23 CL   UNL     1      -7.880  13.380  20.458  0.00  0.00    +0.000 Cl
ATOM     24  C   UNL     1      -5.394  12.563  19.637  0.00  0.00    +0.000 A 
ENDBRANCH   6  19
BRANCH  13  25
ATOM     25  C   UNL     1       3.150   6.253  17.891  0.00  0.00    +0.000 C 
BRANCH  25  26
ATOM     26  C   UNL     1       2.793   4.847  18.317  0.00  0.00    +0.000 A 
ATOM     27  C   UNL     1       1.548   4.304  17.970  0.00  0.00    +0.000 A 
ATOM     28  C   UNL     1       1.173   3.038  18.422  0.00  0.00    +0.000 A 
ATOM     29  C   UNL     1       2.049   2.296  19.210  0.00  0.00    +0.000 A 
ATOM     30  C   UNL     1       3.302   2.812  19.536  0.00  0.00    +0.000 A 
ATOM     31  C   UNL     1       3.676   4.083  19.091  0.00  0.00    +0.000 A 
ENDBRANCH  25  26
ENDBRANCH  13  25
TORSDOF 3
ENDMDL
MODEL 2
REMARK VINA RESULT:      -9.1      1.355      2.185
REMARK  Name = 
REMARK  3 active torsions:
REMARK  status: ('A' for Active; 'I' for Inactive)
REMARK    1  A    between atoms: C_6  and  N_7
REMARK    2  A    between atoms: C_19  and  C_20
REMARK    3  A    between atoms: C_20  and  C_21
REMARK                            x       y       z     vdW  Elec       q    Type
REMARK                         _______ _______ _______ _____ _____    ______ ____
ROOT
ATOM      1  O   UNL     1       0.684  10.459  21.956  0.00  0.00    +0.000 OA
ATOM      2  C   UNL     1       0.426  10.357  20.752  0.00  0.00    +0.000 C 
ATOM      3  N   UNL     1      -0.427  11.291  20.227  0.00  0.00    +0.000 N 
ATOM      4  C   UNL     1      -1.256  11.149  19.108  0.00  0.00    +0.000 A 
ATOM      5  C   UNL     1      -2.552  11.669  19.250  0.00  0.00    +0.000 A 
ATOM      6  C   UNL     1      -3.532  11.429  18.283  0.00  0.00    +0.000 A 
ATOM      7  C   UNL     1      -3.167  10.760  17.111  0.00  0.00    +0.000 A 
ATOM      8  C   UNL     1      -1.845  10.332  16.930  0.00  0.00    +0.000 A 
ATOM      9  C   UNL     1      -0.877  10.503  17.932  0.00  0.00    +0.000 A 
ATOM     10  N   UNL     1       0.421  10.011  17.728  0.00  0.00    +0.000 N 
ATOM     11  C   UNL     1       1.078   9.154  18.609  0.00  0.00    +0.000 A 
ATOM     12  N   UNL     1       1.767   8.168  17.976  0.00  0.00    +0.000 NA
ATOM     13  C   UNL     1       2.349   7.191  18.717  0.00  0.00    +0.000 A 
ATOM     14  C   UNL     1       2.256   7.162  20.101  0.00  0.00    +0.000 A 
ATOM     15  C   UNL     1       1.595   8.201  20.739  0.00  0.00    +0.000 A 
ATOM     16  C   UNL     1       1.008   9.231  19.993  0.00  0.00    +0.000 A 
ATOM     17  H   UNL     1      -0.743  11.914  20.961  0.00  0.00    +0.000 HD
ATOM     18  H   UNL     1       0.598   9.650  16.794  0.00  0.00    +0.000 HD
ENDROOT
BRANCH   6  19
ATOM     19  N   UNL     1      -4.881  11.820  18.526  0.00  0.00    +0.000 N 
ATOM     20  C   UNL     1      -5.997  11.484  17.795  0.00  0.00    +0.000 A 
ATOM     21  N   UNL     1      -7.104  11.975  18.301  0.00  0.00    +0.000 NA
ATOM     22  C   UNL     1      -6.712  12.658  19.417  0.00  0.00    +0.000 A 
ATOM     23 CL   UNL     1      -7.798  13.471  20.439  0.00  0.00    +0.000 Cl
ATOM     24  C   UNL     1      -5.352  12.579  19.579  0.00  0.00    +0.000 A 
ENDBRANCH   6  19
BRANCH  13  25
ATOM     25  C   UNL     1       3.035   6.068  17.971  0.00  0.00    +0.000 C 
BRANCH  25  26
ATOM     26  C   UNL     1       4.540   6.122  18.103  0.00  0.00    +0.000 A 
ATOM     27  C   UNL     1       5.294   6.901  17.215  0.00  0.00    +0.000 A 
ATOM     28  C   UNL     1       6.688   6.899  17.275  0.00  0.00    +0.000 A 
ATOM     29  C   UNL     1       7.340   6.133  18.238  0.00  0.00    +0.000 A 
ATOM     30  C   UNL     1       6.600   5.378  19.146  0.00  0.00    +0.000 A 
ATOM     31  C   UNL     1       5.204   5.372  19.083  0.00  0.00    +0.000 A 
ENDBRANCH  25  26
ENDBRANCH  13  25
TORSDOF 3
ENDMDL
MODEL 3
REMARK VINA RESULT:      -8.7      0.909      1.393
REMARK  Name = 
REMARK  3 active torsions:
REMARK  status: ('A' for Active; 'I' for Inactive)
REMARK    1  A    between atoms: C_6  and  N_7
REMARK    2  A    between atoms: C_19  and  C_20
REMARK    3  A    between atoms: C_20  and  C_21
REMARK                            x       y       z     vdW  Elec       q    Type
REMARK                         _______ _______ _______ _____ _____    ______ ____
ROOT
ATOM      1  O   UNL     1       0.971   9.689  22.488  0.00  0.00    +0.000 OA
ATOM      2  C   UNL     1       0.759   9.861  21.283  0.00  0.00    +0.000 C 
ATOM      3  N   UNL     1       0.033  10.972  20.942  0.00  0.00    +0.000 N 
ATOM      4  C   UNL     1      -0.755  11.152  19.798  0.00  0.00    +0.000 A 
ATOM      5  C   UNL     1      -1.994  11.774  20.014  0.00  0.00    +0.000 A 
ATOM      6  C   UNL     1      -2.949  11.845  18.996  0.00  0.00    +0.000 A 
ATOM      7  C   UNL     1      -2.603  11.391  17.720  0.00  0.00    +0.000 A 
ATOM      8  C   UNL     1      -1.325  10.863  17.486  0.00  0.00    +0.000 A 
ATOM      9  C   UNL     1      -0.391  10.719  18.524  0.00  0.00    +0.000 A 
ATOM     10  N   UNL     1       0.855  10.136  18.253  0.00  0.00    +0.000 N 
ATOM     11  C   UNL     1       1.379   9.051  18.954  0.00  0.00    +0.000 A 
ATOM     12  N   UNL     1       1.989   8.143  18.148  0.00  0.00    +0.000 NA
ATOM     13  C   UNL     1       2.431   6.978  18.685  0.00  0.00    +0.000 A 
ATOM     14  C   UNL     1       2.273   6.680  20.031  0.00  0.00    +0.000 A 
ATOM     15  C   UNL     1       1.696   7.636  20.853  0.00  0.00    +0.000 A 
ATOM     16  C   UNL     1       1.254   8.855  20.322  0.00  0.00    +0.000 A 
ATOM     17  H   UNL     1      -0.249  11.465  21.781  0.00  0.00    +0.000 HD
ATOM     18  H   UNL     1       1.036   9.955  17.269  0.00  0.00    +0.000 HD
ENDROOT
BRANCH   6  19
ATOM     19  N   UNL     1      -4.259  12.327  19.283  0.00  0.00    +0.000 N 
ATOM     20  C   UNL     1      -4.717  12.863  20.465  0.00  0.00    +0.000 A 
ATOM     21  N   UNL     1      -5.969  13.249  20.397  0.00  0.00    +0.000 NA
ATOM     22  C   UNL     1      -6.359  12.970  19.118  0.00  0.00    +0.000 A 
ATOM     23 CL   UNL     1      -7.916  13.302  18.525  0.00  0.00    +0.000 Cl
ATOM     24  C   UNL     1      -5.328  12.402  18.412  0.00  0.00    +0.000 A 
ENDBRANCH   6  19
BRANCH  13  25
ATOM     25  C   UNL     1       3.030   5.960  17.740  0.00  0.00    +0.000 C 
BRANCH  25  26
ATOM     26  C   UNL     1       2.784   4.538  18.191  0.00  0.00    +0.000 A 
ATOM     27  C   UNL     1       3.842   3.769  18.697  0.00  0.00    +0.000 A 
ATOM     28  C   UNL     1       3.646   2.432  19.043  0.00  0.00    +0.000 A 
ATOM     29  C   UNL     1       2.386   1.857  18.905  0.00  0.00    +0.000 A 
ATOM     30  C   UNL     1       1.319   2.619  18.433  0.00  0.00    +0.000 A 
ATOM     31  C   UNL     1       1.514   3.956  18.077  0.00  0.00    +0.000 A 
ENDBRANCH  25  26
ENDBRANCH  13  25
TORSDOF 3
ENDMDL
MODEL 4
REMARK VINA RESULT:      -8.6      2.123      2.690
REMARK  Name = 
REMARK  3 active torsions:
REMARK  status: ('A' for Active; 'I' for Inactive)
REMARK    1  A    between atoms: C_6  and  N_7
REMARK    2  A    between atoms: C_19  and  C_20
REMARK    3  A    between atoms: C_20  and  C_21
REMARK                            x       y       z     vdW  Elec       q    Type
REMARK                         _______ _______ _______ _____ _____    ______ ____
ROOT
ATOM      1  O   UNL     1       0.334   9.629  23.812  0.00  0.00    +0.000 OA
ATOM      2  C   UNL     1       0.035  10.205  22.760  0.00  0.00    +0.000 C 
ATOM      3  N   UNL     1      -0.776  11.304  22.873  0.00  0.00    +0.000 N 
ATOM      4  C   UNL     1      -1.645  11.821  21.904  0.00  0.00    +0.000 A 
ATOM      5  C   UNL     1      -2.902  12.224  22.378  0.00  0.00    +0.000 A 
ATOM      6  C   UNL     1      -3.923  12.581  21.494  0.00  0.00    +0.000 A 
ATOM      7  C   UNL     1      -3.634  12.643  20.127  0.00  0.00    +0.000 A 
ATOM      8  C   UNL     1      -2.345  12.337  19.668  0.00  0.00    +0.000 A 
ATOM      9  C   UNL     1      -1.340  11.903  20.546  0.00  0.00    +0.000 A 
ATOM     10  N   UNL     1      -0.081  11.557  20.034  0.00  0.00    +0.000 N 
ATOM     11  C   UNL     1       0.550  10.337  20.273  0.00  0.00    +0.000 A 
ATOM     12  N   UNL     1       1.160   9.830  19.170  0.00  0.00    +0.000 NA
ATOM     13  C   UNL     1       1.704   8.587  19.230  0.00  0.00    +0.000 A 
ATOM     14  C   UNL     1       1.650   7.815  20.382  0.00  0.00    +0.000 A 
ATOM     15  C   UNL     1       1.072   8.364  21.516  0.00  0.00    +0.000 A 
ATOM     16  C   UNL     1       0.526   9.653  21.481  0.00  0.00    +0.000 A 
ATOM     17  H   UNL     1      -1.032  11.439  23.844  0.00  0.00    +0.000 HD
ATOM     18  H   UNL     1       0.047  11.755  19.046  0.00  0.00    +0.000 HD
ENDROOT
BRANCH   6  19
ATOM     19  N   UNL     1      -5.239  12.824  21.986  0.00  0.00    +0.000 N 
ATOM     20  C   UNL     1      -6.433  12.506  21.382  0.00  0.00    +0.000 A 
ATOM     21  N   UNL     1      -7.475  12.829  22.111  0.00  0.00    +0.000 NA
ATOM     22  C   UNL     1      -6.955  13.375  23.251  0.00  0.00    +0.000 A 
ATOM     23 CL   UNL     1      -7.915  13.945  24.532  0.00  0.00    +0.000 Cl
ATOM     24  C   UNL     1      -5.584  13.384  23.200  0.00  0.00    +0.000 A 
ENDBRANCH   6  19
BRANCH  13  25
ATOM     25  C   UNL     1       2.299   8.026  17.958  0.00  0.00    +0.000 C 
BRANCH  25  26
ATOM     26  C   UNL     1       2.755   6.594  18.117  0.00  0.00    +0.000 A 
ATOM     27  C   UNL     1       1.846   5.544  17.930  0.00  0.00    +0.000 A 
ATOM     28  C   UNL     1       2.232   4.221  18.149  0.00  0.00    +0.000 A 
ATOM     29  C   UNL     1       3.538   3.936  18.540  0.00  0.00    +0.000 A 
ATOM     30  C   UNL     1       4.460   4.969  18.699  0.00  0.00    +0.000 A 
ATOM     31  C   UNL     1       4.073   6.295  18.488  0.00  0.00    +0.000 A 
ENDBRANCH  25  26
ENDBRANCH  13  25
TORSDOF 3
ENDMDL
MODEL 5
REMARK VINA RESULT:      -8.6      1.660      2.538
REMARK  Name = 
REMARK  3 active torsions:
REMARK  status: ('A' for Active; 'I' for Inactive)
REMARK    1  A    between atoms: C_6  and  N_7
REMARK    2  A    between atoms: C_19  and  C_20
REMARK    3  A    between atoms: C_20  and  C_21
REMARK                            x       y       z     vdW  Elec       q    Type
REMARK                         _______ _______ _______ _____ _____    ______ ____
ROOT
ATOM      1  O   UNL     1       0.856   9.664  22.536  0.00  0.00    +0.000 OA
ATOM      2  C   UNL     1       0.700   9.837  21.323  0.00  0.00    +0.000 C 
ATOM      3  N   UNL     1      -0.034  10.933  20.950  0.00  0.00    +0.000 N 
ATOM      4  C   UNL     1      -0.770  11.101  19.771  0.00  0.00    +0.000 A 
ATOM      5  C   UNL     1      -2.032  11.692  19.928  0.00  0.00    +0.000 A 
ATOM      6  C   UNL     1      -2.937  11.747  18.865  0.00  0.00    +0.000 A 
ATOM      7  C   UNL     1      -2.519  11.308  17.605  0.00  0.00    +0.000 A 
ATOM      8  C   UNL     1      -1.219  10.811  17.432  0.00  0.00    +0.000 A 
ATOM      9  C   UNL     1      -0.334  10.683  18.514  0.00  0.00    +0.000 A 
ATOM     10  N   UNL     1       0.938  10.131  18.302  0.00  0.00    +0.000 N 
ATOM     11  C   UNL     1       1.452   9.054  19.023  0.00  0.00    +0.000 A 
ATOM     12  N   UNL     1       2.122   8.165  18.244  0.00  0.00    +0.000 NA
ATOM     13  C   UNL     1       2.564   7.007  18.798  0.00  0.00    +0.000 A 
ATOM     14  C   UNL     1       2.347   6.699  20.133  0.00  0.00    +0.000 A 
ATOM     15  C   UNL     1       1.709   7.637  20.930  0.00  0.00    +0.000 A 
ATOM     16  C   UNL     1       1.265   8.848  20.382  0.00  0.00    +0.000 A 
ATOM     17  H   UNL     1      -0.369  11.415  21.777  0.00  0.00    +0.000 HD
ATOM     18  H   UNL     1       1.171   9.959  17.327  0.00  0.00    +0.000 HD
ENDROOT
BRANCH   6  19
ATOM     19  N   UNL     1      -4.271  12.197  19.089  0.00  0.00    +0.000 N 
ATOM     20  C   UNL     1      -4.797  12.721  20.247  0.00  0.00    +0.000 A 
ATOM     21  N   UNL     1      -6.054  13.077  20.120  0.00  0.00    +0.000 NA
ATOM     22  C   UNL     1      -6.376  12.789  18.824  0.00  0.00    +0.000 A 
ATOM     23 CL   UNL     1      -7.911  13.085  18.159  0.00  0.00    +0.000 Cl
ATOM     24  C   UNL     1      -5.299  12.247  18.168  0.00  0.00    +0.000 A 
ENDBRANCH   6  19
BRANCH  13  25
ATOM     25  C   UNL     1       3.232   6.008  17.879  0.00  0.00    +0.000 C 
BRANCH  25  26
ATOM     26  C   UNL     1       4.740   6.055  17.974  0.00  0.00    +0.000 A 
ATOM     27  C   UNL     1       5.402   5.337  18.980  0.00  0.00    +0.000 A 
ATOM     28  C   UNL     1       6.785   5.433  19.129  0.00  0.00    +0.000 A 
ATOM     29  C   UNL     1       7.523   6.233  18.260  0.00  0.00    +0.000 A 
ATOM     30  C   UNL     1       6.880   6.927  17.237  0.00  0.00    +0.000 A 
ATOM     31  C   UNL     1       5.493   6.839  17.090  0.00  0.00    +0.000 A 
ENDBRANCH  25  26
ENDBRANCH  13  25
TORSDOF 3
ENDMDL
MODEL 6
REMARK VINA RESULT:      -8.4      0.933      1.031
REMARK  Name = 
REMARK  3 active torsions:
REMARK  status: ('A' for Active; 'I' for Inactive)
REMARK    1  A    between atoms: C_6  and  N_7
REMARK    2  A    between atoms: C_19  and  C_20
REMARK    3  A    between atoms: C_20  and  C_21
REMARK                            x       y       z     vdW  Elec       q    Type
REMARK                         _______ _______ _______ _____ _____    ______ ____
ROOT
ATOM      1  O   UNL     1       0.892   9.620  22.815  0.00  0.00    +0.000 OA
ATOM      2  C   UNL     1       0.705   9.872  21.620  0.00  0.00    +0.000 C 
ATOM      3  N   UNL     1       0.002  11.014  21.338  0.00  0.00    +0.000 N 
ATOM      4  C   UNL     1      -0.763  11.280  20.196  0.00  0.00    +0.000 A 
ATOM      5  C   UNL     1      -1.995  11.907  20.430  0.00  0.00    +0.000 A 
ATOM      6  C   UNL     1      -2.931  12.059  19.403  0.00  0.00    +0.000 A 
ATOM      7  C   UNL     1      -2.570  11.680  18.106  0.00  0.00    +0.000 A 
ATOM      8  C   UNL     1      -1.296  11.147  17.860  0.00  0.00    +0.000 A 
ATOM      9  C   UNL     1      -0.383  10.922  18.902  0.00  0.00    +0.000 A 
ATOM     10  N   UNL     1       0.859  10.337  18.616  0.00  0.00    +0.000 N 
ATOM     11  C   UNL     1       1.353   9.201  19.255  0.00  0.00    +0.000 A 
ATOM     12  N   UNL     1       1.963   8.335  18.403  0.00  0.00    +0.000 NA
ATOM     13  C   UNL     1       2.377   7.131  18.872  0.00  0.00    +0.000 A 
ATOM     14  C   UNL     1       2.190   6.751  20.194  0.00  0.00    +0.000 A 
ATOM     15  C   UNL     1       1.614   7.663  21.065  0.00  0.00    +0.000 A 
ATOM     16  C   UNL     1       1.201   8.920  20.605  0.00  0.00    +0.000 A 
ATOM     17  H   UNL     1      -0.287  11.457  22.202  0.00  0.00    +0.000 HD
ATOM     18  H   UNL     1       1.054  10.215  17.626  0.00  0.00    +0.000 HD
ENDROOT
BRANCH   6  19
ATOM     19  N   UNL     1      -4.238  12.544  19.698  0.00  0.00    +0.000 N 
ATOM     20  C   UNL     1      -5.423  12.178  19.101  0.00  0.00    +0.000 A 
ATOM     21  N   UNL     1      -6.464  12.782  19.626  0.00  0.00    +0.000 NA
ATOM     22  C   UNL     1      -5.955  13.573  20.616  0.00  0.00    +0.000 A 
ATOM     23 CL   UNL     1      -6.919  14.557  21.610  0.00  0.00    +0.000 Cl
ATOM     24  C   UNL     1      -4.590  13.446  20.682  0.00  0.00    +0.000 A 
ENDBRANCH   6  19
BRANCH  13  25
ATOM     25  C   UNL     1       2.976   6.165  17.875  0.00  0.00    +0.000 C 
BRANCH  25  26
ATOM     26  C   UNL     1       2.731   4.721  18.250  0.00  0.00    +0.000 A 
ATOM     27  C   UNL     1       1.468   4.148  18.045  0.00  0.00    +0.000 A 
ATOM     28  C   UNL     1       1.205   2.842  18.458  0.00  0.00    +0.000 A 
ATOM     29  C   UNL     1       2.208   2.090  19.064  0.00  0.00    +0.000 A 
ATOM     30  C   UNL     1       3.477   2.638  19.246  0.00  0.00    +0.000 A 
ATOM     31  C   UNL     1       3.741   3.949  18.840  0.00  0.00    +0.000 A 
ENDBRANCH  25  26
ENDBRANCH  13  25
TORSDOF 3
ENDMDL
MODEL 7
REMARK VINA RESULT:      -8.3      5.321      8.986
REMARK  Name = 
REMARK  3 active torsions:
REMARK  status: ('A' for Active; 'I' for Inactive)
REMARK    1  A    between atoms: C_6  and  N_7
REMARK    2  A    between atoms: C_19  and  C_20
REMARK    3  A    between atoms: C_20  and  C_21
REMARK                            x       y       z     vdW  Elec       q    Type
REMARK                         _______ _______ _______ _____ _____    ______ ____
ROOT
ATOM      1  O   UNL     1       0.378  11.727  22.110  0.00  0.00    +0.000 OA
ATOM      2  C   UNL     1       0.729  11.394  20.973  0.00  0.00    +0.000 C 
ATOM      3  N   UNL     1       0.450  10.106  20.598  0.00  0.00    +0.000 N 
ATOM      4  C   UNL     1       1.129   9.333  19.648  0.00  0.00    +0.000 A 
ATOM      5  C   UNL     1       1.361   7.998  20.015  0.00  0.00    +0.000 A 
ATOM      6  C   UNL     1       2.184   7.174  19.243  0.00  0.00    +0.000 A 
ATOM      7  C   UNL     1       2.681   7.668  18.033  0.00  0.00    +0.000 A 
ATOM      8  C   UNL     1       2.361   8.970  17.622  0.00  0.00    +0.000 A 
ATOM      9  C   UNL     1       1.598   9.826  18.432  0.00  0.00    +0.000 A 
ATOM     10  N   UNL     1       1.349  11.138  18.003  0.00  0.00    +0.000 N 
ATOM     11  C   UNL     1       1.628  12.273  18.762  0.00  0.00    +0.000 A 
ATOM     12  N   UNL     1       2.161  13.284  18.028  0.00  0.00    +0.000 NA
ATOM     13  C   UNL     1       2.597  14.402  18.665  0.00  0.00    +0.000 A 
ATOM     14  C   UNL     1       2.522  14.541  20.043  0.00  0.00    +0.000 A 
ATOM     15  C   UNL     1       1.928  13.525  20.776  0.00  0.00    +0.000 A 
ATOM     16  C   UNL     1       1.451  12.374  20.135  0.00  0.00    +0.000 A 
ATOM     17  H   UNL     1       0.014   9.615  21.369  0.00  0.00    +0.000 HD
ATOM     18  H   UNL     1       1.658  11.344  17.057  0.00  0.00    +0.000 HD
ENDROOT
BRANCH   6  19
ATOM     19  N   UNL     1       2.542   5.880  19.720  0.00  0.00    +0.000 N 
ATOM     20  C   UNL     1       3.686   5.168  19.439  0.00  0.00    +0.000 A 
ATOM     21  N   UNL     1       3.736   4.016  20.065  0.00  0.00    +0.000 NA
ATOM     22  C   UNL     1       2.585   3.961  20.800  0.00  0.00    +0.000 A 
ATOM     23 CL   UNL     1       2.186   2.652  21.807  0.00  0.00    +0.000 Cl
ATOM     24  C   UNL     1       1.834   5.093  20.606  0.00  0.00    +0.000 A 
ENDBRANCH   6  19
BRANCH  13  25
ATOM     25  C   UNL     1       3.259  15.468  17.821  0.00  0.00    +0.000 C 
BRANCH  25  26
ATOM     26  C   UNL     1       4.729  15.625  18.138  0.00  0.00    +0.000 A 
ATOM     27  C   UNL     1       5.191  16.793  18.761  0.00  0.00    +0.000 A 
ATOM     28  C   UNL     1       6.554  16.986  18.988  0.00  0.00    +0.000 A 
ATOM     29  C   UNL     1       7.466  16.003  18.613  0.00  0.00    +0.000 A 
ATOM     30  C   UNL     1       7.016  14.824  18.021  0.00  0.00    +0.000 A 
ATOM     31  C   UNL     1       5.652  14.632  17.784  0.00  0.00    +0.000 A 
ENDBRANCH  25  26
ENDBRANCH  13  25
TORSDOF 3
ENDMDL
MODEL 8
REMARK VINA RESULT:      -8.2      1.840      2.571
REMARK  Name = 
REMARK  3 active torsions:
REMARK  status: ('A' for Active; 'I' for Inactive)
REMARK    1  A    between atoms: C_6  and  N_7
REMARK    2  A    between atoms: C_19  and  C_20
REMARK    3  A    between atoms: C_20  and  C_21
REMARK                            x       y       z     vdW  Elec       q    Type
REMARK                         _______ _______ _______ _____ _____    ______ ____
ROOT
ATOM      1  O   UNL     1       1.432   8.936  22.323  0.00  0.00    +0.000 OA
ATOM      2  C   UNL     1       1.220   9.050  21.111  0.00  0.00    +0.000 C 
ATOM      3  N   UNL     1       0.601  10.202  20.703  0.00  0.00    +0.000 N 
ATOM      4  C   UNL     1      -0.183  10.385  19.558  0.00  0.00    +0.000 A 
ATOM      5  C   UNL     1      -1.352  11.138  19.743  0.00  0.00    +0.000 A 
ATOM      6  C   UNL     1      -2.311  11.237  18.731  0.00  0.00    +0.000 A 
ATOM      7  C   UNL     1      -2.030  10.670  17.484  0.00  0.00    +0.000 A 
ATOM      8  C   UNL     1      -0.814  10.005  17.274  0.00  0.00    +0.000 A 
ATOM      9  C   UNL     1       0.117   9.837  18.311  0.00  0.00    +0.000 A 
ATOM     10  N   UNL     1       1.297   9.119  18.068  0.00  0.00    +0.000 N 
ATOM     11  C   UNL     1       1.723   8.035  18.834  0.00  0.00    +0.000 A 
ATOM     12  N   UNL     1       2.229   7.021  18.084  0.00  0.00    +0.000 NA
ATOM     13  C   UNL     1       2.564   5.855  18.693  0.00  0.00    +0.000 A 
ATOM     14  C   UNL     1       2.398   5.661  20.057  0.00  0.00    +0.000 A 
ATOM     15  C   UNL     1       1.930   6.720  20.819  0.00  0.00    +0.000 A 
ATOM     16  C   UNL     1       1.600   7.940  20.213  0.00  0.00    +0.000 A 
ATOM     17  H   UNL     1       0.381  10.774  21.511  0.00  0.00    +0.000 HD
ATOM     18  H   UNL     1       1.445   8.857  17.097  0.00  0.00    +0.000 HD
ENDROOT
BRANCH   6  19
ATOM     19  N   UNL     1      -3.564  11.863  18.997  0.00  0.00    +0.000 N 
ATOM     20  C   UNL     1      -3.870  12.726  20.024  0.00  0.00    +0.000 A 
ATOM     21  N   UNL     1      -5.107  13.161  19.971  0.00  0.00    +0.000 NA
ATOM     22  C   UNL     1      -5.644  12.573  18.861  0.00  0.00    +0.000 A 
ATOM     23 CL   UNL     1      -7.243  12.835  18.350  0.00  0.00    +0.000 Cl
ATOM     24  C   UNL     1      -4.717  11.771  18.244  0.00  0.00    +0.000 A 
ENDBRANCH   6  19
BRANCH  13  25
ATOM     25  C   UNL     1       3.046   4.724  17.811  0.00  0.00    +0.000 C 
BRANCH  25  26
ATOM     26  C   UNL     1       4.545   4.744  17.614  0.00  0.00    +0.000 A 
ATOM     27  C   UNL     1       5.382   5.181  18.650  0.00  0.00    +0.000 A 
ATOM     28  C   UNL     1       6.760   5.280  18.456  0.00  0.00    +0.000 A 
ATOM     29  C   UNL     1       7.315   4.925  17.230  0.00  0.00    +0.000 A 
ATOM     30  C   UNL     1       6.497   4.460  16.202  0.00  0.00    +0.000 A 
ATOM     31  C   UNL     1       5.115   4.368  16.391  0.00  0.00    +0.000 A 
ENDBRANCH  25  26
ENDBRANCH  13  25
TORSDOF 3
ENDMDL
MODEL 9
REMARK VINA RESULT:      -8.2      1.840      2.431
REMARK  Name = 
REMARK  3 active torsions:
REMARK  status: ('A' for Active; 'I' for Inactive)
REMARK    1  A    between atoms: C_6  and  N_7
REMARK    2  A    between atoms: C_19  and  C_20
REMARK    3  A    between atoms: C_20  and  C_21
REMARK                            x       y       z     vdW  Elec       q    Type
REMARK                         _______ _______ _______ _____ _____    ______ ____
ROOT
ATOM      1  O   UNL     1       1.388   8.818  22.552  0.00  0.00    +0.000 OA
ATOM      2  C   UNL     1       1.215   9.031  21.348  0.00  0.00    +0.000 C 
ATOM      3  N   UNL     1       0.633  10.226  21.015  0.00  0.00    +0.000 N 
ATOM      4  C   UNL     1      -0.113  10.516  19.865  0.00  0.00    +0.000 A 
ATOM      5  C   UNL     1      -1.271  11.279  20.077  0.00  0.00    +0.000 A 
ATOM      6  C   UNL     1      -2.197  11.480  19.050  0.00  0.00    +0.000 A 
ATOM      7  C   UNL     1      -1.892  11.004  17.771  0.00  0.00    +0.000 A 
ATOM      8  C   UNL     1      -0.685  10.328  17.543  0.00  0.00    +0.000 A 
ATOM      9  C   UNL     1       0.212  10.059  18.589  0.00  0.00    +0.000 A 
ATOM     10  N   UNL     1       1.382   9.333  18.323  0.00  0.00    +0.000 N 
ATOM     11  C   UNL     1       1.762   8.183  19.013  0.00  0.00    +0.000 A 
ATOM     12  N   UNL     1       2.268   7.219  18.201  0.00  0.00    +0.000 NA
ATOM     13  C   UNL     1       2.559   6.001  18.726  0.00  0.00    +0.000 A 
ATOM     14  C   UNL     1       2.349   5.707  20.065  0.00  0.00    +0.000 A 
ATOM     15  C   UNL     1       1.882   6.715  20.895  0.00  0.00    +0.000 A 
ATOM     16  C   UNL     1       1.597   7.985  20.377  0.00  0.00    +0.000 A 
ATOM     17  H   UNL     1       0.401  10.738  21.858  0.00  0.00    +0.000 HD
ATOM     18  H   UNL     1       1.553   9.144  17.339  0.00  0.00    +0.000 HD
ENDROOT
BRANCH   6  19
ATOM     19  N   UNL     1      -3.443  12.113  19.329  0.00  0.00    +0.000 N 
ATOM     20  C   UNL     1      -4.633  11.957  18.655  0.00  0.00    +0.000 A 
ATOM     21  N   UNL     1      -5.611  12.654  19.184  0.00  0.00    +0.000 NA
ATOM     22  C   UNL     1      -5.055  13.291  20.257  0.00  0.00    +0.000 A 
ATOM     23 CL   UNL     1      -5.933  14.318  21.287  0.00  0.00    +0.000 Cl
ATOM     24  C   UNL     1      -3.724  12.976  20.368  0.00  0.00    +0.000 A 
ENDBRANCH   6  19
BRANCH  13  25
ATOM     25  C   UNL     1       3.043   4.931  17.772  0.00  0.00    +0.000 C 
BRANCH  25  26
ATOM     26  C   UNL     1       4.546   4.933  17.617  0.00  0.00    +0.000 A 
ATOM     27  C   UNL     1       5.132   4.421  16.450  0.00  0.00    +0.000 A 
ATOM     28  C   UNL     1       6.519   4.344  16.326  0.00  0.00    +0.000 A 
ATOM     29  C   UNL     1       7.334   4.795  17.360  0.00  0.00    +0.000 A 
ATOM     30  C   UNL     1       6.765   5.334  18.512  0.00  0.00    +0.000 A 
ATOM     31  C   UNL     1       5.376   5.405  18.643  0.00  0.00    +0.000 A 
ENDBRANCH  25  26
ENDBRANCH  13  25
TORSDOF 3
ENDMDL
