MODEL 1
REMARK VINA RESULT:      -8.5      0.000      0.000
REMARK  Name = 
REMARK  12 active torsions:
REMARK  status: ('A' for Active; 'I' for Inactive)
REMARK    1  A    between atoms: C_1  and  C_2
REMARK    2  A    between atoms: C_3  and  C_4
REMARK    3  A    between atoms: C_7  and  C_8
REMARK    4  A    between atoms: C_8  and  C_9
REMARK    5  A    between atoms: C_8  and  C_17
REMARK    6  A    between atoms: C_9  and  C_10
REMARK    7  A    between atoms: C_10  and  C_11
REMARK    8  A    between atoms: C_11  and  C_12
REMARK    9  A    between atoms: C_12  and  C_13
REMARK   10  A    between atoms: C_13  and  C_14
REMARK   11  A    between atoms: C_14  and  O_16
REMARK   12  A    between atoms: C_24  and  C_25
REMARK                            x       y       z     vdW  Elec       q    Type
REMARK                         _______ _______ _______ _____ _____    ______ ____
ROOT
ATOM      1  C   UNL     1       5.790   6.439  17.143  0.00  0.00    +0.000 C 
ENDROOT
BRANCH   1   8
ATOM      2  C   UNL     1       1.981   4.066  21.083  0.00  0.00    +0.000 C 
ATOM      3  C   UNL     1       3.001   4.574  20.105  0.00  0.00    +0.000 C 
ATOM      4  C   UNL     1       4.065   3.897  19.652  0.00  0.00    +0.000 C 
ATOM      5  C   UNL     1       4.384   2.450  19.912  0.00  0.00    +0.000 C 
ATOM      6  C   UNL     1       5.119   4.628  18.895  0.00  0.00    +0.000 C 
ATOM      7  O   UNL     1       6.257   4.173  18.907  0.00  0.00    +0.000 OA
ATOM      8  C   UNL     1       4.769   5.891  18.169  0.00  0.00    +0.000 C 
ATOM      9  C   UNL     1       3.616   6.503  18.524  0.00  0.00    +0.000 C 
ATOM     10  C   UNL     1       3.037   7.756  17.928  0.00  0.00    +0.000 C 
ATOM     11  C   UNL     1       2.774   5.967  19.643  0.00  0.00    +0.000 C 
ATOM     12  O   UNL     1       1.879   6.649  20.134  0.00  0.00    +0.000 OA
ENDBRANCH   1   8
BRANCH   1  13
ATOM     13  C   UNL     1       5.967   5.553  15.904  0.00  0.00    +0.000 A 
ATOM     14  C   UNL     1       7.222   5.489  15.268  0.00  0.00    +0.000 A 
ATOM     15  C   UNL     1       7.413   4.695  14.132  0.00  0.00    +0.000 A 
ATOM     16  C   UNL     1       6.352   3.963  13.617  0.00  0.00    +0.000 A 
ATOM     17  F   UNL     1       6.525   3.231  12.510  0.00  0.00    +0.000 F 
ATOM     18  C   UNL     1       5.117   3.973  14.244  0.00  0.00    +0.000 A 
ATOM     19  C   UNL     1       4.936   4.745  15.394  0.00  0.00    +0.000 A 
ENDBRANCH   1  13
BRANCH   1  20
ATOM     20  C   UNL     1       7.135   6.849  17.799  0.00  0.00    +0.000 C 
BRANCH  20  21
ATOM     21  C   UNL     1       7.640   8.255  17.438  0.00  0.00    +0.000 C 
BRANCH  21  22
ATOM     22  C   UNL     1       8.576   8.851  18.505  0.00  0.00    +0.000 C 
BRANCH  22  23
ATOM     23  C   UNL     1       8.822  10.349  18.294  0.00  0.00    +0.000 C 
BRANCH  23  24
ATOM     24  C   UNL     1      10.163  10.826  18.843  0.00  0.00    +0.000 C 
BRANCH  24  25
ATOM     25  C   UNL     1      10.792  11.842  17.911  0.00  0.00    +0.000 C 
ATOM     26  O   UNL     1      10.225  12.796  17.412  0.00  0.00    +0.000 OA
BRANCH  25  27
ATOM     27  O   UNL     1      12.102  11.584  17.678  0.00  0.00    +0.000 OA
ATOM     28  H   UNL     1      12.705  12.060  18.278  0.00  0.00    +0.000 HD
ENDBRANCH  25  27
ENDBRANCH  24  25
ENDBRANCH  23  24
ENDBRANCH  22  23
ENDBRANCH  21  22
ENDBRANCH  20  21
ENDBRANCH   1  20
TORSDOF 9
ENDMDL
MODEL 2
REMARK VINA RESULT:      -8.1      3.636      6.760
REMARK  Name = 
REMARK  12 active torsions:
REMARK  status: ('A' for Active; 'I' for Inactive)
REMARK    1  A    between atoms: C_1  and  C_2
REMARK    2  A    between atoms: C_3  and  C_4
REMARK    3  A    between atoms: C_7  and  C_8
REMARK    4  A    between atoms: C_8  and  C_9
REMARK    5  A    between atoms: C_8  and  C_17
REMARK    6  A    between atoms: C_9  and  C_10
REMARK    7  A    between atoms: C_10  and  C_11
REMARK    8  A    between atoms: C_11  and  C_12
REMARK    9  A    between atoms: C_12  and  C_13
REMARK   10  A    between atoms: C_13  and  C_14
REMARK   11  A    between atoms: C_14  and  O_16
REMARK   12  A    between atoms: C_24  and  C_25
REMARK                            x       y       z     vdW  Elec       q    Type
REMARK                         _______ _______ _______ _____ _____    ______ ____
ROOT
ATOM      1  C   UNL     1       5.421   4.728  16.867  0.00  0.00    +0.000 C 
ENDROOT
BRANCH   1   8
ATOM      2  C   UNL     1       0.635   3.976  20.358  0.00  0.00    +0.000 C 
ATOM      3  C   UNL     1       1.831   4.272  19.498  0.00  0.00    +0.000 C 
ATOM      4  C   UNL     1       2.420   5.466  19.353  0.00  0.00    +0.000 C 
ATOM      5  C   UNL     1       2.105   6.722  20.119  0.00  0.00    +0.000 C 
ATOM      6  C   UNL     1       3.426   5.649  18.270  0.00  0.00    +0.000 C 
ATOM      7  O   UNL     1       3.594   6.779  17.825  0.00  0.00    +0.000 OA
ATOM      8  C   UNL     1       4.175   4.462  17.745  0.00  0.00    +0.000 C 
ATOM      9  C   UNL     1       3.659   3.242  18.017  0.00  0.00    +0.000 C 
ATOM     10  C   UNL     1       4.236   1.910  17.629  0.00  0.00    +0.000 C 
ATOM     11  C   UNL     1       2.357   3.104  18.748  0.00  0.00    +0.000 C 
ATOM     12  O   UNL     1       1.762   2.030  18.769  0.00  0.00    +0.000 OA
ENDBRANCH   1   8
BRANCH   1  13
ATOM     13  C   UNL     1       6.419   5.717  17.481  0.00  0.00    +0.000 A 
ATOM     14  C   UNL     1       6.571   6.997  16.911  0.00  0.00    +0.000 A 
ATOM     15  C   UNL     1       7.478   7.919  17.445  0.00  0.00    +0.000 A 
ATOM     16  C   UNL     1       8.245   7.571  18.547  0.00  0.00    +0.000 A 
ATOM     17  F   UNL     1       9.138   8.440  19.036  0.00  0.00    +0.000 F 
ATOM     18  C   UNL     1       8.089   6.336  19.155  0.00  0.00    +0.000 A 
ATOM     19  C   UNL     1       7.164   5.427  18.637  0.00  0.00    +0.000 A 
ENDBRANCH   1  13
BRANCH   1  20
ATOM     20  C   UNL     1       5.056   5.061  15.396  0.00  0.00    +0.000 C 
BRANCH  20  21
ATOM     21  C   UNL     1       6.150   4.751  14.361  0.00  0.00    +0.000 C 
BRANCH  21  22
ATOM     22  C   UNL     1       5.959   3.387  13.674  0.00  0.00    +0.000 C 
BRANCH  22  23
ATOM     23  C   UNL     1       5.765   3.520  12.159  0.00  0.00    +0.000 C 
BRANCH  23  24
ATOM     24  C   UNL     1       5.335   2.219  11.488  0.00  0.00    +0.000 C 
BRANCH  24  25
ATOM     25  C   UNL     1       6.536   1.336  11.214  0.00  0.00    +0.000 C 
ATOM     26  O   UNL     1       7.652   1.724  10.923  0.00  0.00    +0.000 OA
BRANCH  25  27
ATOM     27  O   UNL     1       6.243   0.018  11.335  0.00  0.00    +0.000 OA
ATOM     28  H   UNL     1       5.290  -0.162  11.422  0.00  0.00    +0.000 HD
ENDBRANCH  25  27
ENDBRANCH  24  25
ENDBRANCH  23  24
ENDBRANCH  22  23
ENDBRANCH  21  22
ENDBRANCH  20  21
ENDBRANCH   1  20
TORSDOF 9
ENDMDL
MODEL 3
REMARK VINA RESULT:      -7.9      1.162      1.284
REMARK  Name = 
REMARK  12 active torsions:
REMARK  status: ('A' for Active; 'I' for Inactive)
REMARK    1  A    between atoms: C_1  and  C_2
REMARK    2  A    between atoms: C_3  and  C_4
REMARK    3  A    between atoms: C_7  and  C_8
REMARK    4  A    between atoms: C_8  and  C_9
REMARK    5  A    between atoms: C_8  and  C_17
REMARK    6  A    between atoms: C_9  and  C_10
REMARK    7  A    between atoms: C_10  and  C_11
REMARK    8  A    between atoms: C_11  and  C_12
REMARK    9  A    between atoms: C_12  and  C_13
REMARK   10  A    between atoms: C_13  and  C_14
REMARK   11  A    between atoms: C_14  and  O_16
REMARK   12  A    between atoms: C_24  and  C_25
REMARK                            x       y       z     vdW  Elec       q    Type
REMARK                         _______ _______ _______ _____ _____    ______ ____
ROOT
ATOM      1  C   UNL     1       5.748   6.404  17.354  0.00  0.00    +0.000 C 
ENDROOT
BRANCH   1   8
ATOM      2  C   UNL     1       1.765   3.963  21.075  0.00  0.00    +0.000 C 
ATOM      3  C   UNL     1       2.828   4.488  20.152  0.00  0.00    +0.000 C 
ATOM      4  C   UNL     1       3.904   3.814  19.725  0.00  0.00    +0.000 C 
ATOM      5  C   UNL     1       4.202   2.358  19.961  0.00  0.00    +0.000 C 
ATOM      6  C   UNL     1       4.993   4.555  19.030  0.00  0.00    +0.000 C 
ATOM      7  O   UNL     1       6.127   4.090  19.077  0.00  0.00    +0.000 OA
ATOM      8  C   UNL     1       4.682   5.839  18.324  0.00  0.00    +0.000 C 
ATOM      9  C   UNL     1       3.520   6.451  18.647  0.00  0.00    +0.000 C 
ATOM     10  C   UNL     1       2.975   7.723  18.061  0.00  0.00    +0.000 C 
ATOM     11  C   UNL     1       2.630   5.894  19.717  0.00  0.00    +0.000 C 
ATOM     12  O   UNL     1       1.721   6.570  20.190  0.00  0.00    +0.000 OA
ENDBRANCH   1   8
BRANCH   1  13
ATOM     13  C   UNL     1       5.938   5.571  16.081  0.00  0.00    +0.000 A 
ATOM     14  C   UNL     1       7.238   5.328  15.596  0.00  0.00    +0.000 A 
ATOM     15  C   UNL     1       7.444   4.577  14.433  0.00  0.00    +0.000 A 
ATOM     16  C   UNL     1       6.355   4.068  13.741  0.00  0.00    +0.000 A 
ATOM     17  F   UNL     1       6.549   3.379  12.610  0.00  0.00    +0.000 F 
ATOM     18  C   UNL     1       5.066   4.254  14.215  0.00  0.00    +0.000 A 
ATOM     19  C   UNL     1       4.865   4.981  15.391  0.00  0.00    +0.000 A 
ENDBRANCH   1  13
BRANCH   1  20
ATOM     20  C   UNL     1       7.083   6.746  18.067  0.00  0.00    +0.000 C 
BRANCH  20  21
ATOM     21  C   UNL     1       7.969   7.773  17.343  0.00  0.00    +0.000 C 
BRANCH  21  22
ATOM     22  C   UNL     1       7.861   9.188  17.939  0.00  0.00    +0.000 C 
BRANCH  22  23
ATOM     23  C   UNL     1       9.052   9.534  18.839  0.00  0.00    +0.000 C 
BRANCH  23  24
ATOM     24  C   UNL     1       9.235  11.034  19.051  0.00  0.00    +0.000 C 
BRANCH  24  25
ATOM     25  C   UNL     1       9.964  11.305  20.351  0.00  0.00    +0.000 C 
ATOM     26  O   UNL     1      11.030  11.881  20.462  0.00  0.00    +0.000 OA
BRANCH  25  27
ATOM     27  O   UNL     1       9.288  10.833  21.427  0.00  0.00    +0.000 OA
ATOM     28  H   UNL     1       9.714  10.063  21.847  0.00  0.00    +0.000 HD
ENDBRANCH  25  27
ENDBRANCH  24  25
ENDBRANCH  23  24
ENDBRANCH  22  23
ENDBRANCH  21  22
ENDBRANCH  20  21
ENDBRANCH   1  20
TORSDOF 9
ENDMDL
MODEL 4
REMARK VINA RESULT:      -7.7      0.522      1.193
REMARK  Name = 
REMARK  12 active torsions:
REMARK  status: ('A' for Active; 'I' for Inactive)
REMARK    1  A    between atoms: C_1  and  C_2
REMARK    2  A    between atoms: C_3  and  C_4
REMARK    3  A    between atoms: C_7  and  C_8
REMARK    4  A    between atoms: C_8  and  C_9
REMARK    5  A    between atoms: C_8  and  C_17
REMARK    6  A    between atoms: C_9  and  C_10
REMARK    7  A    between atoms: C_10  and  C_11
REMARK    8  A    between atoms: C_11  and  C_12
REMARK    9  A    between atoms: C_12  and  C_13
REMARK   10  A    between atoms: C_13  and  C_14
REMARK   11  A    between atoms: C_14  and  O_16
REMARK   12  A    between atoms: C_24  and  C_25
REMARK                            x       y       z     vdW  Elec       q    Type
REMARK                         _______ _______ _______ _____ _____    ______ ____
ROOT
ATOM      1  C   UNL     1       5.866   6.412  17.155  0.00  0.00    +0.000 C 
ENDROOT
BRANCH   1   8
ATOM      2  C   UNL     1       1.883   4.115  20.966  0.00  0.00    +0.000 C 
ATOM      3  C   UNL     1       2.945   4.603  20.022  0.00  0.00    +0.000 C 
ATOM      4  C   UNL     1       4.010   3.906  19.606  0.00  0.00    +0.000 C 
ATOM      5  C   UNL     1       4.294   2.453  19.877  0.00  0.00    +0.000 C 
ATOM      6  C   UNL     1       5.103   4.616  18.884  0.00  0.00    +0.000 C 
ATOM      7  O   UNL     1       6.232   4.140  18.935  0.00  0.00    +0.000 OA
ATOM      8  C   UNL     1       4.801   5.885  18.147  0.00  0.00    +0.000 C 
ATOM      9  C   UNL     1       3.649   6.518  18.462  0.00  0.00    +0.000 C 
ATOM     10  C   UNL     1       3.114   7.781  17.847  0.00  0.00    +0.000 C 
ATOM     11  C   UNL     1       2.760   6.000  19.552  0.00  0.00    +0.000 C 
ATOM     12  O   UNL     1       1.862   6.698  20.013  0.00  0.00    +0.000 OA
ENDBRANCH   1   8
BRANCH   1  13
ATOM     13  C   UNL     1       6.036   5.546  15.901  0.00  0.00    +0.000 A 
ATOM     14  C   UNL     1       4.930   4.837  15.391  0.00  0.00    +0.000 A 
ATOM     15  C   UNL     1       5.054   4.033  14.253  0.00  0.00    +0.000 A 
ATOM     16  C   UNL     1       6.283   3.924  13.618  0.00  0.00    +0.000 A 
ATOM     17  F   UNL     1       6.411   3.127  12.550  0.00  0.00    +0.000 F 
ATOM     18  C   UNL     1       7.378   4.641  14.071  0.00  0.00    +0.000 A 
ATOM     19  C   UNL     1       7.246   5.464  15.191  0.00  0.00    +0.000 A 
ENDBRANCH   1  13
BRANCH   1  20
ATOM     20  C   UNL     1       7.212   6.754  17.849  0.00  0.00    +0.000 C 
BRANCH  20  21
ATOM     21  C   UNL     1       7.986   7.932  17.236  0.00  0.00    +0.000 C 
BRANCH  21  22
ATOM     22  C   UNL     1       7.851   9.231  18.050  0.00  0.00    +0.000 C 
BRANCH  22  23
ATOM     23  C   UNL     1       9.121   9.556  18.844  0.00  0.00    +0.000 C 
BRANCH  23  24
ATOM     24  C   UNL     1       9.192  11.009  19.305  0.00  0.00    +0.000 C 
BRANCH  24  25
ATOM     25  C   UNL     1      10.024  11.835  18.344  0.00  0.00    +0.000 C 
ATOM     26  O   UNL     1      10.848  11.400  17.562  0.00  0.00    +0.000 OA
BRANCH  25  27
ATOM     27  O   UNL     1       9.750  13.160  18.435  0.00  0.00    +0.000 OA
ATOM     28  H   UNL     1       9.579  13.460  19.346  0.00  0.00    +0.000 HD
ENDBRANCH  25  27
ENDBRANCH  24  25
ENDBRANCH  23  24
ENDBRANCH  22  23
ENDBRANCH  21  22
ENDBRANCH  20  21
ENDBRANCH   1  20
TORSDOF 9
ENDMDL
MODEL 5
REMARK VINA RESULT:      -7.7      4.009      6.964
REMARK  Name = 
REMARK  12 active torsions:
REMARK  status: ('A' for Active; 'I' for Inactive)
REMARK    1  A    between atoms: C_1  and  C_2
REMARK    2  A    between atoms: C_3  and  C_4
REMARK    3  A    between atoms: C_7  and  C_8
REMARK    4  A    between atoms: C_8  and  C_9
REMARK    5  A    between atoms: C_8  and  C_17
REMARK    6  A    between atoms: C_9  and  C_10
REMARK    7  A    between atoms: C_10  and  C_11
REMARK    8  A    between atoms: C_11  and  C_12
REMARK    9  A    between atoms: C_12  and  C_13
REMARK   10  A    between atoms: C_13  and  C_14
REMARK   11  A    between atoms: C_14  and  O_16
REMARK   12  A    between atoms: C_24  and  C_25
REMARK                            x       y       z     vdW  Elec       q    Type
REMARK                         _______ _______ _______ _____ _____    ______ ____
ROOT
ATOM      1  C   UNL     1       2.622   5.373  18.768  0.00  0.00    +0.000 C 
ENDROOT
BRANCH   1   8
ATOM      2  C   UNL     1       0.954  11.037  19.668  0.00  0.00    +0.000 C 
ATOM      3  C   UNL     1       1.327   9.587  19.537  0.00  0.00    +0.000 C 
ATOM      4  C   UNL     1       0.939   8.597  20.351  0.00  0.00    +0.000 C 
ATOM      5  C   UNL     1      -0.055   8.698  21.476  0.00  0.00    +0.000 C 
ATOM      6  C   UNL     1       1.602   7.268  20.241  0.00  0.00    +0.000 C 
ATOM      7  O   UNL     1       1.621   6.549  21.234  0.00  0.00    +0.000 OA
ATOM      8  C   UNL     1       2.237   6.862  18.945  0.00  0.00    +0.000 C 
ATOM      9  C   UNL     1       2.497   7.846  18.055  0.00  0.00    +0.000 C 
ATOM     10  C   UNL     1       3.098   7.690  16.686  0.00  0.00    +0.000 C 
ATOM     11  C   UNL     1       2.223   9.281  18.393  0.00  0.00    +0.000 C 
ATOM     12  O   UNL     1       2.689  10.185  17.707  0.00  0.00    +0.000 OA
ENDBRANCH   1   8
BRANCH   1  13
ATOM     13  C   UNL     1       4.106   5.145  18.454  0.00  0.00    +0.000 A 
ATOM     14  C   UNL     1       5.078   5.461  19.424  0.00  0.00    +0.000 A 
ATOM     15  C   UNL     1       6.440   5.271  19.165  0.00  0.00    +0.000 A 
ATOM     16  C   UNL     1       6.844   4.770  17.936  0.00  0.00    +0.000 A 
ATOM     17  F   UNL     1       8.148   4.621  17.674  0.00  0.00    +0.000 F 
ATOM     18  C   UNL     1       5.910   4.412  16.978  0.00  0.00    +0.000 A 
ATOM     19  C   UNL     1       4.550   4.577  17.248  0.00  0.00    +0.000 A 
ENDBRANCH   1  13
BRANCH   1  20
ATOM     20  C   UNL     1       1.670   4.621  17.801  0.00  0.00    +0.000 C 
BRANCH  20  21
ATOM     21  C   UNL     1       0.945   3.407  18.407  0.00  0.00    +0.000 C 
BRANCH  21  22
ATOM     22  C   UNL     1       0.990   3.386  19.945  0.00  0.00    +0.000 C 
BRANCH  22  23
ATOM     23  C   UNL     1       1.844   2.234  20.487  0.00  0.00    +0.000 C 
BRANCH  23  24
ATOM     24  C   UNL     1       3.134   2.699  21.156  0.00  0.00    +0.000 C 
BRANCH  24  25
ATOM     25  C   UNL     1       4.334   2.004  20.545  0.00  0.00    +0.000 C 
ATOM     26  O   UNL     1       5.348   1.685  21.135  0.00  0.00    +0.000 OA
BRANCH  25  27
ATOM     27  O   UNL     1       4.164   1.754  19.223  0.00  0.00    +0.000 OA
ATOM     28  H   UNL     1       3.521   1.045  19.041  0.00  0.00    +0.000 HD
ENDBRANCH  25  27
ENDBRANCH  24  25
ENDBRANCH  23  24
ENDBRANCH  22  23
ENDBRANCH  21  22
ENDBRANCH  20  21
ENDBRANCH   1  20
TORSDOF 9
ENDMDL
MODEL 6
REMARK VINA RESULT:      -7.6      0.973      1.153
REMARK  Name = 
REMARK  12 active torsions:
REMARK  status: ('A' for Active; 'I' for Inactive)
REMARK    1  A    between atoms: C_1  and  C_2
REMARK    2  A    between atoms: C_3  and  C_4
REMARK    3  A    between atoms: C_7  and  C_8
REMARK    4  A    between atoms: C_8  and  C_9
REMARK    5  A    between atoms: C_8  and  C_17
REMARK    6  A    between atoms: C_9  and  C_10
REMARK    7  A    between atoms: C_10  and  C_11
REMARK    8  A    between atoms: C_11  and  C_12
REMARK    9  A    between atoms: C_12  and  C_13
REMARK   10  A    between atoms: C_13  and  C_14
REMARK   11  A    between atoms: C_14  and  O_16
REMARK   12  A    between atoms: C_24  and  C_25
REMARK                            x       y       z     vdW  Elec       q    Type
REMARK                         _______ _______ _______ _____ _____    ______ ____
ROOT
ATOM      1  C   UNL     1       6.226   6.067  17.090  0.00  0.00    +0.000 C 
ENDROOT
BRANCH   1   8
ATOM      2  C   UNL     1       1.621   4.643  20.616  0.00  0.00    +0.000 C 
ATOM      3  C   UNL     1       2.826   4.907  19.758  0.00  0.00    +0.000 C 
ATOM      4  C   UNL     1       3.830   4.052  19.526  0.00  0.00    +0.000 C 
ATOM      5  C   UNL     1       3.898   2.611  19.952  0.00  0.00    +0.000 C 
ATOM      6  C   UNL     1       5.071   4.554  18.872  0.00  0.00    +0.000 C 
ATOM      7  O   UNL     1       6.119   3.956  19.090  0.00  0.00    +0.000 OA
ATOM      8  C   UNL     1       5.008   5.770  17.998  0.00  0.00    +0.000 C 
ATOM      9  C   UNL     1       3.920   6.561  18.126  0.00  0.00    +0.000 C 
ATOM     10  C   UNL     1       3.614   7.810  17.348  0.00  0.00    +0.000 C 
ATOM     11  C   UNL     1       2.867   6.262  19.151  0.00  0.00    +0.000 C 
ATOM     12  O   UNL     1       2.023   7.103  19.446  0.00  0.00    +0.000 OA
ENDBRANCH   1   8
BRANCH   1  13
ATOM     13  C   UNL     1       6.219   5.296  15.765  0.00  0.00    +0.000 A 
ATOM     14  C   UNL     1       7.341   5.365  14.915  0.00  0.00    +0.000 A 
ATOM     15  C   UNL     1       7.362   4.678  13.696  0.00  0.00    +0.000 A 
ATOM     16  C   UNL     1       6.264   3.924  13.311  0.00  0.00    +0.000 A 
ATOM     17  F   UNL     1       6.270   3.295  12.129  0.00  0.00    +0.000 F 
ATOM     18  C   UNL     1       5.163   3.803  14.143  0.00  0.00    +0.000 A 
ATOM     19  C   UNL     1       5.154   4.467  15.372  0.00  0.00    +0.000 A 
ENDBRANCH   1  13
BRANCH   1  20
ATOM     20  C   UNL     1       7.575   5.968  17.849  0.00  0.00    +0.000 C 
BRANCH  20  21
ATOM     21  C   UNL     1       7.952   7.203  18.684  0.00  0.00    +0.000 C 
BRANCH  21  22
ATOM     22  C   UNL     1       8.088   8.482  17.838  0.00  0.00    +0.000 C 
BRANCH  22  23
ATOM     23  C   UNL     1       8.866   9.583  18.567  0.00  0.00    +0.000 C 
BRANCH  23  24
ATOM     24  C   UNL     1       8.748  10.951  17.901  0.00  0.00    +0.000 C 
BRANCH  24  25
ATOM     25  C   UNL     1       9.259  12.040  18.822  0.00  0.00    +0.000 C 
ATOM     26  O   UNL     1       9.795  11.867  19.900  0.00  0.00    +0.000 OA
BRANCH  25  27
ATOM     27  O   UNL     1       9.063  13.280  18.309  0.00  0.00    +0.000 OA
ATOM     28  H   UNL     1       8.127  13.548  18.288  0.00  0.00    +0.000 HD
ENDBRANCH  25  27
ENDBRANCH  24  25
ENDBRANCH  23  24
ENDBRANCH  22  23
ENDBRANCH  21  22
ENDBRANCH  20  21
ENDBRANCH   1  20
TORSDOF 9
ENDMDL
MODEL 7
REMARK VINA RESULT:      -7.6      3.822      6.354
REMARK  Name = 
REMARK  12 active torsions:
REMARK  status: ('A' for Active; 'I' for Inactive)
REMARK    1  A    between atoms: C_1  and  C_2
REMARK    2  A    between atoms: C_3  and  C_4
REMARK    3  A    between atoms: C_7  and  C_8
REMARK    4  A    between atoms: C_8  and  C_9
REMARK    5  A    between atoms: C_8  and  C_17
REMARK    6  A    between atoms: C_9  and  C_10
REMARK    7  A    between atoms: C_10  and  C_11
REMARK    8  A    between atoms: C_11  and  C_12
REMARK    9  A    between atoms: C_12  and  C_13
REMARK   10  A    between atoms: C_13  and  C_14
REMARK   11  A    between atoms: C_14  and  O_16
REMARK   12  A    between atoms: C_24  and  C_25
REMARK                            x       y       z     vdW  Elec       q    Type
REMARK                         _______ _______ _______ _____ _____    ______ ____
ROOT
ATOM      1  C   UNL     1       5.531   5.232  16.890  0.00  0.00    +0.000 C 
ENDROOT
BRANCH   1   8
ATOM      2  C   UNL     1       0.778   4.058  20.310  0.00  0.00    +0.000 C 
ATOM      3  C   UNL     1       1.994   4.246  19.449  0.00  0.00    +0.000 C 
ATOM      4  C   UNL     1       2.732   3.270  18.904  0.00  0.00    +0.000 C 
ATOM      5  C   UNL     1       2.425   1.798  18.919  0.00  0.00    +0.000 C 
ATOM      6  C   UNL     1       4.050   3.612  18.298  0.00  0.00    +0.000 C 
ATOM      7  O   UNL     1       4.906   2.737  18.251  0.00  0.00    +0.000 OA
ATOM      8  C   UNL     1       4.295   5.002  17.793  0.00  0.00    +0.000 C 
ATOM      9  C   UNL     1       3.456   5.969  18.228  0.00  0.00    +0.000 C 
ATOM     10  C   UNL     1       3.477   7.423  17.845  0.00  0.00    +0.000 C 
ATOM     11  C   UNL     1       2.381   5.663  19.226  0.00  0.00    +0.000 C 
ATOM     12  O   UNL     1       1.795   6.568  19.813  0.00  0.00    +0.000 OA
ENDBRANCH   1   8
BRANCH   1  13
ATOM     13  C   UNL     1       6.546   6.228  17.464  0.00  0.00    +0.000 A 
ATOM     14  C   UNL     1       7.361   5.843  18.548  0.00  0.00    +0.000 A 
ATOM     15  C   UNL     1       8.292   6.731  19.097  0.00  0.00    +0.000 A 
ATOM     16  C   UNL     1       8.414   8.011  18.577  0.00  0.00    +0.000 A 
ATOM     17  F   UNL     1       9.280   8.873  19.125  0.00  0.00    +0.000 F 
ATOM     18  C   UNL     1       7.657   8.405  17.486  0.00  0.00    +0.000 A 
ATOM     19  C   UNL     1       6.747   7.508  16.921  0.00  0.00    +0.000 A 
ENDBRANCH   1  13
BRANCH   1  20
ATOM     20  C   UNL     1       5.148   5.530  15.416  0.00  0.00    +0.000 C 
BRANCH  20  21
ATOM     21  C   UNL     1       5.237   4.330  14.460  0.00  0.00    +0.000 C 
BRANCH  21  22
ATOM     22  C   UNL     1       6.625   4.179  13.811  0.00  0.00    +0.000 C 
BRANCH  22  23
ATOM     23  C   UNL     1       6.546   4.062  12.285  0.00  0.00    +0.000 C 
BRANCH  23  24
ATOM     24  C   UNL     1       7.033   2.716  11.755  0.00  0.00    +0.000 C 
BRANCH  24  25
ATOM     25  C   UNL     1       5.859   1.829  11.391  0.00  0.00    +0.000 C 
ATOM     26  O   UNL     1       5.913   0.635  11.168  0.00  0.00    +0.000 OA
BRANCH  25  27
ATOM     27  O   UNL     1       4.692   2.517  11.340  0.00  0.00    +0.000 OA
ATOM     28  H   UNL     1       4.767   3.377  10.889  0.00  0.00    +0.000 HD
ENDBRANCH  25  27
ENDBRANCH  24  25
ENDBRANCH  23  24
ENDBRANCH  22  23
ENDBRANCH  21  22
ENDBRANCH  20  21
ENDBRANCH   1  20
TORSDOF 9
ENDMDL
MODEL 8
REMARK VINA RESULT:      -7.5      0.967      1.206
REMARK  Name = 
REMARK  12 active torsions:
REMARK  status: ('A' for Active; 'I' for Inactive)
REMARK    1  A    between atoms: C_1  and  C_2
REMARK    2  A    between atoms: C_3  and  C_4
REMARK    3  A    between atoms: C_7  and  C_8
REMARK    4  A    between atoms: C_8  and  C_9
REMARK    5  A    between atoms: C_8  and  C_17
REMARK    6  A    between atoms: C_9  and  C_10
REMARK    7  A    between atoms: C_10  and  C_11
REMARK    8  A    between atoms: C_11  and  C_12
REMARK    9  A    between atoms: C_12  and  C_13
REMARK   10  A    between atoms: C_13  and  C_14
REMARK   11  A    between atoms: C_14  and  O_16
REMARK   12  A    between atoms: C_24  and  C_25
REMARK                            x       y       z     vdW  Elec       q    Type
REMARK                         _______ _______ _______ _____ _____    ______ ____
ROOT
ATOM      1  C   UNL     1       5.473   6.196  17.841  0.00  0.00    +0.000 C 
ENDROOT
BRANCH   1   8
ATOM      2  C   UNL     1       1.334   3.479  21.181  0.00  0.00    +0.000 C 
ATOM      3  C   UNL     1       2.435   4.071  20.346  0.00  0.00    +0.000 C 
ATOM      4  C   UNL     1       3.510   3.420  19.885  0.00  0.00    +0.000 C 
ATOM      5  C   UNL     1       3.775   1.942  19.981  0.00  0.00    +0.000 C 
ATOM      6  C   UNL     1       4.634   4.204  19.299  0.00  0.00    +0.000 C 
ATOM      7  O   UNL     1       5.757   3.713  19.332  0.00  0.00    +0.000 OA
ATOM      8  C   UNL     1       4.368   5.559  18.718  0.00  0.00    +0.000 C 
ATOM      9  C   UNL     1       3.208   6.160  19.067  0.00  0.00    +0.000 C 
ATOM     10  C   UNL     1       2.705   7.496  18.597  0.00  0.00    +0.000 C 
ATOM     11  C   UNL     1       2.275   5.518  20.050  0.00  0.00    +0.000 C 
ATOM     12  O   UNL     1       1.365   6.162  20.562  0.00  0.00    +0.000 OA
ENDBRANCH   1   8
BRANCH   1  13
ATOM     13  C   UNL     1       5.709   5.471  16.510  0.00  0.00    +0.000 A 
ATOM     14  C   UNL     1       5.309   6.083  15.305  0.00  0.00    +0.000 A 
ATOM     15  C   UNL     1       5.505   5.444  14.075  0.00  0.00    +0.000 A 
ATOM     16  C   UNL     1       6.094   4.189  14.037  0.00  0.00    +0.000 A 
ATOM     17  F   UNL     1       6.250   3.563  12.865  0.00  0.00    +0.000 F 
ATOM     18  C   UNL     1       6.535   3.580  15.201  0.00  0.00    +0.000 A 
ATOM     19  C   UNL     1       6.364   4.231  16.425  0.00  0.00    +0.000 A 
ENDBRANCH   1  13
BRANCH   1  20
ATOM     20  C   UNL     1       6.781   6.466  18.631  0.00  0.00    +0.000 C 
BRANCH  20  21
ATOM     21  C   UNL     1       7.909   7.131  17.825  0.00  0.00    +0.000 C 
BRANCH  21  22
ATOM     22  C   UNL     1       7.756   8.660  17.725  0.00  0.00    +0.000 C 
BRANCH  22  23
ATOM     23  C   UNL     1       8.818   9.406  18.540  0.00  0.00    +0.000 C 
BRANCH  23  24
ATOM     24  C   UNL     1       8.972  10.870  18.137  0.00  0.00    +0.000 C 
BRANCH  24  25
ATOM     25  C   UNL     1      10.404  11.328  18.327  0.00  0.00    +0.000 C 
ATOM     26  O   UNL     1      11.067  11.193  19.337  0.00  0.00    +0.000 OA
BRANCH  25  27
ATOM     27  O   UNL     1      10.903  11.925  17.216  0.00  0.00    +0.000 OA
ATOM     28  H   UNL     1      10.644  12.859  17.126  0.00  0.00    +0.000 HD
ENDBRANCH  25  27
ENDBRANCH  24  25
ENDBRANCH  23  24
ENDBRANCH  22  23
ENDBRANCH  21  22
ENDBRANCH  20  21
ENDBRANCH   1  20
TORSDOF 9
ENDMDL
MODEL 9
REMARK VINA RESULT:      -7.4      1.251      2.277
REMARK  Name = 
REMARK  12 active torsions:
REMARK  status: ('A' for Active; 'I' for Inactive)
REMARK    1  A    between atoms: C_1  and  C_2
REMARK    2  A    between atoms: C_3  and  C_4
REMARK    3  A    between atoms: C_7  and  C_8
REMARK    4  A    between atoms: C_8  and  C_9
REMARK    5  A    between atoms: C_8  and  C_17
REMARK    6  A    between atoms: C_9  and  C_10
REMARK    7  A    between atoms: C_10  and  C_11
REMARK    8  A    between atoms: C_11  and  C_12
REMARK    9  A    between atoms: C_12  and  C_13
REMARK   10  A    between atoms: C_13  and  C_14
REMARK   11  A    between atoms: C_14  and  O_16
REMARK   12  A    between atoms: C_24  and  C_25
REMARK                            x       y       z     vdW  Elec       q    Type
REMARK                         _______ _______ _______ _____ _____    ______ ____
ROOT
ATOM      1  C   UNL     1       5.813   6.560  16.983  0.00  0.00    +0.000 C 
ENDROOT
BRANCH   1   8
ATOM      2  C   UNL     1       1.458   5.121  20.808  0.00  0.00    +0.000 C 
ATOM      3  C   UNL     1       2.502   5.578  19.829  0.00  0.00    +0.000 C 
ATOM      4  C   UNL     1       2.580   6.792  19.269  0.00  0.00    +0.000 C 
ATOM      5  C   UNL     1       1.732   7.990  19.602  0.00  0.00    +0.000 C 
ATOM      6  C   UNL     1       3.512   7.004  18.126  0.00  0.00    +0.000 C 
ATOM      7  O   UNL     1       3.252   7.898  17.329  0.00  0.00    +0.000 OA
ATOM      8  C   UNL     1       4.709   6.116  17.973  0.00  0.00    +0.000 C 
ATOM      9  C   UNL     1       4.699   4.950  18.657  0.00  0.00    +0.000 C 
ATOM     10  C   UNL     1       5.787   3.912  18.690  0.00  0.00    +0.000 C 
ATOM     11  C   UNL     1       3.506   4.545  19.470  0.00  0.00    +0.000 C 
ATOM     12  O   UNL     1       3.387   3.392  19.874  0.00  0.00    +0.000 OA
ENDBRANCH   1   8
BRANCH   1  13
ATOM     13  C   UNL     1       5.978   5.632  15.774  0.00  0.00    +0.000 A 
ATOM     14  C   UNL     1       7.255   5.448  15.208  0.00  0.00    +0.000 A 
ATOM     15  C   UNL     1       7.437   4.612  14.100  0.00  0.00    +0.000 A 
ATOM     16  C   UNL     1       6.347   3.959  13.544  0.00  0.00    +0.000 A 
ATOM     17  F   UNL     1       6.515   3.187  12.463  0.00  0.00    +0.000 F 
ATOM     18  C   UNL     1       5.086   4.087  14.103  0.00  0.00    +0.000 A 
ATOM     19  C   UNL     1       4.911   4.900  15.225  0.00  0.00    +0.000 A 
ENDBRANCH   1  13
BRANCH   1  20
ATOM     20  C   UNL     1       7.154   6.888  17.691  0.00  0.00    +0.000 C 
BRANCH  20  21
ATOM     21  C   UNL     1       7.678   8.317  17.475  0.00  0.00    +0.000 C 
BRANCH  21  22
ATOM     22  C   UNL     1       8.673   8.764  18.562  0.00  0.00    +0.000 C 
BRANCH  22  23
ATOM     23  C   UNL     1       8.980  10.264  18.490  0.00  0.00    +0.000 C 
BRANCH  23  24
ATOM     24  C   UNL     1       9.591  10.819  19.774  0.00  0.00    +0.000 C 
BRANCH  24  25
ATOM     25  C   UNL     1      10.575  11.928  19.461  0.00  0.00    +0.000 C 
ATOM     26  O   UNL     1      10.421  12.803  18.631  0.00  0.00    +0.000 OA
BRANCH  25  27
ATOM     27  O   UNL     1      11.690  11.857  20.230  0.00  0.00    +0.000 OA
ATOM     28  H   UNL     1      12.203  11.040  20.096  0.00  0.00    +0.000 HD
ENDBRANCH  25  27
ENDBRANCH  24  25
ENDBRANCH  23  24
ENDBRANCH  22  23
ENDBRANCH  21  22
ENDBRANCH  20  21
ENDBRANCH   1  20
TORSDOF 9
ENDMDL
