MODEL 1
REMARK VINA RESULT:      -7.4      0.000      0.000
REMARK  Name = 
REMARK  3 active torsions:
REMARK  status: ('A' for Active; 'I' for Inactive)
REMARK    1  A    between atoms: C_2  and  C_13
REMARK    2  A    between atoms: N_3  and  C_4
REMARK    3  A    between atoms: C_4  and  C_5
REMARK                            x       y       z     vdW  Elec       q    Type
REMARK                         _______ _______ _______ _____ _____    ______ ____
ROOT
ATOM      1  O   UNL     1       5.650   3.589  19.507  0.00  0.00    +0.000 OA
ATOM      2  C   UNL     1       4.702   4.168  18.989  0.00  0.00    +0.000 C 
ATOM      3  N   UNL     1       4.872   5.125  18.013  0.00  0.00    +0.000 N 
ATOM      4  H   UNL     1       4.075   5.585  17.591  0.00  0.00    +0.000 HD
ENDROOT
BRANCH   2   5
ATOM      5  C   UNL     1       3.303   3.883  19.414  0.00  0.00    +0.000 A 
ATOM      6  C   UNL     1       2.569   4.872  20.086  0.00  0.00    +0.000 A 
ATOM      7  F   UNL     1       3.094   6.085  20.316  0.00  0.00    +0.000 F 
ATOM      8  C   UNL     1       1.274   4.639  20.546  0.00  0.00    +0.000 A 
ATOM      9  C   UNL     1       0.679   3.400  20.346  0.00  0.00    +0.000 A 
ATOM     10  C   UNL     1       1.389   2.401  19.678  0.00  0.00    +0.000 A 
ATOM     11  C   UNL     1       2.694   2.635  19.213  0.00  0.00    +0.000 A 
ATOM     12 CL   UNL     1       3.435   1.327  18.356  0.00  0.00    +0.000 Cl
ENDBRANCH   2   5
BRANCH   3  13
ATOM     13  C   UNL     1       6.181   5.524  17.548  0.00  0.00    +0.000 C 
BRANCH  13  14
ATOM     14  C   UNL     1       6.340   5.130  16.120  0.00  0.00    +0.000 A 
ATOM     15  C   UNL     1       5.646   4.150  15.416  0.00  0.00    +0.000 A 
ATOM     16  N   UNL     1       6.206   4.157  14.178  0.00  0.00    +0.000 N 
ATOM     17  C   UNL     1       6.059   3.455  13.004  0.00  0.00    +0.000 A 
ATOM     18  C   UNL     1       6.925   3.878  12.065  0.00  0.00    +0.000 A 
ATOM     19  S   UNL     1       7.965   5.199  12.633  0.00  0.00    +0.000 S 
ATOM     20  C   UNL     1       7.168   5.120  14.173  0.00  0.00    +0.000 A 
ATOM     21  N   UNL     1       7.293   5.744  15.312  0.00  0.00    +0.000 NA
ENDBRANCH  13  14
ENDBRANCH   3  13
TORSDOF 3
ENDMDL
MODEL 2
REMARK VINA RESULT:      -7.2      1.917      2.195
REMARK  Name = 
REMARK  3 active torsions:
REMARK  status: ('A' for Active; 'I' for Inactive)
REMARK    1  A    between atoms: C_2  and  C_13
REMARK    2  A    between atoms: N_3  and  C_4
REMARK    3  A    between atoms: C_4  and  C_5
REMARK                            x       y       z     vdW  Elec       q    Type
REMARK                         _______ _______ _______ _____ _____    ______ ____
ROOT
ATOM      1  O   UNL     1       4.056   5.891  17.619  0.00  0.00    +0.000 OA
ATOM      2  C   UNL     1       4.179   4.796  18.157  0.00  0.00    +0.000 C 
ATOM      3  N   UNL     1       5.399   4.166  18.268  0.00  0.00    +0.000 N 
ATOM      4  H   UNL     1       5.480   3.266  18.724  0.00  0.00    +0.000 HD
ENDROOT
BRANCH   2   5
ATOM      5  C   UNL     1       2.996   4.070  18.699  0.00  0.00    +0.000 A 
ATOM      6  C   UNL     1       2.726   2.764  18.261  0.00  0.00    +0.000 A 
ATOM      7  F   UNL     1       3.539   2.145  17.393  0.00  0.00    +0.000 F 
ATOM      8  C   UNL     1       1.607   2.060  18.702  0.00  0.00    +0.000 A 
ATOM      9  C   UNL     1       0.722   2.652  19.595  0.00  0.00    +0.000 A 
ATOM     10  C   UNL     1       0.972   3.948  20.046  0.00  0.00    +0.000 A 
ATOM     11  C   UNL     1       2.100   4.659  19.603  0.00  0.00    +0.000 A 
ATOM     12 CL   UNL     1       2.313   6.235  20.284  0.00  0.00    +0.000 Cl
ENDBRANCH   2   5
BRANCH   3  13
ATOM     13  C   UNL     1       6.613   4.745  17.741  0.00  0.00    +0.000 C 
BRANCH  13  14
ATOM     14  C   UNL     1       6.637   4.584  16.260  0.00  0.00    +0.000 A 
ATOM     15  C   UNL     1       5.942   3.659  15.485  0.00  0.00    +0.000 A 
ATOM     16  N   UNL     1       6.355   3.900  14.213  0.00  0.00    +0.000 N 
ATOM     17  C   UNL     1       6.127   3.369  12.964  0.00  0.00    +0.000 A 
ATOM     18  C   UNL     1       6.846   4.005  12.021  0.00  0.00    +0.000 A 
ATOM     19  S   UNL     1       7.843   5.317  12.680  0.00  0.00    +0.000 S 
ATOM     20  C   UNL     1       7.235   4.938  14.262  0.00  0.00    +0.000 A 
ATOM     21  N   UNL     1       7.443   5.395  15.466  0.00  0.00    +0.000 NA
ENDBRANCH  13  14
ENDBRANCH   3  13
TORSDOF 3
ENDMDL
MODEL 3
REMARK VINA RESULT:      -7.1      1.741      1.989
REMARK  Name = 
REMARK  3 active torsions:
REMARK  status: ('A' for Active; 'I' for Inactive)
REMARK    1  A    between atoms: C_2  and  C_13
REMARK    2  A    between atoms: N_3  and  C_4
REMARK    3  A    between atoms: C_4  and  C_5
REMARK                            x       y       z     vdW  Elec       q    Type
REMARK                         _______ _______ _______ _____ _____    ______ ____
ROOT
ATOM      1  O   UNL     1       5.866   5.152  20.074  0.00  0.00    +0.000 OA
ATOM      2  C   UNL     1       5.100   4.585  19.303  0.00  0.00    +0.000 C 
ATOM      3  N   UNL     1       5.454   4.289  18.005  0.00  0.00    +0.000 N 
ATOM      4  H   UNL     1       4.810   3.812  17.386  0.00  0.00    +0.000 HD
ENDROOT
BRANCH   2   5
ATOM      5  C   UNL     1       3.722   4.209  19.727  0.00  0.00    +0.000 A 
ATOM      6  C   UNL     1       3.465   2.896  20.153  0.00  0.00    +0.000 A 
ATOM      7  F   UNL     1       4.448   1.988  20.222  0.00  0.00    +0.000 F 
ATOM      8  C   UNL     1       2.185   2.481  20.515  0.00  0.00    +0.000 A 
ATOM      9  C   UNL     1       1.123   3.375  20.456  0.00  0.00    +0.000 A 
ATOM     10  C   UNL     1       1.355   4.686  20.037  0.00  0.00    +0.000 A 
ATOM     11  C   UNL     1       2.646   5.106  19.673  0.00  0.00    +0.000 A 
ATOM     12 CL   UNL     1       2.798   6.771  19.226  0.00  0.00    +0.000 Cl
ENDBRANCH   2   5
BRANCH   3  13
ATOM     13  C   UNL     1       6.744   4.644  17.459  0.00  0.00    +0.000 C 
BRANCH  13  14
ATOM     14  C   UNL     1       6.710   4.505  15.976  0.00  0.00    +0.000 A 
ATOM     15  C   UNL     1       5.942   3.631  15.212  0.00  0.00    +0.000 A 
ATOM     16  N   UNL     1       6.324   3.870  13.931  0.00  0.00    +0.000 N 
ATOM     17  C   UNL     1       6.028   3.372  12.683  0.00  0.00    +0.000 A 
ATOM     18  C   UNL     1       6.747   3.984  11.725  0.00  0.00    +0.000 A 
ATOM     19  S   UNL     1       7.833   5.232  12.368  0.00  0.00    +0.000 S 
ATOM     20  C   UNL     1       7.258   4.860  13.965  0.00  0.00    +0.000 A 
ATOM     21  N   UNL     1       7.531   5.286  15.167  0.00  0.00    +0.000 NA
ENDBRANCH  13  14
ENDBRANCH   3  13
TORSDOF 3
ENDMDL
MODEL 4
REMARK VINA RESULT:      -7.1      1.014      1.014
REMARK  Name = 
REMARK  3 active torsions:
REMARK  status: ('A' for Active; 'I' for Inactive)
REMARK    1  A    between atoms: C_2  and  C_13
REMARK    2  A    between atoms: N_3  and  C_4
REMARK    3  A    between atoms: C_4  and  C_5
REMARK                            x       y       z     vdW  Elec       q    Type
REMARK                         _______ _______ _______ _____ _____    ______ ____
ROOT
ATOM      1  O   UNL     1       4.288   6.241  17.659  0.00  0.00    +0.000 OA
ATOM      2  C   UNL     1       4.387   5.196  18.292  0.00  0.00    +0.000 C 
ATOM      3  N   UNL     1       5.581   4.520  18.410  0.00  0.00    +0.000 N 
ATOM      4  H   UNL     1       5.643   3.663  18.945  0.00  0.00    +0.000 HD
ENDROOT
BRANCH   2   5
ATOM      5  C   UNL     1       3.199   4.582  18.950  0.00  0.00    +0.000 A 
ATOM      6  C   UNL     1       2.427   5.348  19.837  0.00  0.00    +0.000 A 
ATOM      7  F   UNL     1       2.719   6.636  20.070  0.00  0.00    +0.000 F 
ATOM      8  C   UNL     1       1.336   4.807  20.514  0.00  0.00    +0.000 A 
ATOM      9  C   UNL     1       0.990   3.476  20.320  0.00  0.00    +0.000 A 
ATOM     10  C   UNL     1       1.741   2.695  19.441  0.00  0.00    +0.000 A 
ATOM     11  C   UNL     1       2.841   3.239  18.758  0.00  0.00    +0.000 A 
ATOM     12 CL   UNL     1       3.649   2.173  17.660  0.00  0.00    +0.000 Cl
ENDBRANCH   2   5
BRANCH   3  13
ATOM     13  C   UNL     1       6.794   4.987  17.779  0.00  0.00    +0.000 C 
BRANCH  13  14
ATOM     14  C   UNL     1       6.723   4.727  16.314  0.00  0.00    +0.000 A 
ATOM     15  C   UNL     1       5.947   3.784  15.645  0.00  0.00    +0.000 A 
ATOM     16  N   UNL     1       6.291   3.922  14.338  0.00  0.00    +0.000 N 
ATOM     17  C   UNL     1       5.969   3.320  13.144  0.00  0.00    +0.000 A 
ATOM     18  C   UNL     1       6.654   3.860  12.120  0.00  0.00    +0.000 A 
ATOM     19  S   UNL     1       7.739   5.169  12.629  0.00  0.00    +0.000 S 
ATOM     20  C   UNL     1       7.213   4.922  14.265  0.00  0.00    +0.000 A 
ATOM     21  N   UNL     1       7.511   5.448  15.421  0.00  0.00    +0.000 NA
ENDBRANCH  13  14
ENDBRANCH   3  13
TORSDOF 3
ENDMDL
MODEL 5
REMARK VINA RESULT:      -6.9      5.025      7.327
REMARK  Name = 
REMARK  3 active torsions:
REMARK  status: ('A' for Active; 'I' for Inactive)
REMARK    1  A    between atoms: C_2  and  C_13
REMARK    2  A    between atoms: N_3  and  C_4
REMARK    3  A    between atoms: C_4  and  C_5
REMARK                            x       y       z     vdW  Elec       q    Type
REMARK                         _______ _______ _______ _____ _____    ______ ____
ROOT
ATOM      1  O   UNL     1       3.944   6.190  19.342  0.00  0.00    +0.000 OA
ATOM      2  C   UNL     1       2.874   5.920  18.807  0.00  0.00    +0.000 C 
ATOM      3  N   UNL     1       2.058   6.892  18.272  0.00  0.00    +0.000 N 
ATOM      4  H   UNL     1       1.183   6.648  17.825  0.00  0.00    +0.000 HD
ENDROOT
BRANCH   2   5
ATOM      5  C   UNL     1       2.386   4.515  18.732  0.00  0.00    +0.000 A 
ATOM      6  C   UNL     1       1.388   4.082  19.619  0.00  0.00    +0.000 A 
ATOM      7  F   UNL     1       0.839   4.925  20.506  0.00  0.00    +0.000 F 
ATOM      8  C   UNL     1       0.931   2.766  19.621  0.00  0.00    +0.000 A 
ATOM      9  C   UNL     1       1.467   1.843  18.731  0.00  0.00    +0.000 A 
ATOM     10  C   UNL     1       2.458   2.252  17.838  0.00  0.00    +0.000 A 
ATOM     11  C   UNL     1       2.920   3.579  17.835  0.00  0.00    +0.000 A 
ATOM     12 CL   UNL     1       4.112   3.959  16.639  0.00  0.00    +0.000 Cl
ENDBRANCH   2   5
BRANCH   3  13
ATOM     13  C   UNL     1       2.397   8.296  18.323  0.00  0.00    +0.000 C 
BRANCH  13  14
ATOM     14  C   UNL     1       1.534   8.978  19.327  0.00  0.00    +0.000 A 
ATOM     15  C   UNL     1       0.823  10.167  19.183  0.00  0.00    +0.000 A 
ATOM     16  N   UNL     1       0.251  10.372  20.398  0.00  0.00    +0.000 N 
ATOM     17  C   UNL     1      -0.538  11.332  20.989  0.00  0.00    +0.000 A 
ATOM     18  C   UNL     1      -0.801  11.030  22.273  0.00  0.00    +0.000 A 
ATOM     19  S   UNL     1      -0.062   9.502  22.789  0.00  0.00    +0.000 S 
ATOM     20  C   UNL     1       0.606   9.327  21.195  0.00  0.00    +0.000 A 
ATOM     21  N   UNL     1       1.375   8.453  20.606  0.00  0.00    +0.000 NA
ENDBRANCH  13  14
ENDBRANCH   3  13
TORSDOF 3
ENDMDL
MODEL 6
REMARK VINA RESULT:      -6.8      1.009      1.230
REMARK  Name = 
REMARK  3 active torsions:
REMARK  status: ('A' for Active; 'I' for Inactive)
REMARK    1  A    between atoms: C_2  and  C_13
REMARK    2  A    between atoms: N_3  and  C_4
REMARK    3  A    between atoms: C_4  and  C_5
REMARK                            x       y       z     vdW  Elec       q    Type
REMARK                         _______ _______ _______ _____ _____    ______ ____
ROOT
ATOM      1  O   UNL     1       5.673   4.028  19.469  0.00  0.00    +0.000 OA
ATOM      2  C   UNL     1       4.670   4.347  18.840  0.00  0.00    +0.000 C 
ATOM      3  N   UNL     1       4.734   5.124  17.704  0.00  0.00    +0.000 N 
ATOM      4  H   UNL     1       3.895   5.369  17.193  0.00  0.00    +0.000 HD
ENDROOT
BRANCH   2   5
ATOM      5  C   UNL     1       3.313   3.930  19.293  0.00  0.00    +0.000 A 
ATOM      6  C   UNL     1       2.502   4.845  19.981  0.00  0.00    +0.000 A 
ATOM      7  F   UNL     1       2.913   6.102  20.201  0.00  0.00    +0.000 F 
ATOM      8  C   UNL     1       1.246   4.489  20.467  0.00  0.00    +0.000 A 
ATOM      9  C   UNL     1       0.768   3.198  20.277  0.00  0.00    +0.000 A 
ATOM     10  C   UNL     1       1.557   2.272  19.594  0.00  0.00    +0.000 A 
ATOM     11  C   UNL     1       2.823   2.629  19.103  0.00  0.00    +0.000 A 
ATOM     12 CL   UNL     1       3.668   1.398  18.229  0.00  0.00    +0.000 Cl
ENDBRANCH   2   5
BRANCH   3  13
ATOM     13  C   UNL     1       5.985   5.631  17.189  0.00  0.00    +0.000 C 
BRANCH  13  14
ATOM     14  C   UNL     1       6.204   5.104  15.812  0.00  0.00    +0.000 A 
ATOM     15  C   UNL     1       7.306   5.298  14.983  0.00  0.00    +0.000 A 
ATOM     16  N   UNL     1       6.983   4.656  13.830  0.00  0.00    +0.000 N 
ATOM     17  C   UNL     1       7.554   4.460  12.594  0.00  0.00    +0.000 A 
ATOM     18  C   UNL     1       6.753   3.737  11.790  0.00  0.00    +0.000 A 
ATOM     19  S   UNL     1       5.233   3.266  12.575  0.00  0.00    +0.000 S 
ATOM     20  C   UNL     1       5.753   4.100  14.007  0.00  0.00    +0.000 A 
ATOM     21  N   UNL     1       5.234   4.331  15.181  0.00  0.00    +0.000 NA
ENDBRANCH  13  14
ENDBRANCH   3  13
TORSDOF 3
ENDMDL
MODEL 7
REMARK VINA RESULT:      -6.8      5.290      7.658
REMARK  Name = 
REMARK  3 active torsions:
REMARK  status: ('A' for Active; 'I' for Inactive)
REMARK    1  A    between atoms: C_2  and  C_13
REMARK    2  A    between atoms: N_3  and  C_4
REMARK    3  A    between atoms: C_4  and  C_5
REMARK                            x       y       z     vdW  Elec       q    Type
REMARK                         _______ _______ _______ _____ _____    ______ ____
ROOT
ATOM      1  O   UNL     1       4.040   6.872  17.158  0.00  0.00    +0.000 OA
ATOM      2  C   UNL     1       3.228   6.388  17.939  0.00  0.00    +0.000 C 
ATOM      3  N   UNL     1       2.263   7.151  18.559  0.00  0.00    +0.000 N 
ATOM      4  H   UNL     1       1.595   6.731  19.193  0.00  0.00    +0.000 HD
ENDROOT
BRANCH   2   5
ATOM      5  C   UNL     1       3.262   4.939  18.282  0.00  0.00    +0.000 A 
ATOM      6  C   UNL     1       2.170   4.123  17.948  0.00  0.00    +0.000 A 
ATOM      7  F   UNL     1       1.114   4.621  17.288  0.00  0.00    +0.000 F 
ATOM      8  C   UNL     1       2.133   2.773  18.288  0.00  0.00    +0.000 A 
ATOM      9  C   UNL     1       3.194   2.202  18.980  0.00  0.00    +0.000 A 
ATOM     10  C   UNL     1       4.291   2.993  19.321  0.00  0.00    +0.000 A 
ATOM     11  C   UNL     1       4.330   4.354  18.978  0.00  0.00    +0.000 A 
ATOM     12 CL   UNL     1       5.775   5.201  19.416  0.00  0.00    +0.000 Cl
ENDBRANCH   2   5
BRANCH   3  13
ATOM     13  C   UNL     1       2.155   8.576  18.345  0.00  0.00    +0.000 C 
BRANCH  13  14
ATOM     14  C   UNL     1       1.344   9.182  19.439  0.00  0.00    +0.000 A 
ATOM     15  C   UNL     1       0.612  10.366  19.411  0.00  0.00    +0.000 A 
ATOM     16  N   UNL     1       0.109  10.485  20.668  0.00  0.00    +0.000 N 
ATOM     17  C   UNL     1      -0.655  11.394  21.363  0.00  0.00    +0.000 A 
ATOM     18  C   UNL     1      -0.840  11.008  22.638  0.00  0.00    +0.000 A 
ATOM     19  S   UNL     1      -0.053   9.463  23.013  0.00  0.00    +0.000 S 
ATOM     20  C   UNL     1       0.522   9.398  21.375  0.00  0.00    +0.000 A 
ATOM     21  N   UNL     1       1.265   8.575  20.689  0.00  0.00    +0.000 NA
ENDBRANCH  13  14
ENDBRANCH   3  13
TORSDOF 3
ENDMDL
MODEL 8
REMARK VINA RESULT:      -6.8      1.953      2.371
REMARK  Name = 
REMARK  3 active torsions:
REMARK  status: ('A' for Active; 'I' for Inactive)
REMARK    1  A    between atoms: C_2  and  C_13
REMARK    2  A    between atoms: N_3  and  C_4
REMARK    3  A    between atoms: C_4  and  C_5
REMARK                            x       y       z     vdW  Elec       q    Type
REMARK                         _______ _______ _______ _____ _____    ______ ____
ROOT
ATOM      1  O   UNL     1       5.457   3.269  19.670  0.00  0.00    +0.000 OA
ATOM      2  C   UNL     1       4.607   3.646  18.872  0.00  0.00    +0.000 C 
ATOM      3  N   UNL     1       4.929   4.383  17.752  0.00  0.00    +0.000 N 
ATOM      4  H   UNL     1       4.213   4.677  17.100  0.00  0.00    +0.000 HD
ENDROOT
BRANCH   2   5
ATOM      5  C   UNL     1       3.164   3.348  19.088  0.00  0.00    +0.000 A 
ATOM      6  C   UNL     1       2.646   2.108  18.686  0.00  0.00    +0.000 A 
ATOM      7  F   UNL     1       3.439   1.171  18.146  0.00  0.00    +0.000 F 
ATOM      8  C   UNL     1       1.294   1.798  18.823  0.00  0.00    +0.000 A 
ATOM      9  C   UNL     1       0.421   2.732  19.368  0.00  0.00    +0.000 A 
ATOM     10  C   UNL     1       0.914   3.971  19.777  0.00  0.00    +0.000 A 
ATOM     11  C   UNL     1       2.276   4.284  19.640  0.00  0.00    +0.000 A 
ATOM     12 CL   UNL     1       2.757   5.835  20.238  0.00  0.00    +0.000 Cl
ENDBRANCH   2   5
BRANCH   3  13
ATOM     13  C   UNL     1       6.287   4.776  17.455  0.00  0.00    +0.000 C 
BRANCH  13  14
ATOM     14  C   UNL     1       6.536   4.631  15.993  0.00  0.00    +0.000 A 
ATOM     15  C   UNL     1       7.465   5.310  15.208  0.00  0.00    +0.000 A 
ATOM     16  N   UNL     1       7.248   4.851  13.948  0.00  0.00    +0.000 N 
ATOM     17  C   UNL     1       7.749   5.091  12.690  0.00  0.00    +0.000 A 
ATOM     18  C   UNL     1       7.127   4.343  11.761  0.00  0.00    +0.000 A 
ATOM     19  S   UNL     1       5.875   3.290  12.448  0.00  0.00    +0.000 S 
ATOM     20  C   UNL     1       6.248   3.929  14.019  0.00  0.00    +0.000 A 
ATOM     21  N   UNL     1       5.781   3.750  15.224  0.00  0.00    +0.000 NA
ENDBRANCH  13  14
ENDBRANCH   3  13
TORSDOF 3
ENDMDL
MODEL 9
REMARK VINA RESULT:      -6.7      5.214      7.223
REMARK  Name = 
REMARK  3 active torsions:
REMARK  status: ('A' for Active; 'I' for Inactive)
REMARK    1  A    between atoms: C_2  and  C_13
REMARK    2  A    between atoms: N_3  and  C_4
REMARK    3  A    between atoms: C_4  and  C_5
REMARK                            x       y       z     vdW  Elec       q    Type
REMARK                         _______ _______ _______ _____ _____    ______ ____
ROOT
ATOM      1  O   UNL     1       4.397   6.189  18.347  0.00  0.00    +0.000 OA
ATOM      2  C   UNL     1       3.199   5.938  18.270  0.00  0.00    +0.000 C 
ATOM      3  N   UNL     1       2.262   6.912  18.003  0.00  0.00    +0.000 N 
ATOM      4  H   UNL     1       1.279   6.682  17.934  0.00  0.00    +0.000 HD
ENDROOT
BRANCH   2   5
ATOM      5  C   UNL     1       2.689   4.556  18.490  0.00  0.00    +0.000 A 
ATOM      6  C   UNL     1       2.966   3.557  17.544  0.00  0.00    +0.000 A 
ATOM      7  F   UNL     1       3.717   3.819  16.464  0.00  0.00    +0.000 F 
ATOM      8  C   UNL     1       2.473   2.261  17.680  0.00  0.00    +0.000 A 
ATOM      9  C   UNL     1       1.681   1.932  18.773  0.00  0.00    +0.000 A 
ATOM     10  C   UNL     1       1.394   2.908  19.728  0.00  0.00    +0.000 A 
ATOM     11  C   UNL     1       1.892   4.214  19.593  0.00  0.00    +0.000 A 
ATOM     12 CL   UNL     1       1.503   5.306  20.877  0.00  0.00    +0.000 Cl
ENDBRANCH   2   5
BRANCH   3  13
ATOM     13  C   UNL     1       2.625   8.298  17.815  0.00  0.00    +0.000 C 
BRANCH  13  14
ATOM     14  C   UNL     1       1.790   9.153  18.704  0.00  0.00    +0.000 A 
ATOM     15  C   UNL     1       1.319  10.441  18.463  0.00  0.00    +0.000 A 
ATOM     16  N   UNL     1       0.661  10.784  19.601  0.00  0.00    +0.000 N 
ATOM     17  C   UNL     1      -0.007  11.885  20.084  0.00  0.00    +0.000 A 
ATOM     18  C   UNL     1      -0.460  11.678  21.334  0.00  0.00    +0.000 A 
ATOM     19  S   UNL     1      -0.062  10.063  21.952  0.00  0.00    +0.000 S 
ATOM     20  C   UNL     1       0.736   9.721  20.448  0.00  0.00    +0.000 A 
ATOM     21  N   UNL     1       1.400   8.708  19.964  0.00  0.00    +0.000 NA
ENDBRANCH  13  14
ENDBRANCH   3  13
TORSDOF 3
ENDMDL
