MODEL 1
REMARK VINA RESULT:      -7.8      0.000      0.000
REMARK  Name = 
REMARK  12 active torsions:
REMARK  status: ('A' for Active; 'I' for Inactive)
REMARK    1  A    between atoms: C_1  and  C_2
REMARK    2  A    between atoms: C_2  and  O_3
REMARK    3  A    between atoms: O_3  and  P_4
REMARK    4  A    between atoms: P_4  and  O_6
REMARK    5  A    between atoms: P_4  and  C_9
REMARK    6  A    between atoms: O_6  and  C_7
REMARK    7  A    between atoms: C_7  and  C_8
REMARK    8  A    between atoms: C_9  and  C_21
REMARK    9  A    between atoms: N_10  and  O_11
REMARK   10  A    between atoms: O_11  and  C_12
REMARK   11  A    between atoms: C_12  and  C_14
REMARK   12  A    between atoms: C_19  and  C_20
REMARK                            x       y       z     vdW  Elec       q    Type
REMARK                         _______ _______ _______ _____ _____    ______ ____
ROOT
ATOM      1  C   UNL     1       5.767   5.725  17.935  0.00  0.00    +0.000 C 
ATOM      2  N   UNL     1       4.738   6.516  17.867  0.00  0.00    +0.000 NA
ENDROOT
BRANCH   1   3
ATOM      3  C   UNL     1       6.156   4.870  19.118  0.00  0.00    +0.000 C 
ATOM      4  N   UNL     1       5.656   3.599  19.155  0.00  0.00    +0.000 N 
ATOM      5  O   UNL     1       6.883   5.315  19.999  0.00  0.00    +0.000 OA
ATOM      6  H   UNL     1       5.178   3.208  18.338  0.00  0.00    +0.000 HD
ATOM      7  H   UNL     1       5.996   2.958  19.859  0.00  0.00    +0.000 HD
ENDBRANCH   1   3
BRANCH   1   8
ATOM      8  P   UNL     1       6.730   5.574  16.386  0.00  0.00    +0.000 P 
ATOM      9  O   UNL     1       7.710   4.624  17.115  0.00  0.00    +0.000 OA
BRANCH   8  10
ATOM     10  O   UNL     1       7.639   5.431  14.921  0.00  0.00    +0.000 OA
BRANCH  10  12
ATOM     11  C   UNL     1       6.068   3.898  13.842  0.00  0.00    +0.000 C 
ATOM     12  C   UNL     1       7.234   4.850  13.703  0.00  0.00    +0.000 C 
ENDBRANCH  10  12
ENDBRANCH   8  10
BRANCH   8  13
ATOM     13  O   UNL     1       7.350   7.102  16.568  0.00  0.00    +0.000 OA
BRANCH  13  14
ATOM     14  C   UNL     1       7.959   7.573  17.757  0.00  0.00    +0.000 C 
ATOM     15  C   UNL     1       8.091   9.083  17.871  0.00  0.00    +0.000 C 
ENDBRANCH  13  14
ENDBRANCH   8  13
ENDBRANCH   1   8
BRANCH   2  16
ATOM     16  O   UNL     1       3.933   6.477  19.047  0.00  0.00    +0.000 OA
BRANCH  16  17
ATOM     17  C   UNL     1       2.654   6.123  18.710  0.00  0.00    +0.000 C 
ATOM     18  O   UNL     1       1.889   6.829  18.058  0.00  0.00    +0.000 OA
BRANCH  17  19
ATOM     19  C   UNL     1       2.210   4.755  19.178  0.00  0.00    +0.000 A 
ATOM     20  C   UNL     1       1.753   4.720  20.518  0.00  0.00    +0.000 A 
ATOM     21  C   UNL     1       1.305   3.546  21.125  0.00  0.00    +0.000 A 
ATOM     22  C   UNL     1       1.292   2.364  20.402  0.00  0.00    +0.000 A 
ATOM     23  C   UNL     1       1.744   2.366  19.079  0.00  0.00    +0.000 A 
ATOM     24  C   UNL     1       2.217   3.543  18.456  0.00  0.00    +0.000 A 
ATOM     25  C   UNL     1       2.679   3.407  17.028  0.00  0.00    +0.000 C 
ENDBRANCH  17  19
ENDBRANCH  16  17
ENDBRANCH   2  16
TORSDOF 9
ENDMDL
MODEL 2
REMARK VINA RESULT:      -7.2      1.018      1.077
REMARK  Name = 
REMARK  12 active torsions:
REMARK  status: ('A' for Active; 'I' for Inactive)
REMARK    1  A    between atoms: C_1  and  C_2
REMARK    2  A    between atoms: C_2  and  O_3
REMARK    3  A    between atoms: O_3  and  P_4
REMARK    4  A    between atoms: P_4  and  O_6
REMARK    5  A    between atoms: P_4  and  C_9
REMARK    6  A    between atoms: O_6  and  C_7
REMARK    7  A    between atoms: C_7  and  C_8
REMARK    8  A    between atoms: C_9  and  C_21
REMARK    9  A    between atoms: N_10  and  O_11
REMARK   10  A    between atoms: O_11  and  C_12
REMARK   11  A    between atoms: C_12  and  C_14
REMARK   12  A    between atoms: C_19  and  C_20
REMARK                            x       y       z     vdW  Elec       q    Type
REMARK                         _______ _______ _______ _____ _____    ______ ____
ROOT
ATOM      1  C   UNL     1       5.098   5.585  18.004  0.00  0.00    +0.000 C 
ATOM      2  N   UNL     1       4.207   6.507  18.224  0.00  0.00    +0.000 NA
ENDROOT
BRANCH   1   3
ATOM      3  C   UNL     1       5.740   4.702  19.046  0.00  0.00    +0.000 C 
ATOM      4  N   UNL     1       5.228   3.444  19.194  0.00  0.00    +0.000 N 
ATOM      5  O   UNL     1       6.675   5.113  19.726  0.00  0.00    +0.000 OA
ATOM      6  H   UNL     1       4.551   3.079  18.517  0.00  0.00    +0.000 HD
ATOM      7  H   UNL     1       5.711   2.782  19.786  0.00  0.00    +0.000 HD
ENDBRANCH   1   3
BRANCH   1   8
ATOM      8  P   UNL     1       5.480   5.286  16.240  0.00  0.00    +0.000 P 
ATOM      9  O   UNL     1       6.418   4.131  16.663  0.00  0.00    +0.000 OA
BRANCH   8  10
ATOM     10  O   UNL     1       5.842   5.003  14.572  0.00  0.00    +0.000 OA
BRANCH  10  12
ATOM     11  C   UNL     1       6.547   3.930  12.490  0.00  0.00    +0.000 C 
ATOM     12  C   UNL     1       6.245   3.797  13.966  0.00  0.00    +0.000 C 
ENDBRANCH  10  12
ENDBRANCH   8  10
BRANCH   8  13
ATOM     13  O   UNL     1       6.430   6.646  16.167  0.00  0.00    +0.000 OA
BRANCH  13  14
ATOM     14  C   UNL     1       7.554   6.872  16.999  0.00  0.00    +0.000 C 
ATOM     15  C   UNL     1       7.670   8.273  17.577  0.00  0.00    +0.000 C 
ENDBRANCH  13  14
ENDBRANCH   8  13
ENDBRANCH   1   8
BRANCH   2  16
ATOM     16  O   UNL     1       3.829   6.591  19.600  0.00  0.00    +0.000 OA
BRANCH  16  17
ATOM     17  C   UNL     1       2.479   6.391  19.711  0.00  0.00    +0.000 C 
ATOM     18  O   UNL     1       1.638   7.283  19.632  0.00  0.00    +0.000 OA
BRANCH  17  19
ATOM     19  C   UNL     1       2.047   4.957  19.922  0.00  0.00    +0.000 A 
ATOM     20  C   UNL     1       2.148   4.513  21.262  0.00  0.00    +0.000 A 
ATOM     21  C   UNL     1       1.795   3.219  21.650  0.00  0.00    +0.000 A 
ATOM     22  C   UNL     1       1.319   2.328  20.702  0.00  0.00    +0.000 A 
ATOM     23  C   UNL     1       1.214   2.736  19.370  0.00  0.00    +0.000 A 
ATOM     24  C   UNL     1       1.584   4.037  18.958  0.00  0.00    +0.000 A 
ATOM     25  C   UNL     1       1.426   4.348  17.493  0.00  0.00    +0.000 C 
ENDBRANCH  17  19
ENDBRANCH  16  17
ENDBRANCH   2  16
TORSDOF 9
ENDMDL
MODEL 3
REMARK VINA RESULT:      -7.0      1.481      2.461
REMARK  Name = 
REMARK  12 active torsions:
REMARK  status: ('A' for Active; 'I' for Inactive)
REMARK    1  A    between atoms: C_1  and  C_2
REMARK    2  A    between atoms: C_2  and  O_3
REMARK    3  A    between atoms: O_3  and  P_4
REMARK    4  A    between atoms: P_4  and  O_6
REMARK    5  A    between atoms: P_4  and  C_9
REMARK    6  A    between atoms: O_6  and  C_7
REMARK    7  A    between atoms: C_7  and  C_8
REMARK    8  A    between atoms: C_9  and  C_21
REMARK    9  A    between atoms: N_10  and  O_11
REMARK   10  A    between atoms: O_11  and  C_12
REMARK   11  A    between atoms: C_12  and  C_14
REMARK   12  A    between atoms: C_19  and  C_20
REMARK                            x       y       z     vdW  Elec       q    Type
REMARK                         _______ _______ _______ _____ _____    ______ ____
ROOT
ATOM      1  C   UNL     1       5.638   4.813  17.787  0.00  0.00    +0.000 C 
ATOM      2  N   UNL     1       6.126   4.006  18.682  0.00  0.00    +0.000 NA
ENDROOT
BRANCH   1   3
ATOM      3  C   UNL     1       4.365   5.615  17.912  0.00  0.00    +0.000 C 
ATOM      4  N   UNL     1       4.353   6.619  18.839  0.00  0.00    +0.000 N 
ATOM      5  O   UNL     1       3.393   5.360  17.209  0.00  0.00    +0.000 OA
ATOM      6  H   UNL     1       5.221   6.904  19.303  0.00  0.00    +0.000 HD
ATOM      7  H   UNL     1       3.570   7.258  18.862  0.00  0.00    +0.000 HD
ENDBRANCH   1   3
BRANCH   1   8
ATOM      8  P   UNL     1       6.693   5.060  16.312  0.00  0.00    +0.000 P 
ATOM      9  O   UNL     1       7.850   4.343  17.048  0.00  0.00    +0.000 OA
BRANCH   8  10
ATOM     10  O   UNL     1       7.691   5.294  14.918  0.00  0.00    +0.000 OA
BRANCH  10  12
ATOM     11  C   UNL     1       8.163   5.741  12.561  0.00  0.00    +0.000 C 
ATOM     12  C   UNL     1       7.422   4.917  13.588  0.00  0.00    +0.000 C 
ENDBRANCH  10  12
ENDBRANCH   8  10
BRANCH   8  13
ATOM     13  O   UNL     1       6.866   6.676  16.650  0.00  0.00    +0.000 OA
BRANCH  13  14
ATOM     14  C   UNL     1       7.687   7.186  17.686  0.00  0.00    +0.000 C 
ATOM     15  C   UNL     1       7.875   8.694  17.690  0.00  0.00    +0.000 C 
ENDBRANCH  13  14
ENDBRANCH   8  13
ENDBRANCH   1   8
BRANCH   2  16
ATOM     16  O   UNL     1       5.343   3.970  19.877  0.00  0.00    +0.000 OA
BRANCH  16  17
ATOM     17  C   UNL     1       4.715   2.758  19.970  0.00  0.00    +0.000 C 
ATOM     18  O   UNL     1       5.294   1.688  20.146  0.00  0.00    +0.000 OA
BRANCH  17  19
ATOM     19  C   UNL     1       3.206   2.795  19.865  0.00  0.00    +0.000 A 
ATOM     20  C   UNL     1       2.553   3.213  21.050  0.00  0.00    +0.000 A 
ATOM     21  C   UNL     1       1.163   3.309  21.144  0.00  0.00    +0.000 A 
ATOM     22  C   UNL     1       0.381   2.993  20.044  0.00  0.00    +0.000 A 
ATOM     23  C   UNL     1       0.997   2.570  18.864  0.00  0.00    +0.000 A 
ATOM     24  C   UNL     1       2.402   2.452  18.758  0.00  0.00    +0.000 A 
ATOM     25  C   UNL     1       2.938   1.981  17.431  0.00  0.00    +0.000 C 
ENDBRANCH  17  19
ENDBRANCH  16  17
ENDBRANCH   2  16
TORSDOF 9
ENDMDL
MODEL 4
REMARK VINA RESULT:      -7.0      2.069      3.039
REMARK  Name = 
REMARK  12 active torsions:
REMARK  status: ('A' for Active; 'I' for Inactive)
REMARK    1  A    between atoms: C_1  and  C_2
REMARK    2  A    between atoms: C_2  and  O_3
REMARK    3  A    between atoms: O_3  and  P_4
REMARK    4  A    between atoms: P_4  and  O_6
REMARK    5  A    between atoms: P_4  and  C_9
REMARK    6  A    between atoms: O_6  and  C_7
REMARK    7  A    between atoms: C_7  and  C_8
REMARK    8  A    between atoms: C_9  and  C_21
REMARK    9  A    between atoms: N_10  and  O_11
REMARK   10  A    between atoms: O_11  and  C_12
REMARK   11  A    between atoms: C_12  and  C_14
REMARK   12  A    between atoms: C_19  and  C_20
REMARK                            x       y       z     vdW  Elec       q    Type
REMARK                         _______ _______ _______ _____ _____    ______ ____
ROOT
ATOM      1  C   UNL     1       6.243   4.532  17.518  0.00  0.00    +0.000 C 
ATOM      2  N   UNL     1       5.210   4.016  18.116  0.00  0.00    +0.000 NA
ENDROOT
BRANCH   1   3
ATOM      3  C   UNL     1       7.523   4.979  18.181  0.00  0.00    +0.000 C 
ATOM      4  N   UNL     1       7.569   6.266  18.637  0.00  0.00    +0.000 N 
ATOM      5  O   UNL     1       8.472   4.211  18.291  0.00  0.00    +0.000 OA
ATOM      6  H   UNL     1       6.717   6.835  18.666  0.00  0.00    +0.000 HD
ATOM      7  H   UNL     1       8.356   6.562  19.198  0.00  0.00    +0.000 HD
ENDBRANCH   1   3
BRANCH   1   8
ATOM      8  P   UNL     1       6.132   4.584  15.692  0.00  0.00    +0.000 P 
ATOM      9  O   UNL     1       7.392   5.481  15.664  0.00  0.00    +0.000 OA
BRANCH   8  10
ATOM     10  O   UNL     1       6.028   4.633  13.966  0.00  0.00    +0.000 OA
BRANCH  10  12
ATOM     11  C   UNL     1       5.231   3.341  12.048  0.00  0.00    +0.000 C 
ATOM     12  C   UNL     1       6.330   3.605  13.051  0.00  0.00    +0.000 C 
ENDBRANCH  10  12
ENDBRANCH   8  10
BRANCH   8  13
ATOM     13  O   UNL     1       4.834   5.616  15.754  0.00  0.00    +0.000 OA
BRANCH  13  14
ATOM     14  C   UNL     1       4.889   6.927  16.289  0.00  0.00    +0.000 C 
ATOM     15  C   UNL     1       3.870   7.234  17.374  0.00  0.00    +0.000 C 
ENDBRANCH  13  14
ENDBRANCH   8  13
ENDBRANCH   1   8
BRANCH   2  16
ATOM     16  O   UNL     1       5.411   3.854  19.522  0.00  0.00    +0.000 OA
BRANCH  16  17
ATOM     17  C   UNL     1       4.687   2.777  19.960  0.00  0.00    +0.000 C 
ATOM     18  O   UNL     1       5.165   1.820  20.566  0.00  0.00    +0.000 OA
BRANCH  17  19
ATOM     19  C   UNL     1       3.202   2.829  19.674  0.00  0.00    +0.000 A 
ATOM     20  C   UNL     1       2.761   1.874  18.726  0.00  0.00    +0.000 A 
ATOM     21  C   UNL     1       1.426   1.771  18.334  0.00  0.00    +0.000 A 
ATOM     22  C   UNL     1       0.483   2.622  18.890  0.00  0.00    +0.000 A 
ATOM     23  C   UNL     1       0.890   3.578  19.824  0.00  0.00    +0.000 A 
ATOM     24  C   UNL     1       2.241   3.706  20.218  0.00  0.00    +0.000 A 
ATOM     25  C   UNL     1       2.547   4.781  21.229  0.00  0.00    +0.000 C 
ENDBRANCH  17  19
ENDBRANCH  16  17
ENDBRANCH   2  16
TORSDOF 9
ENDMDL
MODEL 5
REMARK VINA RESULT:      -6.7      0.675      1.566
REMARK  Name = 
REMARK  12 active torsions:
REMARK  status: ('A' for Active; 'I' for Inactive)
REMARK    1  A    between atoms: C_1  and  C_2
REMARK    2  A    between atoms: C_2  and  O_3
REMARK    3  A    between atoms: O_3  and  P_4
REMARK    4  A    between atoms: P_4  and  O_6
REMARK    5  A    between atoms: P_4  and  C_9
REMARK    6  A    between atoms: O_6  and  C_7
REMARK    7  A    between atoms: C_7  and  C_8
REMARK    8  A    between atoms: C_9  and  C_21
REMARK    9  A    between atoms: N_10  and  O_11
REMARK   10  A    between atoms: O_11  and  C_12
REMARK   11  A    between atoms: C_12  and  C_14
REMARK   12  A    between atoms: C_19  and  C_20
REMARK                            x       y       z     vdW  Elec       q    Type
REMARK                         _______ _______ _______ _____ _____    ______ ____
ROOT
ATOM      1  C   UNL     1       5.868   5.686  17.721  0.00  0.00    +0.000 C 
ATOM      2  N   UNL     1       4.847   6.473  17.547  0.00  0.00    +0.000 NA
ENDROOT
BRANCH   1   3
ATOM      3  C   UNL     1       6.202   4.929  18.984  0.00  0.00    +0.000 C 
ATOM      4  N   UNL     1       5.613   3.708  19.149  0.00  0.00    +0.000 N 
ATOM      5  O   UNL     1       6.966   5.407  19.816  0.00  0.00    +0.000 OA
ATOM      6  H   UNL     1       5.102   3.272  18.376  0.00  0.00    +0.000 HD
ATOM      7  H   UNL     1       5.910   3.117  19.914  0.00  0.00    +0.000 HD
ENDBRANCH   1   3
BRANCH   1   8
ATOM      8  P   UNL     1       6.890   5.405  16.230  0.00  0.00    +0.000 P 
ATOM      9  O   UNL     1       7.705   4.351  17.015  0.00  0.00    +0.000 OA
BRANCH   8  10
ATOM     10  O   UNL     1       7.857   5.140  14.820  0.00  0.00    +0.000 OA
BRANCH  10  12
ATOM     11  C   UNL     1       7.144   4.159  12.695  0.00  0.00    +0.000 C 
ATOM     12  C   UNL     1       7.518   5.398  13.476  0.00  0.00    +0.000 C 
ENDBRANCH  10  12
ENDBRANCH   8  10
BRANCH   8  13
ATOM     13  O   UNL     1       7.680   6.849  16.443  0.00  0.00    +0.000 OA
BRANCH  13  14
ATOM     14  C   UNL     1       7.251   7.863  17.335  0.00  0.00    +0.000 C 
ATOM     15  C   UNL     1       8.360   8.651  18.014  0.00  0.00    +0.000 C 
ENDBRANCH  13  14
ENDBRANCH   8  13
ENDBRANCH   1   8
BRANCH   2  16
ATOM     16  O   UNL     1       3.996   6.533  18.693  0.00  0.00    +0.000 OA
BRANCH  16  17
ATOM     17  C   UNL     1       2.712   6.236  18.318  0.00  0.00    +0.000 C 
ATOM     18  O   UNL     1       1.956   7.022  17.754  0.00  0.00    +0.000 OA
BRANCH  17  19
ATOM     19  C   UNL     1       2.252   4.827  18.623  0.00  0.00    +0.000 A 
ATOM     20  C   UNL     1       2.501   3.899  17.583  0.00  0.00    +0.000 A 
ATOM     21  C   UNL     1       2.146   2.553  17.682  0.00  0.00    +0.000 A 
ATOM     22  C   UNL     1       1.534   2.091  18.837  0.00  0.00    +0.000 A 
ATOM     23  C   UNL     1       1.270   2.985  19.877  0.00  0.00    +0.000 A 
ATOM     24  C   UNL     1       1.608   4.355  19.785  0.00  0.00    +0.000 A 
ATOM     25  C   UNL     1       1.265   5.212  20.976  0.00  0.00    +0.000 C 
ENDBRANCH  17  19
ENDBRANCH  16  17
ENDBRANCH   2  16
TORSDOF 9
ENDMDL
MODEL 6
REMARK VINA RESULT:      -6.7      2.051      2.720
REMARK  Name = 
REMARK  12 active torsions:
REMARK  status: ('A' for Active; 'I' for Inactive)
REMARK    1  A    between atoms: C_1  and  C_2
REMARK    2  A    between atoms: C_2  and  O_3
REMARK    3  A    between atoms: O_3  and  P_4
REMARK    4  A    between atoms: P_4  and  O_6
REMARK    5  A    between atoms: P_4  and  C_9
REMARK    6  A    between atoms: O_6  and  C_7
REMARK    7  A    between atoms: C_7  and  C_8
REMARK    8  A    between atoms: C_9  and  C_21
REMARK    9  A    between atoms: N_10  and  O_11
REMARK   10  A    between atoms: O_11  and  C_12
REMARK   11  A    between atoms: C_12  and  C_14
REMARK   12  A    between atoms: C_19  and  C_20
REMARK                            x       y       z     vdW  Elec       q    Type
REMARK                         _______ _______ _______ _____ _____    ______ ____
ROOT
ATOM      1  C   UNL     1       6.222   4.505  17.418  0.00  0.00    +0.000 C 
ATOM      2  N   UNL     1       5.235   3.927  18.035  0.00  0.00    +0.000 NA
ENDROOT
BRANCH   1   3
ATOM      3  C   UNL     1       7.496   5.008  18.053  0.00  0.00    +0.000 C 
ATOM      4  N   UNL     1       8.554   4.145  18.090  0.00  0.00    +0.000 N 
ATOM      5  O   UNL     1       7.559   6.142  18.516  0.00  0.00    +0.000 OA
ATOM      6  H   UNL     1       8.521   3.264  17.567  0.00  0.00    +0.000 HD
ATOM      7  H   UNL     1       9.458   4.486  18.388  0.00  0.00    +0.000 HD
ENDBRANCH   1   3
BRANCH   1   8
ATOM      8  P   UNL     1       6.059   4.578  15.597  0.00  0.00    +0.000 P 
ATOM      9  O   UNL     1       7.372   5.392  15.534  0.00  0.00    +0.000 OA
BRANCH   8  10
ATOM     10  O   UNL     1       5.904   4.647  13.875  0.00  0.00    +0.000 OA
BRANCH  10  12
ATOM     11  C   UNL     1       7.161   3.984  11.885  0.00  0.00    +0.000 C 
ATOM     12  C   UNL     1       6.144   3.619  12.942  0.00  0.00    +0.000 C 
ENDBRANCH  10  12
ENDBRANCH   8  10
BRANCH   8  13
ATOM     13  O   UNL     1       4.833   5.692  15.706  0.00  0.00    +0.000 OA
BRANCH  13  14
ATOM     14  C   UNL     1       4.939   6.922  16.401  0.00  0.00    +0.000 C 
ATOM     15  C   UNL     1       3.815   7.221  17.379  0.00  0.00    +0.000 C 
ENDBRANCH  13  14
ENDBRANCH   8  13
ENDBRANCH   1   8
BRANCH   2  16
ATOM     16  O   UNL     1       5.483   3.754  19.432  0.00  0.00    +0.000 OA
BRANCH  16  17
ATOM     17  C   UNL     1       4.726   2.714  19.900  0.00  0.00    +0.000 C 
ATOM     18  O   UNL     1       5.188   1.676  20.370  0.00  0.00    +0.000 OA
BRANCH  17  19
ATOM     19  C   UNL     1       3.228   2.915  19.833  0.00  0.00    +0.000 A 
ATOM     20  C   UNL     1       2.680   3.572  20.961  0.00  0.00    +0.000 A 
ATOM     21  C   UNL     1       1.316   3.845  21.079  0.00  0.00    +0.000 A 
ATOM     22  C   UNL     1       0.455   3.472  20.059  0.00  0.00    +0.000 A 
ATOM     23  C   UNL     1       0.966   2.815  18.937  0.00  0.00    +0.000 A 
ATOM     24  C   UNL     1       2.341   2.517  18.810  0.00  0.00    +0.000 A 
ATOM     25  C   UNL     1       2.761   1.802  17.552  0.00  0.00    +0.000 C 
ENDBRANCH  17  19
ENDBRANCH  16  17
ENDBRANCH   2  16
TORSDOF 9
ENDMDL
MODEL 7
REMARK VINA RESULT:      -6.6      2.100      2.719
REMARK  Name = 
REMARK  12 active torsions:
REMARK  status: ('A' for Active; 'I' for Inactive)
REMARK    1  A    between atoms: C_1  and  C_2
REMARK    2  A    between atoms: C_2  and  O_3
REMARK    3  A    between atoms: O_3  and  P_4
REMARK    4  A    between atoms: P_4  and  O_6
REMARK    5  A    between atoms: P_4  and  C_9
REMARK    6  A    between atoms: O_6  and  C_7
REMARK    7  A    between atoms: C_7  and  C_8
REMARK    8  A    between atoms: C_9  and  C_21
REMARK    9  A    between atoms: N_10  and  O_11
REMARK   10  A    between atoms: O_11  and  C_12
REMARK   11  A    between atoms: C_12  and  C_14
REMARK   12  A    between atoms: C_19  and  C_20
REMARK                            x       y       z     vdW  Elec       q    Type
REMARK                         _______ _______ _______ _____ _____    ______ ____
ROOT
ATOM      1  C   UNL     1       6.457   4.344  16.895  0.00  0.00    +0.000 C 
ATOM      2  N   UNL     1       5.382   3.822  17.410  0.00  0.00    +0.000 NA
ENDROOT
BRANCH   1   3
ATOM      3  C   UNL     1       7.681   4.791  17.657  0.00  0.00    +0.000 C 
ATOM      4  N   UNL     1       7.671   6.063  18.156  0.00  0.00    +0.000 N 
ATOM      5  O   UNL     1       8.635   4.036  17.806  0.00  0.00    +0.000 OA
ATOM      6  H   UNL     1       6.808   6.616  18.145  0.00  0.00    +0.000 HD
ATOM      7  H   UNL     1       8.413   6.354  18.778  0.00  0.00    +0.000 HD
ENDBRANCH   1   3
BRANCH   1   8
ATOM      8  P   UNL     1       6.487   4.404  15.067  0.00  0.00    +0.000 P 
ATOM      9  O   UNL     1       7.737   5.312  15.140  0.00  0.00    +0.000 OA
BRANCH   8  10
ATOM     10  O   UNL     1       6.516   4.461  13.338  0.00  0.00    +0.000 OA
BRANCH  10  12
ATOM     11  C   UNL     1       4.926   3.299  11.888  0.00  0.00    +0.000 C 
ATOM     12  C   UNL     1       6.332   3.397  12.433  0.00  0.00    +0.000 C 
ENDBRANCH  10  12
ENDBRANCH   8  10
BRANCH   8  13
ATOM     13  O   UNL     1       5.180   5.426  15.032  0.00  0.00    +0.000 OA
BRANCH  13  14
ATOM     14  C   UNL     1       5.202   6.758  15.515  0.00  0.00    +0.000 C 
ATOM     15  C   UNL     1       4.212   7.068  16.626  0.00  0.00    +0.000 C 
ENDBRANCH  13  14
ENDBRANCH   8  13
ENDBRANCH   1   8
BRANCH   2  16
ATOM     16  O   UNL     1       5.475   3.653  18.826  0.00  0.00    +0.000 OA
BRANCH  16  17
ATOM     17  C   UNL     1       4.620   4.527  19.442  0.00  0.00    +0.000 C 
ATOM     18  O   UNL     1       4.821   5.734  19.550  0.00  0.00    +0.000 OA
BRANCH  17  19
ATOM     19  C   UNL     1       3.347   3.919  19.989  0.00  0.00    +0.000 A 
ATOM     20  C   UNL     1       2.188   4.700  19.764  0.00  0.00    +0.000 A 
ATOM     21  C   UNL     1       0.922   4.302  20.197  0.00  0.00    +0.000 A 
ATOM     22  C   UNL     1       0.777   3.097  20.867  0.00  0.00    +0.000 A 
ATOM     23  C   UNL     1       1.904   2.308  21.109  0.00  0.00    +0.000 A 
ATOM     24  C   UNL     1       3.195   2.705  20.692  0.00  0.00    +0.000 A 
ATOM     25  C   UNL     1       4.325   1.765  21.020  0.00  0.00    +0.000 C 
ENDBRANCH  17  19
ENDBRANCH  16  17
ENDBRANCH   2  16
TORSDOF 9
ENDMDL
MODEL 8
REMARK VINA RESULT:      -6.5      2.299      3.320
REMARK  Name = 
REMARK  12 active torsions:
REMARK  status: ('A' for Active; 'I' for Inactive)
REMARK    1  A    between atoms: C_1  and  C_2
REMARK    2  A    between atoms: C_2  and  O_3
REMARK    3  A    between atoms: O_3  and  P_4
REMARK    4  A    between atoms: P_4  and  O_6
REMARK    5  A    between atoms: P_4  and  C_9
REMARK    6  A    between atoms: O_6  and  C_7
REMARK    7  A    between atoms: C_7  and  C_8
REMARK    8  A    between atoms: C_9  and  C_21
REMARK    9  A    between atoms: N_10  and  O_11
REMARK   10  A    between atoms: O_11  and  C_12
REMARK   11  A    between atoms: C_12  and  C_14
REMARK   12  A    between atoms: C_19  and  C_20
REMARK                            x       y       z     vdW  Elec       q    Type
REMARK                         _______ _______ _______ _____ _____    ______ ____
ROOT
ATOM      1  C   UNL     1       5.012   5.519  18.121  0.00  0.00    +0.000 C 
ATOM      2  N   UNL     1       4.029   6.327  18.391  0.00  0.00    +0.000 NA
ENDROOT
BRANCH   1   3
ATOM      3  C   UNL     1       5.727   4.627  19.107  0.00  0.00    +0.000 C 
ATOM      4  N   UNL     1       5.260   3.349  19.238  0.00  0.00    +0.000 N 
ATOM      5  O   UNL     1       6.677   5.048  19.757  0.00  0.00    +0.000 OA
ATOM      6  H   UNL     1       4.566   2.982  18.580  0.00  0.00    +0.000 HD
ATOM      7  H   UNL     1       5.789   2.687  19.789  0.00  0.00    +0.000 HD
ENDBRANCH   1   3
BRANCH   1   8
ATOM      8  P   UNL     1       5.446   5.396  16.347  0.00  0.00    +0.000 P 
ATOM      9  O   UNL     1       6.441   4.264  16.693  0.00  0.00    +0.000 OA
BRANCH   8  10
ATOM     10  O   UNL     1       5.856   5.280  14.671  0.00  0.00    +0.000 OA
BRANCH  10  12
ATOM     11  C   UNL     1       6.118   3.624  12.890  0.00  0.00    +0.000 C 
ATOM     12  C   UNL     1       6.733   4.365  14.055  0.00  0.00    +0.000 C 
ENDBRANCH  10  12
ENDBRANCH   8  10
BRANCH   8  13
ATOM     13  O   UNL     1       6.315   6.808  16.415  0.00  0.00    +0.000 OA
BRANCH  13  14
ATOM     14  C   UNL     1       7.492   6.978  17.185  0.00  0.00    +0.000 C 
ATOM     15  C   UNL     1       7.777   8.399  17.641  0.00  0.00    +0.000 C 
ENDBRANCH  13  14
ENDBRANCH   8  13
ENDBRANCH   1   8
BRANCH   2  16
ATOM     16  O   UNL     1       3.627   6.266  19.761  0.00  0.00    +0.000 OA
BRANCH  16  17
ATOM     17  C   UNL     1       2.262   6.349  19.835  0.00  0.00    +0.000 C 
ATOM     18  O   UNL     1       1.501   5.392  19.709  0.00  0.00    +0.000 OA
BRANCH  17  19
ATOM     19  C   UNL     1       1.705   7.728  20.113  0.00  0.00    +0.000 A 
ATOM     20  C   UNL     1       1.342   7.944  21.464  0.00  0.00    +0.000 A 
ATOM     21  C   UNL     1       0.809   9.154  21.911  0.00  0.00    +0.000 A 
ATOM     22  C   UNL     1       0.631  10.195  21.013  0.00  0.00    +0.000 A 
ATOM     23  C   UNL     1       0.974  10.009  19.672  0.00  0.00    +0.000 A 
ATOM     24  C   UNL     1       1.498   8.783  19.201  0.00  0.00    +0.000 A 
ATOM     25  C   UNL     1       1.823   8.713  17.731  0.00  0.00    +0.000 C 
ENDBRANCH  17  19
ENDBRANCH  16  17
ENDBRANCH   2  16
TORSDOF 9
ENDMDL
MODEL 9
REMARK VINA RESULT:      -6.5      1.956      3.308
REMARK  Name = 
REMARK  12 active torsions:
REMARK  status: ('A' for Active; 'I' for Inactive)
REMARK    1  A    between atoms: C_1  and  C_2
REMARK    2  A    between atoms: C_2  and  O_3
REMARK    3  A    between atoms: O_3  and  P_4
REMARK    4  A    between atoms: P_4  and  O_6
REMARK    5  A    between atoms: P_4  and  C_9
REMARK    6  A    between atoms: O_6  and  C_7
REMARK    7  A    between atoms: C_7  and  C_8
REMARK    8  A    between atoms: C_9  and  C_21
REMARK    9  A    between atoms: N_10  and  O_11
REMARK   10  A    between atoms: O_11  and  C_12
REMARK   11  A    between atoms: C_12  and  C_14
REMARK   12  A    between atoms: C_19  and  C_20
REMARK                            x       y       z     vdW  Elec       q    Type
REMARK                         _______ _______ _______ _____ _____    ______ ____
ROOT
ATOM      1  C   UNL     1       5.840   5.234  16.129  0.00  0.00    +0.000 C 
ATOM      2  N   UNL     1       4.692   5.237  16.740  0.00  0.00    +0.000 NA
ENDROOT
BRANCH   1   3
ATOM      3  C   UNL     1       7.176   5.571  16.746  0.00  0.00    +0.000 C 
ATOM      4  N   UNL     1       7.527   6.891  16.783  0.00  0.00    +0.000 N 
ATOM      5  O   UNL     1       7.904   4.687  17.184  0.00  0.00    +0.000 OA
ATOM      6  H   UNL     1       6.841   7.615  16.548  0.00  0.00    +0.000 HD
ATOM      7  H   UNL     1       8.350   7.167  17.301  0.00  0.00    +0.000 HD
ENDBRANCH   1   3
BRANCH   1   8
ATOM      8  P   UNL     1       5.794   4.639  14.400  0.00  0.00    +0.000 P 
ATOM      9  O   UNL     1       6.157   3.222  14.902  0.00  0.00    +0.000 OA
BRANCH   8  10
ATOM     10  O   UNL     1       5.751   4.075  12.765  0.00  0.00    +0.000 OA
BRANCH  10  12
ATOM     11  C   UNL     1       5.706   2.017  11.444  0.00  0.00    +0.000 C 
ATOM     12  C   UNL     1       4.937   3.063  12.219  0.00  0.00    +0.000 C 
ENDBRANCH  10  12
ENDBRANCH   8  10
BRANCH   8  13
ATOM     13  O   UNL     1       7.235   5.387  14.055  0.00  0.00    +0.000 OA
BRANCH  13  14
ATOM     14  C   UNL     1       8.040   5.076  12.931  0.00  0.00    +0.000 C 
ATOM     15  C   UNL     1       8.353   6.243  12.008  0.00  0.00    +0.000 C 
ENDBRANCH  13  14
ENDBRANCH   8  13
ENDBRANCH   1   8
BRANCH   2  16
ATOM     16  O   UNL     1       4.806   5.557  18.128  0.00  0.00    +0.000 OA
BRANCH  16  17
ATOM     17  C   UNL     1       4.690   4.411  18.867  0.00  0.00    +0.000 C 
ATOM     18  O   UNL     1       5.627   3.853  19.433  0.00  0.00    +0.000 OA
BRANCH  17  19
ATOM     19  C   UNL     1       3.291   3.846  18.981  0.00  0.00    +0.000 A 
ATOM     20  C   UNL     1       3.108   2.612  18.311  0.00  0.00    +0.000 A 
ATOM     21  C   UNL     1       1.884   1.940  18.304  0.00  0.00    +0.000 A 
ATOM     22  C   UNL     1       0.802   2.482  18.979  0.00  0.00    +0.000 A 
ATOM     23  C   UNL     1       0.952   3.702  19.644  0.00  0.00    +0.000 A 
ATOM     24  C   UNL     1       2.179   4.404  19.646  0.00  0.00    +0.000 A 
ATOM     25  C   UNL     1       2.204   5.710  20.397  0.00  0.00    +0.000 C 
ENDBRANCH  17  19
ENDBRANCH  16  17
ENDBRANCH   2  16
TORSDOF 9
ENDMDL
