MODEL 1
REMARK VINA RESULT:      -7.3      0.000      0.000
REMARK  Name = 
REMARK  5 active torsions:
REMARK  status: ('A' for Active; 'I' for Inactive)
REMARK    1  A    between atoms: C_1  and  O_2
REMARK    2  A    between atoms: O_2  and  C_3
REMARK    3  A    between atoms: C_6  and  N_7
REMARK    4  A    between atoms: C_11  and  C_13
REMARK    5  A    between atoms: C_13  and  N_14
REMARK                            x       y       z     vdW  Elec       q    Type
REMARK                         _______ _______ _______ _____ _____    ______ ____
ROOT
ATOM      1  N   UNL     1       2.010   7.019  20.170  0.00  0.00    +0.000 N 
ATOM      2  C   UNL     1       1.853   5.685  20.785  0.00  0.00    +0.000 C 
ATOM      3  C   UNL     1       1.577   4.631  19.693  0.00  0.00    +0.000 C 
ATOM      4  N   UNL     1       2.589   4.675  18.630  0.00  0.00    +0.000 N 
ATOM      5  C   UNL     1       3.542   3.665  18.572  0.00  0.00    +0.000 C 
ATOM      6  O   UNL     1       3.553   2.761  19.412  0.00  0.00    +0.000 OA
ATOM      7  C   UNL     1       2.719   6.002  18.014  0.00  0.00    +0.000 C 
ATOM      8  C   UNL     1       3.009   7.079  19.084  0.00  0.00    +0.000 C 
ENDROOT
BRANCH   1  12
ATOM      9  C   UNL     1      -0.420  10.307  21.274  0.00  0.00    +0.000 A 
ATOM     10  C   UNL     1       0.330  10.341  20.105  0.00  0.00    +0.000 A 
ATOM     11  C   UNL     1       1.121   9.241  19.738  0.00  0.00    +0.000 A 
ATOM     12  C   UNL     1       1.212   8.087  20.532  0.00  0.00    +0.000 A 
ATOM     13  C   UNL     1       0.455   8.092  21.712  0.00  0.00    +0.000 A 
ATOM     14  C   UNL     1      -0.349   9.182  22.084  0.00  0.00    +0.000 A 
BRANCH   9  16
ATOM     15  C   UNL     1      -1.196  11.819  22.915  0.00  0.00    +0.000 C 
ATOM     16  O   UNL     1      -1.143  11.436  21.540  0.00  0.00    +0.000 OA
ENDBRANCH   9  16
ENDBRANCH   1  12
BRANCH   5  17
ATOM     17  C   UNL     1       4.579   3.686  17.442  0.00  0.00    +0.000 C 
BRANCH  17  18
ATOM     18  N   UNL     1       5.661   4.619  17.728  0.00  0.00    +0.000 N 
ATOM     19  N   UNL     1       6.102   4.679  19.041  0.00  0.00    +0.000 NA
ATOM     20  C   UNL     1       7.034   5.537  19.303  0.00  0.00    +0.000 A 
ATOM     21  C   UNL     1       7.713   6.387  18.318  0.00  0.00    +0.000 A 
ATOM     22  C   UNL     1       7.202   6.385  17.088  0.00  0.00    +0.000 A 
ATOM     23  C   UNL     1       6.022   5.555  16.761  0.00  0.00    +0.000 A 
ATOM     24  O   UNL     1       5.467   5.717  15.680  0.00  0.00    +0.000 OA
ENDBRANCH  17  18
ENDBRANCH   5  17
TORSDOF 4
ENDMDL
MODEL 2
REMARK VINA RESULT:      -7.2      0.610      1.166
REMARK  Name = 
REMARK  5 active torsions:
REMARK  status: ('A' for Active; 'I' for Inactive)
REMARK    1  A    between atoms: C_1  and  O_2
REMARK    2  A    between atoms: O_2  and  C_3
REMARK    3  A    between atoms: C_6  and  N_7
REMARK    4  A    between atoms: C_11  and  C_13
REMARK    5  A    between atoms: C_13  and  N_14
REMARK                            x       y       z     vdW  Elec       q    Type
REMARK                         _______ _______ _______ _____ _____    ______ ____
ROOT
ATOM      1  N   UNL     1       2.035   7.114  20.067  0.00  0.00    +0.000 N 
ATOM      2  C   UNL     1       1.858   5.854  20.818  0.00  0.00    +0.000 C 
ATOM      3  C   UNL     1       1.527   4.704  19.844  0.00  0.00    +0.000 C 
ATOM      4  N   UNL     1       2.513   4.611  18.760  0.00  0.00    +0.000 N 
ATOM      5  C   UNL     1       3.437   3.574  18.783  0.00  0.00    +0.000 C 
ATOM      6  O   UNL     1       3.445   2.759  19.710  0.00  0.00    +0.000 OA
ATOM      7  C   UNL     1       2.663   5.865  18.010  0.00  0.00    +0.000 C 
ATOM      8  C   UNL     1       3.008   7.036  18.959  0.00  0.00    +0.000 C 
ENDROOT
BRANCH   1  12
ATOM      9  C   UNL     1      -0.310  10.539  20.902  0.00  0.00    +0.000 A 
ATOM     10  C   UNL     1      -0.187   9.520  21.837  0.00  0.00    +0.000 A 
ATOM     11  C   UNL     1       0.604   8.394  21.560  0.00  0.00    +0.000 A 
ATOM     12  C   UNL     1       1.275   8.236  20.337  0.00  0.00    +0.000 A 
ATOM     13  C   UNL     1       1.118   9.275  19.410  0.00  0.00    +0.000 A 
ATOM     14  C   UNL     1       0.337  10.412  19.681  0.00  0.00    +0.000 A 
BRANCH   9  16
ATOM     15  C   UNL     1      -1.884  12.164  20.219  0.00  0.00    +0.000 C 
ATOM     16  O   UNL     1      -1.115  11.581  21.271  0.00  0.00    +0.000 OA
ENDBRANCH   9  16
ENDBRANCH   1  12
BRANCH   5  17
ATOM     17  C   UNL     1       4.445   3.450  17.634  0.00  0.00    +0.000 C 
BRANCH  17  18
ATOM     18  N   UNL     1       5.544   4.396  17.785  0.00  0.00    +0.000 N 
ATOM     19  N   UNL     1       5.984   4.640  19.077  0.00  0.00    +0.000 NA
ATOM     20  C   UNL     1       6.930   5.511  19.215  0.00  0.00    +0.000 A 
ATOM     21  C   UNL     1       7.627   6.195  18.120  0.00  0.00    +0.000 A 
ATOM     22  C   UNL     1       7.119   6.021  16.901  0.00  0.00    +0.000 A 
ATOM     23  C   UNL     1       5.924   5.173  16.694  0.00  0.00    +0.000 A 
ATOM     24  O   UNL     1       5.374   5.185  15.598  0.00  0.00    +0.000 OA
ENDBRANCH  17  18
ENDBRANCH   5  17
TORSDOF 4
ENDMDL
MODEL 3
REMARK VINA RESULT:      -7.2      1.119      1.258
REMARK  Name = 
REMARK  5 active torsions:
REMARK  status: ('A' for Active; 'I' for Inactive)
REMARK    1  A    between atoms: C_1  and  O_2
REMARK    2  A    between atoms: O_2  and  C_3
REMARK    3  A    between atoms: C_6  and  N_7
REMARK    4  A    between atoms: C_11  and  C_13
REMARK    5  A    between atoms: C_13  and  N_14
REMARK                            x       y       z     vdW  Elec       q    Type
REMARK                         _______ _______ _______ _____ _____    ______ ____
ROOT
ATOM      1  N   UNL     1       2.061   7.339  19.787  0.00  0.00    +0.000 N 
ATOM      2  C   UNL     1       1.880   6.309  20.831  0.00  0.00    +0.000 C 
ATOM      3  C   UNL     1       1.469   4.971  20.183  0.00  0.00    +0.000 C 
ATOM      4  N   UNL     1       2.400   4.576  19.118  0.00  0.00    +0.000 N 
ATOM      5  C   UNL     1       3.292   3.538  19.361  0.00  0.00    +0.000 C 
ATOM      6  O   UNL     1       3.318   2.974  20.458  0.00  0.00    +0.000 OA
ATOM      7  C   UNL     1       2.554   5.602  18.078  0.00  0.00    +0.000 C 
ATOM      8  C   UNL     1       2.978   6.953  18.697  0.00  0.00    +0.000 C 
ENDROOT
BRANCH   1  12
ATOM      9  C   UNL     1      -0.103  10.979  19.821  0.00  0.00    +0.000 A 
ATOM     10  C   UNL     1       0.607  10.587  18.693  0.00  0.00    +0.000 A 
ATOM     11  C   UNL     1       1.309   9.372  18.684  0.00  0.00    +0.000 A 
ATOM     12  C   UNL     1       1.349   8.524  19.801  0.00  0.00    +0.000 A 
ATOM     13  C   UNL     1       0.636   8.956  20.928  0.00  0.00    +0.000 A 
ATOM     14  C   UNL     1      -0.081  10.165  20.945  0.00  0.00    +0.000 A 
BRANCH   9  16
ATOM     15  C   UNL     1      -2.158  12.120  19.579  0.00  0.00    +0.000 C 
ATOM     16  O   UNL     1      -0.740  12.185  19.724  0.00  0.00    +0.000 OA
ENDBRANCH   9  16
ENDBRANCH   1  12
BRANCH   5  17
ATOM     17  C   UNL     1       4.242   3.097  18.241  0.00  0.00    +0.000 C 
BRANCH  17  18
ATOM     18  N   UNL     1       5.372   4.007  18.110  0.00  0.00    +0.000 N 
ATOM     19  N   UNL     1       5.839   4.593  19.276  0.00  0.00    +0.000 NA
ATOM     20  C   UNL     1       6.814   5.434  19.155  0.00  0.00    +0.000 A 
ATOM     21  C   UNL     1       7.516   5.753  17.906  0.00  0.00    +0.000 A 
ATOM     22  C   UNL     1       6.983   5.258  16.790  0.00  0.00    +0.000 A 
ATOM     23  C   UNL     1       5.760   4.428  16.840  0.00  0.00    +0.000 A 
ATOM     24  O   UNL     1       5.193   4.147  15.790  0.00  0.00    +0.000 OA
ENDBRANCH  17  18
ENDBRANCH   5  17
TORSDOF 4
ENDMDL
MODEL 4
REMARK VINA RESULT:      -6.8      1.154      1.783
REMARK  Name = 
REMARK  5 active torsions:
REMARK  status: ('A' for Active; 'I' for Inactive)
REMARK    1  A    between atoms: C_1  and  O_2
REMARK    2  A    between atoms: O_2  and  C_3
REMARK    3  A    between atoms: C_6  and  N_7
REMARK    4  A    between atoms: C_11  and  C_13
REMARK    5  A    between atoms: C_13  and  N_14
REMARK                            x       y       z     vdW  Elec       q    Type
REMARK                         _______ _______ _______ _____ _____    ______ ____
ROOT
ATOM      1  N   UNL     1       2.064   7.016  20.107  0.00  0.00    +0.000 N 
ATOM      2  C   UNL     1       1.885   5.776  20.890  0.00  0.00    +0.000 C 
ATOM      3  C   UNL     1       1.350   4.651  19.980  0.00  0.00    +0.000 C 
ATOM      4  N   UNL     1       2.185   4.479  18.784  0.00  0.00    +0.000 N 
ATOM      5  C   UNL     1       3.022   3.373  18.706  0.00  0.00    +0.000 C 
ATOM      6  O   UNL     1       3.084   2.564  19.636  0.00  0.00    +0.000 OA
ATOM      7  C   UNL     1       2.335   5.715  18.005  0.00  0.00    +0.000 C 
ATOM      8  C   UNL     1       2.883   6.859  18.888  0.00  0.00    +0.000 C 
ENDROOT
BRANCH   1  12
ATOM      9  C   UNL     1       0.108  10.615  21.180  0.00  0.00    +0.000 A 
ATOM     10  C   UNL     1       0.383   9.646  22.136  0.00  0.00    +0.000 A 
ATOM     11  C   UNL     1       1.046   8.462  21.776  0.00  0.00    +0.000 A 
ATOM     12  C   UNL     1       1.430   8.194  20.453  0.00  0.00    +0.000 A 
ATOM     13  C   UNL     1       1.122   9.185  19.510  0.00  0.00    +0.000 A 
ATOM     14  C   UNL     1       0.470  10.379  19.862  0.00  0.00    +0.000 A 
BRANCH   9  16
ATOM     15  C   UNL     1      -1.218  11.562  22.892  0.00  0.00    +0.000 C 
ATOM     16  O   UNL     1      -0.552  11.721  21.639  0.00  0.00    +0.000 OA
ENDBRANCH   9  16
ENDBRANCH   1  12
BRANCH   5  17
ATOM     17  C   UNL     1       3.869   3.169  17.444  0.00  0.00    +0.000 C 
BRANCH  17  18
ATOM     18  N   UNL     1       4.852   4.232  17.282  0.00  0.00    +0.000 N 
ATOM     19  N   UNL     1       4.998   4.757  16.006  0.00  0.00    +0.000 NA
ATOM     20  C   UNL     1       5.900   5.671  15.853  0.00  0.00    +0.000 A 
ATOM     21  C   UNL     1       6.717   6.252  16.924  0.00  0.00    +0.000 A 
ATOM     22  C   UNL     1       6.631   5.661  18.115  0.00  0.00    +0.000 A 
ATOM     23  C   UNL     1       5.745   4.494  18.317  0.00  0.00    +0.000 A 
ATOM     24  O   UNL     1       5.830   3.863  19.365  0.00  0.00    +0.000 OA
ENDBRANCH  17  18
ENDBRANCH   5  17
TORSDOF 4
ENDMDL
MODEL 5
REMARK VINA RESULT:      -6.7      1.646      3.506
REMARK  Name = 
REMARK  5 active torsions:
REMARK  status: ('A' for Active; 'I' for Inactive)
REMARK    1  A    between atoms: C_1  and  O_2
REMARK    2  A    between atoms: O_2  and  C_3
REMARK    3  A    between atoms: C_6  and  N_7
REMARK    4  A    between atoms: C_11  and  C_13
REMARK    5  A    between atoms: C_13  and  N_14
REMARK                            x       y       z     vdW  Elec       q    Type
REMARK                         _______ _______ _______ _____ _____    ______ ____
ROOT
ATOM      1  N   UNL     1       2.195   7.602  19.066  0.00  0.00    +0.000 N 
ATOM      2  C   UNL     1       2.717   7.951  17.729  0.00  0.00    +0.000 C 
ATOM      3  C   UNL     1       4.217   7.602  17.642  0.00  0.00    +0.000 C 
ATOM      4  N   UNL     1       4.472   6.208  18.030  0.00  0.00    +0.000 N 
ATOM      5  C   UNL     1       4.776   5.283  17.040  0.00  0.00    +0.000 C 
ATOM      6  O   UNL     1       4.806   5.619  15.852  0.00  0.00    +0.000 OA
ATOM      7  C   UNL     1       3.966   5.883  19.370  0.00  0.00    +0.000 C 
ATOM      8  C   UNL     1       2.459   6.211  19.484  0.00  0.00    +0.000 C 
ENDROOT
BRANCH   1  12
ATOM      9  C   UNL     1       0.366  10.498  21.556  0.00  0.00    +0.000 A 
ATOM     10  C   UNL     1       0.607  10.767  20.215  0.00  0.00    +0.000 A 
ATOM     11  C   UNL     1       1.199   9.797  19.392  0.00  0.00    +0.000 A 
ATOM     12  C   UNL     1       1.594   8.542  19.882  0.00  0.00    +0.000 A 
ATOM     13  C   UNL     1       1.351   8.308  21.242  0.00  0.00    +0.000 A 
ATOM     14  C   UNL     1       0.748   9.268  22.073  0.00  0.00    +0.000 A 
BRANCH   9  16
ATOM     15  C   UNL     1      -1.295  11.144  23.108  0.00  0.00    +0.000 C 
ATOM     16  O   UNL     1      -0.203  11.518  22.267  0.00  0.00    +0.000 OA
ENDBRANCH   9  16
ENDBRANCH   1  12
BRANCH   5  17
ATOM     17  C   UNL     1       5.079   3.835  17.442  0.00  0.00    +0.000 C 
BRANCH  17  18
ATOM     18  N   UNL     1       3.901   3.175  17.990  0.00  0.00    +0.000 N 
ATOM     19  N   UNL     1       2.695   3.417  17.349  0.00  0.00    +0.000 NA
ATOM     20  C   UNL     1       1.643   2.866  17.860  0.00  0.00    +0.000 A 
ATOM     21  C   UNL     1       1.631   1.947  19.004  0.00  0.00    +0.000 A 
ATOM     22  C   UNL     1       2.781   1.814  19.662  0.00  0.00    +0.000 A 
ATOM     23  C   UNL     1       3.988   2.555  19.234  0.00  0.00    +0.000 A 
ATOM     24  O   UNL     1       4.971   2.556  19.966  0.00  0.00    +0.000 OA
ENDBRANCH  17  18
ENDBRANCH   5  17
TORSDOF 4
ENDMDL
MODEL 6
REMARK VINA RESULT:      -6.7      2.968      8.637
REMARK  Name = 
REMARK  5 active torsions:
REMARK  status: ('A' for Active; 'I' for Inactive)
REMARK    1  A    between atoms: C_1  and  O_2
REMARK    2  A    between atoms: O_2  and  C_3
REMARK    3  A    between atoms: C_6  and  N_7
REMARK    4  A    between atoms: C_11  and  C_13
REMARK    5  A    between atoms: C_13  and  N_14
REMARK                            x       y       z     vdW  Elec       q    Type
REMARK                         _______ _______ _______ _____ _____    ______ ____
ROOT
ATOM      1  N   UNL     1       2.085   7.735  19.507  0.00  0.00    +0.000 N 
ATOM      2  C   UNL     1       2.179   8.620  18.328  0.00  0.00    +0.000 C 
ATOM      3  C   UNL     1       0.933   9.528  18.251  0.00  0.00    +0.000 C 
ATOM      4  N   UNL     1       0.708  10.246  19.512  0.00  0.00    +0.000 N 
ATOM      5  C   UNL     1       0.999  11.603  19.570  0.00  0.00    +0.000 C 
ATOM      6  O   UNL     1       1.461  12.190  18.587  0.00  0.00    +0.000 OA
ATOM      7  C   UNL     1       0.597   9.351  20.672  0.00  0.00    +0.000 C 
ATOM      8  C   UNL     1       1.839   8.437  20.783  0.00  0.00    +0.000 C 
ENDROOT
BRANCH   1  12
ATOM      9  C   UNL     1       2.226   3.520  19.133  0.00  0.00    +0.000 A 
ATOM     10  C   UNL     1       2.486   4.337  18.040  0.00  0.00    +0.000 A 
ATOM     11  C   UNL     1       2.453   5.733  18.175  0.00  0.00    +0.000 A 
ATOM     12  C   UNL     1       2.135   6.359  19.391  0.00  0.00    +0.000 A 
ATOM     13  C   UNL     1       1.862   5.506  20.469  0.00  0.00    +0.000 A 
ATOM     14  C   UNL     1       1.904   4.107  20.349  0.00  0.00    +0.000 A 
BRANCH   9  16
ATOM     15  C   UNL     1       3.329   1.747  18.025  0.00  0.00    +0.000 C 
ATOM     16  O   UNL     1       2.273   2.176  18.885  0.00  0.00    +0.000 OA
ENDBRANCH   9  16
ENDBRANCH   1  12
BRANCH   5  17
ATOM     17  C   UNL     1       0.731  12.367  20.872  0.00  0.00    +0.000 C 
BRANCH  17  18
ATOM     18  N   UNL     1      -0.697  12.542  21.105  0.00  0.00    +0.000 N 
ATOM     19  N   UNL     1      -1.375  13.370  20.223  0.00  0.00    +0.000 NA
ATOM     20  C   UNL     1      -2.633  13.560  20.455  0.00  0.00    +0.000 A 
ATOM     21  C   UNL     1      -3.414  12.912  21.515  0.00  0.00    +0.000 A 
ATOM     22  C   UNL     1      -2.721  12.205  22.406  0.00  0.00    +0.000 A 
ATOM     23  C   UNL     1      -1.250  12.090  22.301  0.00  0.00    +0.000 A 
ATOM     24  O   UNL     1      -0.627  11.595  23.234  0.00  0.00    +0.000 OA
ENDBRANCH  17  18
ENDBRANCH   5  17
TORSDOF 4
ENDMDL
MODEL 7
REMARK VINA RESULT:      -6.7      1.332      1.673
REMARK  Name = 
REMARK  5 active torsions:
REMARK  status: ('A' for Active; 'I' for Inactive)
REMARK    1  A    between atoms: C_1  and  O_2
REMARK    2  A    between atoms: O_2  and  C_3
REMARK    3  A    between atoms: C_6  and  N_7
REMARK    4  A    between atoms: C_11  and  C_13
REMARK    5  A    between atoms: C_13  and  N_14
REMARK                            x       y       z     vdW  Elec       q    Type
REMARK                         _______ _______ _______ _____ _____    ______ ____
ROOT
ATOM      1  N   UNL     1       2.103   7.017  19.978  0.00  0.00    +0.000 N 
ATOM      2  C   UNL     1       1.976   5.838  20.860  0.00  0.00    +0.000 C 
ATOM      3  C   UNL     1       1.432   4.638  20.058  0.00  0.00    +0.000 C 
ATOM      4  N   UNL     1       2.228   4.388  18.850  0.00  0.00    +0.000 N 
ATOM      5  C   UNL     1       3.084   3.294  18.827  0.00  0.00    +0.000 C 
ATOM      6  O   UNL     1       3.192   2.560  19.813  0.00  0.00    +0.000 OA
ATOM      7  C   UNL     1       2.327   5.563  17.974  0.00  0.00    +0.000 C 
ATOM      8  C   UNL     1       2.883   6.781  18.747  0.00  0.00    +0.000 C 
ENDROOT
BRANCH   1  12
ATOM      9  C   UNL     1       0.145  10.677  20.818  0.00  0.00    +0.000 A 
ATOM     10  C   UNL     1       0.624  10.405  19.542  0.00  0.00    +0.000 A 
ATOM     11  C   UNL     1       1.258   9.184  19.268  0.00  0.00    +0.000 A 
ATOM     12  C   UNL     1       1.459   8.208  20.256  0.00  0.00    +0.000 A 
ATOM     13  C   UNL     1       0.979   8.519  21.535  0.00  0.00    +0.000 A 
ATOM     14  C   UNL     1       0.332   9.734  21.819  0.00  0.00    +0.000 A 
BRANCH   9  16
ATOM     15  C   UNL     1      -1.590  12.139  20.161  0.00  0.00    +0.000 C 
ATOM     16  O   UNL     1      -0.443  11.901  20.976  0.00  0.00    +0.000 OA
ENDBRANCH   9  16
ENDBRANCH   1  12
BRANCH   5  17
ATOM     17  C   UNL     1       3.890   3.007  17.555  0.00  0.00    +0.000 C 
BRANCH  17  18
ATOM     18  N   UNL     1       4.833   4.080  17.266  0.00  0.00    +0.000 N 
ATOM     19  N   UNL     1       4.921   4.494  15.946  0.00  0.00    +0.000 NA
ATOM     20  C   UNL     1       5.788   5.417  15.683  0.00  0.00    +0.000 A 
ATOM     21  C   UNL     1       6.621   6.113  16.670  0.00  0.00    +0.000 A 
ATOM     22  C   UNL     1       6.592   5.627  17.910  0.00  0.00    +0.000 A 
ATOM     23  C   UNL     1       5.750   4.457  18.244  0.00  0.00    +0.000 A 
ATOM     24  O   UNL     1       5.889   3.923  19.339  0.00  0.00    +0.000 OA
ENDBRANCH  17  18
ENDBRANCH   5  17
TORSDOF 4
ENDMDL
MODEL 8
REMARK VINA RESULT:      -6.6      3.023      9.541
REMARK  Name = 
REMARK  5 active torsions:
REMARK  status: ('A' for Active; 'I' for Inactive)
REMARK    1  A    between atoms: C_1  and  O_2
REMARK    2  A    between atoms: O_2  and  C_3
REMARK    3  A    between atoms: C_6  and  N_7
REMARK    4  A    between atoms: C_11  and  C_13
REMARK    5  A    between atoms: C_13  and  N_14
REMARK                            x       y       z     vdW  Elec       q    Type
REMARK                         _______ _______ _______ _____ _____    ______ ____
ROOT
ATOM      1  N   UNL     1       1.528   8.473  20.271  0.00  0.00    +0.000 N 
ATOM      2  C   UNL     1       1.126   9.617  19.426  0.00  0.00    +0.000 C 
ATOM      3  C   UNL     1      -0.359   9.956  19.672  0.00  0.00    +0.000 C 
ATOM      4  N   UNL     1      -0.642  10.148  21.101  0.00  0.00    +0.000 N 
ATOM      5  C   UNL     1      -0.852  11.437  21.574  0.00  0.00    +0.000 C 
ATOM      6  O   UNL     1      -0.778  12.406  20.813  0.00  0.00    +0.000 OA
ATOM      7  C   UNL     1      -0.256   8.993  21.923  0.00  0.00    +0.000 C 
ATOM      8  C   UNL     1       1.233   8.637  21.708  0.00  0.00    +0.000 C 
ENDROOT
BRANCH   1  12
ATOM      9  C   UNL     1       3.137   4.918  18.625  0.00  0.00    +0.000 A 
ATOM     10  C   UNL     1       2.539   4.911  19.879  0.00  0.00    +0.000 A 
ATOM     11  C   UNL     1       1.994   6.090  20.411  0.00  0.00    +0.000 A 
ATOM     12  C   UNL     1       2.050   7.314  19.727  0.00  0.00    +0.000 A 
ATOM     13  C   UNL     1       2.674   7.290  18.472  0.00  0.00    +0.000 A 
ATOM     14  C   UNL     1       3.213   6.114  17.924  0.00  0.00    +0.000 A 
BRANCH   9  16
ATOM     15  C   UNL     1       3.592   2.665  19.172  0.00  0.00    +0.000 C 
ATOM     16  O   UNL     1       3.645   3.719  18.210  0.00  0.00    +0.000 OA
ENDBRANCH   9  16
ENDBRANCH   1  12
BRANCH   5  17
ATOM     17  C   UNL     1      -1.184  11.640  23.057  0.00  0.00    +0.000 C 
BRANCH  17  18
ATOM     18  N   UNL     1      -2.267  12.599  23.235  0.00  0.00    +0.000 N 
ATOM     19  N   UNL     1      -3.509  12.236  22.739  0.00  0.00    +0.000 NA
ATOM     20  C   UNL     1      -4.460  13.104  22.859  0.00  0.00    +0.000 A 
ATOM     21  C   UNL     1      -4.354  14.397  23.544  0.00  0.00    +0.000 A 
ATOM     22  C   UNL     1      -3.130  14.765  23.918  0.00  0.00    +0.000 A 
ATOM     23  C   UNL     1      -1.965  13.893  23.654  0.00  0.00    +0.000 A 
ATOM     24  O   UNL     1      -0.838  14.340  23.839  0.00  0.00    +0.000 OA
ENDBRANCH  17  18
ENDBRANCH   5  17
TORSDOF 4
ENDMDL
MODEL 9
REMARK VINA RESULT:      -6.6      2.990      8.808
REMARK  Name = 
REMARK  5 active torsions:
REMARK  status: ('A' for Active; 'I' for Inactive)
REMARK    1  A    between atoms: C_1  and  O_2
REMARK    2  A    between atoms: O_2  and  C_3
REMARK    3  A    between atoms: C_6  and  N_7
REMARK    4  A    between atoms: C_11  and  C_13
REMARK    5  A    between atoms: C_13  and  N_14
REMARK                            x       y       z     vdW  Elec       q    Type
REMARK                         _______ _______ _______ _____ _____    ______ ____
ROOT
ATOM      1  N   UNL     1       1.989   7.761  19.627  0.00  0.00    +0.000 N 
ATOM      2  C   UNL     1       2.130   8.674  18.474  0.00  0.00    +0.000 C 
ATOM      3  C   UNL     1       0.857   9.532  18.324  0.00  0.00    +0.000 C 
ATOM      4  N   UNL     1       0.512  10.213  19.579  0.00  0.00    +0.000 N 
ATOM      5  C   UNL     1       0.741  11.580  19.683  0.00  0.00    +0.000 C 
ATOM      6  O   UNL     1       1.248  12.206  18.748  0.00  0.00    +0.000 OA
ATOM      7  C   UNL     1       0.355   9.290  20.710  0.00  0.00    +0.000 C 
ATOM      8  C   UNL     1       1.622   8.424  20.894  0.00  0.00    +0.000 C 
ENDROOT
BRANCH   1  12
ATOM      9  C   UNL     1       2.351   3.561  19.224  0.00  0.00    +0.000 A 
ATOM     10  C   UNL     1       1.987   4.127  20.438  0.00  0.00    +0.000 A 
ATOM     11  C   UNL     1       1.854   5.519  20.561  0.00  0.00    +0.000 A 
ATOM     12  C   UNL     1       2.103   6.390  19.489  0.00  0.00    +0.000 A 
ATOM     13  C   UNL     1       2.484   5.788  18.282  0.00  0.00    +0.000 A 
ATOM     14  C   UNL     1       2.609   4.395  18.145  0.00  0.00    +0.000 A 
BRANCH   9  16
ATOM     15  C   UNL     1       3.394   1.662  18.281  0.00  0.00    +0.000 C 
ATOM     16  O   UNL     1       2.464   2.198  19.221  0.00  0.00    +0.000 OA
ENDBRANCH   9  16
ENDBRANCH   1  12
BRANCH   5  17
ATOM     17  C   UNL     1       0.349  12.303  20.977  0.00  0.00    +0.000 C 
BRANCH  17  18
ATOM     18  N   UNL     1      -1.098  12.424  21.104  0.00  0.00    +0.000 N 
ATOM     19  N   UNL     1      -1.811  12.638  19.934  0.00  0.00    +0.000 NA
ATOM     20  C   UNL     1      -3.090  12.787  20.052  0.00  0.00    +0.000 A 
ATOM     21  C   UNL     1      -3.852  12.668  21.300  0.00  0.00    +0.000 A 
ATOM     22  C   UNL     1      -3.136  12.565  22.419  0.00  0.00    +0.000 A 
ATOM     23  C   UNL     1      -1.658  12.564  22.371  0.00  0.00    +0.000 A 
ATOM     24  O   UNL     1      -1.033  12.658  23.423  0.00  0.00    +0.000 OA
ENDBRANCH  17  18
ENDBRANCH   5  17
TORSDOF 4
ENDMDL
