MODEL 1
REMARK VINA RESULT:      -8.3      0.000      0.000
REMARK  Name = 
REMARK  6 active torsions:
REMARK  status: ('A' for Active; 'I' for Inactive)
REMARK    1  A    between atoms: O_1  and  C_2
REMARK    2  A    between atoms: C_2  and  C_3
REMARK    3  A    between atoms: C_8  and  C_9
REMARK    4  A    between atoms: C_9  and  C_10
REMARK    5  A    between atoms: C_24  and  O_25
REMARK    6  A    between atoms: C_26  and  O_27
REMARK                            x       y       z     vdW  Elec       q    Type
REMARK                         _______ _______ _______ _____ _____    ______ ____
ROOT
ATOM      1  C   UNL     1      -3.704  10.269  16.106  0.00  0.00    +0.000 C 
ATOM      2  O   UNL     1      -2.333   9.980  16.403  0.00  0.00    +0.000 OA
ATOM      3  C   UNL     1      -2.083   9.769  17.788  0.00  0.00    +0.000 C 
ATOM      4  C   UNL     1      -0.628   9.956  17.994  0.00  0.00    +0.000 A 
ATOM      5  C   UNL     1       0.423   9.094  17.738  0.00  0.00    +0.000 A 
ATOM      6  C   UNL     1       1.731   9.538  18.001  0.00  0.00    +0.000 A 
ATOM      7  C   UNL     1       1.948  10.844  18.487  0.00  0.00    +0.000 A 
ATOM      8  C   UNL     1       0.878  11.710  18.718  0.00  0.00    +0.000 A 
ATOM      9  C   UNL     1      -0.393  11.238  18.473  0.00  0.00    +0.000 A 
ATOM     10  O   UNL     1      -1.545  11.969  18.645  0.00  0.00    +0.000 OA
ATOM     11  C   UNL     1      -2.556  10.917  18.699  0.00  0.00    +0.000 C 
ATOM     12  C   UNL     1      -3.921  11.462  18.301  0.00  0.00    +0.000 C 
ATOM     13  C   UNL     1      -4.117  11.584  16.784  0.00  0.00    +0.000 C 
ENDROOT
BRANCH  12  14
ATOM     14  O   UNL     1      -4.167  12.719  18.933  0.00  0.00    +0.000 OA
ATOM     15  H   UNL     1      -4.484  12.527  19.838  0.00  0.00    +0.000 HD
ENDBRANCH  12  14
BRANCH  13  16
ATOM     16  O   UNL     1      -5.475  11.891  16.462  0.00  0.00    +0.000 OA
ATOM     17  H   UNL     1      -5.643  11.622  15.540  0.00  0.00    +0.000 HD
ENDBRANCH  13  16
BRANCH   1  18
ATOM     18  C   UNL     1      -3.863  10.365  14.580  0.00  0.00    +0.000 C 
BRANCH  18  19
ATOM     19  O   UNL     1      -2.639  10.009  13.932  0.00  0.00    +0.000 OA
ATOM     20  H   UNL     1      -2.869   9.349  13.256  0.00  0.00    +0.000 HD
ENDBRANCH  18  19
ENDBRANCH   1  18
BRANCH   6  21
ATOM     21  C   UNL     1       2.906   8.627  17.760  0.00  0.00    +0.000 C 
BRANCH  21  22
ATOM     22  C   UNL     1       2.771   7.271  18.373  0.00  0.00    +0.000 A 
ATOM     23  C   UNL     1       2.938   6.063  17.736  0.00  0.00    +0.000 A 
ATOM     24  C   UNL     1       2.221   5.021  18.400  0.00  0.00    +0.000 A 
ATOM     25  C   UNL     1       1.809   3.760  17.916  0.00  0.00    +0.000 A 
ATOM     26  C   UNL     1       1.092   2.897  18.742  0.00  0.00    +0.000 A 
ATOM     27  C   UNL     1       0.872   3.229  20.073  0.00  0.00    +0.000 A 
ATOM     28  C   UNL     1       1.279   4.467  20.581  0.00  0.00    +0.000 A 
ATOM     29  C   UNL     1       1.887   5.387  19.705  0.00  0.00    +0.000 A 
ATOM     30  S   UNL     1       2.266   7.044  19.990  0.00  0.00    +0.000 S 
ENDBRANCH  21  22
ENDBRANCH   6  21
TORSDOF 6
ENDMDL
MODEL 2
REMARK VINA RESULT:      -7.7      6.671      9.913
REMARK  Name = 
REMARK  6 active torsions:
REMARK  status: ('A' for Active; 'I' for Inactive)
REMARK    1  A    between atoms: O_1  and  C_2
REMARK    2  A    between atoms: C_2  and  C_3
REMARK    3  A    between atoms: C_8  and  C_9
REMARK    4  A    between atoms: C_9  and  C_10
REMARK    5  A    between atoms: C_24  and  O_25
REMARK    6  A    between atoms: C_26  and  O_27
REMARK                            x       y       z     vdW  Elec       q    Type
REMARK                         _______ _______ _______ _____ _____    ______ ____
ROOT
ATOM      1  C   UNL     1       2.739   5.245  18.972  0.00  0.00    +0.000 C 
ATOM      2  O   UNL     1       3.857   6.101  18.707  0.00  0.00    +0.000 OA
ATOM      3  C   UNL     1       4.809   5.534  17.814  0.00  0.00    +0.000 C 
ATOM      4  C   UNL     1       6.074   6.281  18.006  0.00  0.00    +0.000 A 
ATOM      5  C   UNL     1       6.456   7.520  17.526  0.00  0.00    +0.000 A 
ATOM      6  C   UNL     1       7.719   8.018  17.888  0.00  0.00    +0.000 A 
ATOM      7  C   UNL     1       8.553   7.269  18.745  0.00  0.00    +0.000 A 
ATOM      8  C   UNL     1       8.143   6.029  19.240  0.00  0.00    +0.000 A 
ATOM      9  C   UNL     1       6.909   5.559  18.848  0.00  0.00    +0.000 A 
ATOM     10  O   UNL     1       6.364   4.364  19.253  0.00  0.00    +0.000 OA
ATOM     11  C   UNL     1       5.334   4.151  18.241  0.00  0.00    +0.000 C 
ATOM     12  C   UNL     1       4.235   3.242  18.774  0.00  0.00    +0.000 C 
ATOM     13  C   UNL     1       3.219   3.963  19.670  0.00  0.00    +0.000 C 
ENDROOT
BRANCH  12  14
ATOM     14  O   UNL     1       4.795   2.124  19.466  0.00  0.00    +0.000 OA
ATOM     15  H   UNL     1       5.502   1.760  18.895  0.00  0.00    +0.000 HD
ENDBRANCH  12  14
BRANCH  13  16
ATOM     16  O   UNL     1       2.101   3.123  19.964  0.00  0.00    +0.000 OA
ATOM     17  H   UNL     1       2.417   2.205  20.043  0.00  0.00    +0.000 HD
ENDBRANCH  13  16
BRANCH   1  18
ATOM     18  C   UNL     1       1.738   6.008  19.853  0.00  0.00    +0.000 C 
BRANCH  18  19
ATOM     19  O   UNL     1       2.116   5.912  21.229  0.00  0.00    +0.000 OA
ATOM     20  H   UNL     1       2.890   5.323  21.258  0.00  0.00    +0.000 HD
ENDBRANCH  18  19
ENDBRANCH   1  18
BRANCH   6  21
ATOM     21  C   UNL     1       8.188   9.353  17.371  0.00  0.00    +0.000 C 
BRANCH  21  22
ATOM     22  C   UNL     1       8.958  10.162  18.365  0.00  0.00    +0.000 A 
ATOM     23  C   UNL     1       8.881  10.067  19.735  0.00  0.00    +0.000 A 
ATOM     24  C   UNL     1       9.278  11.286  20.365  0.00  0.00    +0.000 A 
ATOM     25  C   UNL     1       9.009  11.757  21.668  0.00  0.00    +0.000 A 
ATOM     26  C   UNL     1       9.485  13.004  22.071  0.00  0.00    +0.000 A 
ATOM     27  C   UNL     1      10.311  13.738  21.230  0.00  0.00    +0.000 A 
ATOM     28  C   UNL     1      10.603  13.289  19.938  0.00  0.00    +0.000 A 
ATOM     29  C   UNL     1      10.012  12.092  19.492  0.00  0.00    +0.000 A 
ATOM     30  S   UNL     1       9.999  11.434  17.899  0.00  0.00    +0.000 S 
ENDBRANCH  21  22
ENDBRANCH   6  21
TORSDOF 6
ENDMDL
MODEL 3
REMARK VINA RESULT:      -7.6      4.604      8.341
REMARK  Name = 
REMARK  6 active torsions:
REMARK  status: ('A' for Active; 'I' for Inactive)
REMARK    1  A    between atoms: O_1  and  C_2
REMARK    2  A    between atoms: C_2  and  C_3
REMARK    3  A    between atoms: C_8  and  C_9
REMARK    4  A    between atoms: C_9  and  C_10
REMARK    5  A    between atoms: C_24  and  O_25
REMARK    6  A    between atoms: C_26  and  O_27
REMARK                            x       y       z     vdW  Elec       q    Type
REMARK                         _______ _______ _______ _____ _____    ______ ____
ROOT
ATOM      1  C   UNL     1       1.506   2.882  19.821  0.00  0.00    +0.000 C 
ATOM      2  O   UNL     1       1.620   4.270  19.484  0.00  0.00    +0.000 OA
ATOM      3  C   UNL     1       1.681   4.512  18.083  0.00  0.00    +0.000 C 
ATOM      4  C   UNL     1       2.259   5.865  17.908  0.00  0.00    +0.000 A 
ATOM      5  C   UNL     1       1.663   7.107  18.033  0.00  0.00    +0.000 A 
ATOM      6  C   UNL     1       2.457   8.251  17.840  0.00  0.00    +0.000 A 
ATOM      7  C   UNL     1       3.832   8.115  17.553  0.00  0.00    +0.000 A 
ATOM      8  C   UNL     1       4.422   6.854  17.453  0.00  0.00    +0.000 A 
ATOM      9  C   UNL     1       3.613   5.753  17.625  0.00  0.00    +0.000 A 
ATOM     10  O   UNL     1       4.045   4.449  17.564  0.00  0.00    +0.000 OA
ATOM     11  C   UNL     1       2.790   3.732  17.353  0.00  0.00    +0.000 C 
ATOM     12  C   UNL     1       2.908   2.290  17.827  0.00  0.00    +0.000 C 
ATOM     13  C   UNL     1       2.757   2.127  19.346  0.00  0.00    +0.000 C 
ENDROOT
BRANCH  12  14
ATOM     14  O   UNL     1       4.140   1.714  17.390  0.00  0.00    +0.000 OA
ATOM     15  H   UNL     1       4.596   2.391  16.851  0.00  0.00    +0.000 HD
ENDBRANCH  12  14
BRANCH  13  16
ATOM     16  O   UNL     1       2.660   0.748  19.710  0.00  0.00    +0.000 OA
ATOM     17  H   UNL     1       3.530   0.451  20.032  0.00  0.00    +0.000 HD
ENDBRANCH  13  16
BRANCH   1  18
ATOM     18  C   UNL     1       1.337   2.761  21.344  0.00  0.00    +0.000 C 
BRANCH  18  19
ATOM     19  O   UNL     1       2.604   2.522  21.964  0.00  0.00    +0.000 OA
ATOM     20  H   UNL     1       2.646   1.567  22.141  0.00  0.00    +0.000 HD
ENDBRANCH  18  19
ENDBRANCH   1  18
BRANCH   6  21
ATOM     21  C   UNL     1       1.850   9.625  17.943  0.00  0.00    +0.000 C 
BRANCH  21  22
ATOM     22  C   UNL     1       0.850   9.776  19.043  0.00  0.00    +0.000 A 
ATOM     23  C   UNL     1      -0.298  10.535  19.011  0.00  0.00    +0.000 A 
ATOM     24  C   UNL     1      -0.712  10.910  20.325  0.00  0.00    +0.000 A 
ATOM     25  C   UNL     1      -1.570  11.952  20.737  0.00  0.00    +0.000 A 
ATOM     26  C   UNL     1      -1.823  12.153  22.093  0.00  0.00    +0.000 A 
ATOM     27  C   UNL     1      -1.315  11.266  23.034  0.00  0.00    +0.000 A 
ATOM     28  C   UNL     1      -0.471  10.218  22.652  0.00  0.00    +0.000 A 
ATOM     29  C   UNL     1      -0.116  10.101  21.295  0.00  0.00    +0.000 A 
ATOM     30  S   UNL     1       1.074   9.075  20.586  0.00  0.00    +0.000 S 
ENDBRANCH  21  22
ENDBRANCH   6  21
TORSDOF 6
ENDMDL
MODEL 4
REMARK VINA RESULT:      -7.4      2.868      3.661
REMARK  Name = 
REMARK  6 active torsions:
REMARK  status: ('A' for Active; 'I' for Inactive)
REMARK    1  A    between atoms: O_1  and  C_2
REMARK    2  A    between atoms: C_2  and  C_3
REMARK    3  A    between atoms: C_8  and  C_9
REMARK    4  A    between atoms: C_9  and  C_10
REMARK    5  A    between atoms: C_24  and  O_25
REMARK    6  A    between atoms: C_26  and  O_27
REMARK                            x       y       z     vdW  Elec       q    Type
REMARK                         _______ _______ _______ _____ _____    ______ ____
ROOT
ATOM      1  C   UNL     1      -0.040  13.880  18.900  0.00  0.00    +0.000 C 
ATOM      2  O   UNL     1       0.634  12.630  18.713  0.00  0.00    +0.000 OA
ATOM      3  C   UNL     1      -0.249  11.521  18.585  0.00  0.00    +0.000 C 
ATOM      4  C   UNL     1       0.548  10.306  18.873  0.00  0.00    +0.000 A 
ATOM      5  C   UNL     1       1.434   9.612  18.069  0.00  0.00    +0.000 A 
ATOM      6  C   UNL     1       2.089   8.491  18.606  0.00  0.00    +0.000 A 
ATOM      7  C   UNL     1       1.856   8.113  19.946  0.00  0.00    +0.000 A 
ATOM      8  C   UNL     1       0.975   8.837  20.752  0.00  0.00    +0.000 A 
ATOM      9  C   UNL     1       0.332   9.917  20.189  0.00  0.00    +0.000 A 
ATOM     10  O   UNL     1      -0.556  10.731  20.852  0.00  0.00    +0.000 OA
ATOM     11  C   UNL     1      -1.253  11.374  19.742  0.00  0.00    +0.000 C 
ATOM     12  C   UNL     1      -1.849  12.704  20.180  0.00  0.00    +0.000 C 
ATOM     13  C   UNL     1      -0.831  13.853  20.217  0.00  0.00    +0.000 C 
ENDROOT
BRANCH  12  14
ATOM     14  O   UNL     1      -2.495  12.577  21.448  0.00  0.00    +0.000 OA
ATOM     15  H   UNL     1      -2.952  11.712  21.449  0.00  0.00    +0.000 HD
ENDBRANCH  12  14
BRANCH  13  16
ATOM     16  O   UNL     1      -1.478  15.111  20.422  0.00  0.00    +0.000 OA
ATOM     17  H   UNL     1      -1.893  15.385  19.583  0.00  0.00    +0.000 HD
ENDBRANCH  13  16
BRANCH   1  18
ATOM     18  C   UNL     1       1.009  15.004  18.913  0.00  0.00    +0.000 C 
BRANCH  18  19
ATOM     19  O   UNL     1       0.423  16.231  18.471  0.00  0.00    +0.000 OA
ATOM     20  H   UNL     1      -0.540  16.094  18.480  0.00  0.00    +0.000 HD
ENDBRANCH  18  19
ENDBRANCH   1  18
BRANCH   6  21
ATOM     21  C   UNL     1       3.046   7.691  17.762  0.00  0.00    +0.000 C 
BRANCH  21  22
ATOM     22  C   UNL     1       3.076   6.231  18.081  0.00  0.00    +0.000 A 
ATOM     23  C   UNL     1       2.058   5.327  17.882  0.00  0.00    +0.000 A 
ATOM     24  C   UNL     1       2.174   4.209  18.762  0.00  0.00    +0.000 A 
ATOM     25  C   UNL     1       1.199   3.270  19.161  0.00  0.00    +0.000 A 
ATOM     26  C   UNL     1       1.533   2.257  20.059  0.00  0.00    +0.000 A 
ATOM     27  C   UNL     1       2.847   2.105  20.480  0.00  0.00    +0.000 A 
ATOM     28  C   UNL     1       3.836   3.014  20.090  0.00  0.00    +0.000 A 
ATOM     29  C   UNL     1       3.464   4.111  19.289  0.00  0.00    +0.000 A 
ATOM     30  S   UNL     1       4.403   5.492  18.864  0.00  0.00    +0.000 S 
ENDBRANCH  21  22
ENDBRANCH   6  21
TORSDOF 6
ENDMDL
MODEL 5
REMARK VINA RESULT:      -7.4      4.851      8.216
REMARK  Name = 
REMARK  6 active torsions:
REMARK  status: ('A' for Active; 'I' for Inactive)
REMARK    1  A    between atoms: O_1  and  C_2
REMARK    2  A    between atoms: C_2  and  C_3
REMARK    3  A    between atoms: C_8  and  C_9
REMARK    4  A    between atoms: C_9  and  C_10
REMARK    5  A    between atoms: C_24  and  O_25
REMARK    6  A    between atoms: C_26  and  O_27
REMARK                            x       y       z     vdW  Elec       q    Type
REMARK                         _______ _______ _______ _____ _____    ______ ____
ROOT
ATOM      1  C   UNL     1       1.421   2.914  19.771  0.00  0.00    +0.000 C 
ATOM      2  O   UNL     1       1.517   4.296  19.406  0.00  0.00    +0.000 OA
ATOM      3  C   UNL     1       1.652   4.507  18.005  0.00  0.00    +0.000 C 
ATOM      4  C   UNL     1       2.203   5.871  17.829  0.00  0.00    +0.000 A 
ATOM      5  C   UNL     1       1.570   7.099  17.889  0.00  0.00    +0.000 A 
ATOM      6  C   UNL     1       2.343   8.259  17.711  0.00  0.00    +0.000 A 
ATOM      7  C   UNL     1       3.735   8.154  17.506  0.00  0.00    +0.000 A 
ATOM      8  C   UNL     1       4.363   6.908  17.471  0.00  0.00    +0.000 A 
ATOM      9  C   UNL     1       3.574   5.789  17.626  0.00  0.00    +0.000 A 
ATOM     10  O   UNL     1       4.042   4.496  17.621  0.00  0.00    +0.000 OA
ATOM     11  C   UNL     1       2.821   3.741  17.359  0.00  0.00    +0.000 C 
ATOM     12  C   UNL     1       2.949   2.315  17.875  0.00  0.00    +0.000 C 
ATOM     13  C   UNL     1       2.716   2.183  19.387  0.00  0.00    +0.000 C 
ENDROOT
BRANCH  12  14
ATOM     14  O   UNL     1       4.218   1.762  17.522  0.00  0.00    +0.000 OA
ATOM     15  H   UNL     1       4.042   0.945  17.013  0.00  0.00    +0.000 HD
ENDBRANCH  12  14
BRANCH  13  16
ATOM     16  O   UNL     1       2.634   0.811  19.779  0.00  0.00    +0.000 OA
ATOM     17  H   UNL     1       2.939   0.258  19.037  0.00  0.00    +0.000 HD
ENDBRANCH  13  16
BRANCH   1  18
ATOM     18  C   UNL     1       1.169   2.825  21.285  0.00  0.00    +0.000 C 
BRANCH  18  19
ATOM     19  O   UNL     1       2.404   2.639  21.982  0.00  0.00    +0.000 OA
ATOM     20  H   UNL     1       3.041   3.254  21.577  0.00  0.00    +0.000 HD
ENDBRANCH  18  19
ENDBRANCH   1  18
BRANCH   6  21
ATOM     21  C   UNL     1       1.695   9.618  17.746  0.00  0.00    +0.000 C 
BRANCH  21  22
ATOM     22  C   UNL     1       1.348  10.101  19.117  0.00  0.00    +0.000 A 
ATOM     23  C   UNL     1       1.417   9.375  20.284  0.00  0.00    +0.000 A 
ATOM     24  C   UNL     1       0.529   9.893  21.274  0.00  0.00    +0.000 A 
ATOM     25  C   UNL     1       0.008   9.274  22.431  0.00  0.00    +0.000 A 
ATOM     26  C   UNL     1      -0.873   9.971  23.257  0.00  0.00    +0.000 A 
ATOM     27  C   UNL     1      -1.157  11.307  23.004  0.00  0.00    +0.000 A 
ATOM     28  C   UNL     1      -0.644  11.948  21.872  0.00  0.00    +0.000 A 
ATOM     29  C   UNL     1       0.138  11.199  20.971  0.00  0.00    +0.000 A 
ATOM     30  S   UNL     1       0.691  11.652  19.403  0.00  0.00    +0.000 S 
ENDBRANCH  21  22
ENDBRANCH   6  21
TORSDOF 6
ENDMDL
MODEL 6
REMARK VINA RESULT:      -7.3      2.881      4.319
REMARK  Name = 
REMARK  6 active torsions:
REMARK  status: ('A' for Active; 'I' for Inactive)
REMARK    1  A    between atoms: O_1  and  C_2
REMARK    2  A    between atoms: C_2  and  C_3
REMARK    3  A    between atoms: C_8  and  C_9
REMARK    4  A    between atoms: C_9  and  C_10
REMARK    5  A    between atoms: C_24  and  O_25
REMARK    6  A    between atoms: C_26  and  O_27
REMARK                            x       y       z     vdW  Elec       q    Type
REMARK                         _______ _______ _______ _____ _____    ______ ____
ROOT
ATOM      1  C   UNL     1      -1.424  12.489  20.498  0.00  0.00    +0.000 C 
ATOM      2  O   UNL     1      -0.787  11.214  20.349  0.00  0.00    +0.000 OA
ATOM      3  C   UNL     1       0.618  11.251  20.570  0.00  0.00    +0.000 C 
ATOM      4  C   UNL     1       1.182  10.036  19.938  0.00  0.00    +0.000 A 
ATOM      5  C   UNL     1       1.209   8.730  20.392  0.00  0.00    +0.000 A 
ATOM      6  C   UNL     1       1.789   7.748  19.570  0.00  0.00    +0.000 A 
ATOM      7  C   UNL     1       2.301   8.101  18.304  0.00  0.00    +0.000 A 
ATOM      8  C   UNL     1       2.246   9.420  17.851  0.00  0.00    +0.000 A 
ATOM      9  C   UNL     1       1.692  10.363  18.689  0.00  0.00    +0.000 A 
ATOM     10  O   UNL     1       1.560  11.697  18.385  0.00  0.00    +0.000 OA
ATOM     11  C   UNL     1       1.368  12.284  19.708  0.00  0.00    +0.000 C 
ATOM     12  C   UNL     1       0.633  13.613  19.606  0.00  0.00    +0.000 C 
ATOM     13  C   UNL     1      -0.886  13.466  19.441  0.00  0.00    +0.000 C 
ENDROOT
BRANCH  12  14
ATOM     14  O   UNL     1       1.169  14.407  18.547  0.00  0.00    +0.000 OA
ATOM     15  H   UNL     1       2.144  14.364  18.623  0.00  0.00    +0.000 HD
ENDBRANCH  12  14
BRANCH  13  16
ATOM     16  O   UNL     1      -1.544  14.728  19.568  0.00  0.00    +0.000 OA
ATOM     17  H   UNL     1      -2.243  14.647  20.242  0.00  0.00    +0.000 HD
ENDBRANCH  13  16
BRANCH   1  18
ATOM     18  C   UNL     1      -2.942  12.297  20.345  0.00  0.00    +0.000 C 
BRANCH  18  19
ATOM     19  O   UNL     1      -3.319  12.413  18.971  0.00  0.00    +0.000 OA
ATOM     20  H   UNL     1      -2.511  12.655  18.485  0.00  0.00    +0.000 HD
ENDBRANCH  18  19
ENDBRANCH   1  18
BRANCH   6  21
ATOM     21  C   UNL     1       1.862   6.316  20.031  0.00  0.00    +0.000 C 
BRANCH  21  22
ATOM     22  C   UNL     1       2.863   5.483  19.298  0.00  0.00    +0.000 A 
ATOM     23  C   UNL     1       4.204   5.372  19.586  0.00  0.00    +0.000 A 
ATOM     24  C   UNL     1       4.955   4.986  18.433  0.00  0.00    +0.000 A 
ATOM     25  C   UNL     1       6.336   5.114  18.172  0.00  0.00    +0.000 A 
ATOM     26  C   UNL     1       6.857   4.683  16.953  0.00  0.00    +0.000 A 
ATOM     27  C   UNL     1       6.041   4.030  16.038  0.00  0.00    +0.000 A 
ATOM     28  C   UNL     1       4.671   3.879  16.278  0.00  0.00    +0.000 A 
ATOM     29  C   UNL     1       4.128   4.435  17.452  0.00  0.00    +0.000 A 
ATOM     30  S   UNL     1       2.469   4.609  17.884  0.00  0.00    +0.000 S 
ENDBRANCH  21  22
ENDBRANCH   6  21
TORSDOF 6
ENDMDL
MODEL 7
REMARK VINA RESULT:      -7.3      2.142      3.759
REMARK  Name = 
REMARK  6 active torsions:
REMARK  status: ('A' for Active; 'I' for Inactive)
REMARK    1  A    between atoms: O_1  and  C_2
REMARK    2  A    between atoms: C_2  and  C_3
REMARK    3  A    between atoms: C_8  and  C_9
REMARK    4  A    between atoms: C_9  and  C_10
REMARK    5  A    between atoms: C_24  and  O_25
REMARK    6  A    between atoms: C_26  and  O_27
REMARK                            x       y       z     vdW  Elec       q    Type
REMARK                         _______ _______ _______ _____ _____    ______ ____
ROOT
ATOM      1  C   UNL     1      -1.500  12.055  22.280  0.00  0.00    +0.000 C 
ATOM      2  O   UNL     1      -0.717  11.270  21.373  0.00  0.00    +0.000 OA
ATOM      3  C   UNL     1      -0.371  11.958  20.177  0.00  0.00    +0.000 C 
ATOM      4  C   UNL     1      -0.005  10.925  19.180  0.00  0.00    +0.000 A 
ATOM      5  C   UNL     1       1.170  10.210  19.033  0.00  0.00    +0.000 A 
ATOM      6  C   UNL     1       1.247   9.253  18.006  0.00  0.00    +0.000 A 
ATOM      7  C   UNL     1       0.132   9.022  17.173  0.00  0.00    +0.000 A 
ATOM      8  C   UNL     1      -1.055   9.736  17.349  0.00  0.00    +0.000 A 
ATOM      9  C   UNL     1      -1.091  10.682  18.349  0.00  0.00    +0.000 A 
ATOM     10  O   UNL     1      -2.183  11.460  18.650  0.00  0.00    +0.000 OA
ATOM     11  C   UNL     1      -1.573  12.545  19.414  0.00  0.00    +0.000 C 
ATOM     12  C   UNL     1      -2.595  13.197  20.334  0.00  0.00    +0.000 C 
ATOM     13  C   UNL     1      -2.845  12.414  21.630  0.00  0.00    +0.000 C 
ENDROOT
BRANCH  12  14
ATOM     14  O   UNL     1      -3.828  13.416  19.646  0.00  0.00    +0.000 OA
ATOM     15  H   UNL     1      -3.726  14.246  19.136  0.00  0.00    +0.000 HD
ENDBRANCH  12  14
BRANCH  13  16
ATOM     16  O   UNL     1      -3.641  13.170  22.546  0.00  0.00    +0.000 OA
ATOM     17  H   UNL     1      -4.563  13.166  22.231  0.00  0.00    +0.000 HD
ENDBRANCH  13  16
BRANCH   1  18
ATOM     18  C   UNL     1      -1.712  11.246  23.570  0.00  0.00    +0.000 C 
BRANCH  18  19
ATOM     19  O   UNL     1      -0.751  10.190  23.654  0.00  0.00    +0.000 OA
ATOM     20  H   UNL     1       0.121  10.604  23.534  0.00  0.00    +0.000 HD
ENDBRANCH  18  19
ENDBRANCH   1  18
BRANCH   6  21
ATOM     21  C   UNL     1       2.513   8.465  17.793  0.00  0.00    +0.000 C 
BRANCH  21  22
ATOM     22  C   UNL     1       2.499   7.100  18.401  0.00  0.00    +0.000 A 
ATOM     23  C   UNL     1       2.660   5.906  17.737  0.00  0.00    +0.000 A 
ATOM     24  C   UNL     1       2.058   4.826  18.452  0.00  0.00    +0.000 A 
ATOM     25  C   UNL     1       1.660   3.551  17.995  0.00  0.00    +0.000 A 
ATOM     26  C   UNL     1       1.065   2.649  18.875  0.00  0.00    +0.000 A 
ATOM     27  C   UNL     1       0.957   2.961  20.224  0.00  0.00    +0.000 A 
ATOM     28  C   UNL     1       1.354   4.212  20.707  0.00  0.00    +0.000 A 
ATOM     29  C   UNL     1       1.833   5.166  19.788  0.00  0.00    +0.000 A 
ATOM     30  S   UNL     1       2.161   6.837  20.055  0.00  0.00    +0.000 S 
ENDBRANCH  21  22
ENDBRANCH   6  21
TORSDOF 6
ENDMDL
MODEL 8
REMARK VINA RESULT:      -7.3      5.128      9.203
REMARK  Name = 
REMARK  6 active torsions:
REMARK  status: ('A' for Active; 'I' for Inactive)
REMARK    1  A    between atoms: O_1  and  C_2
REMARK    2  A    between atoms: C_2  and  C_3
REMARK    3  A    between atoms: C_8  and  C_9
REMARK    4  A    between atoms: C_9  and  C_10
REMARK    5  A    between atoms: C_24  and  O_25
REMARK    6  A    between atoms: C_26  and  O_27
REMARK                            x       y       z     vdW  Elec       q    Type
REMARK                         _______ _______ _______ _____ _____    ______ ____
ROOT
ATOM      1  C   UNL     1       6.876   4.888  19.171  0.00  0.00    +0.000 C 
ATOM      2  O   UNL     1       5.710   5.633  19.544  0.00  0.00    +0.000 OA
ATOM      3  C   UNL     1       4.495   5.066  19.064  0.00  0.00    +0.000 C 
ATOM      4  C   UNL     1       3.478   6.142  19.104  0.00  0.00    +0.000 A 
ATOM      5  C   UNL     1       2.751   6.638  20.171  0.00  0.00    +0.000 A 
ATOM      6  C   UNL     1       1.858   7.698  19.936  0.00  0.00    +0.000 A 
ATOM      7  C   UNL     1       1.739   8.247  18.642  0.00  0.00    +0.000 A 
ATOM      8  C   UNL     1       2.497   7.750  17.580  0.00  0.00    +0.000 A 
ATOM      9  C   UNL     1       3.346   6.697  17.838  0.00  0.00    +0.000 A 
ATOM     10  O   UNL     1       4.160   6.102  16.902  0.00  0.00    +0.000 OA
ATOM     11  C   UNL     1       4.465   4.827  17.544  0.00  0.00    +0.000 C 
ATOM     12  C   UNL     1       5.771   4.255  17.010  0.00  0.00    +0.000 C 
ATOM     13  C   UNL     1       7.022   4.882  17.641  0.00  0.00    +0.000 C 
ENDROOT
BRANCH  12  14
ATOM     14  O   UNL     1       5.828   4.368  15.587  0.00  0.00    +0.000 OA
ATOM     15  H   UNL     1       5.669   5.308  15.369  0.00  0.00    +0.000 HD
ENDBRANCH  12  14
BRANCH  13  16
ATOM     16  O   UNL     1       8.202   4.167  17.269  0.00  0.00    +0.000 OA
ATOM     17  H   UNL     1       8.805   4.146  18.035  0.00  0.00    +0.000 HD
ENDBRANCH  13  16
BRANCH   1  18
ATOM     18  C   UNL     1       8.102   5.534  19.837  0.00  0.00    +0.000 C 
BRANCH  18  19
ATOM     19  O   UNL     1       8.233   5.072  21.183  0.00  0.00    +0.000 OA
ATOM     20  H   UNL     1       8.226   5.866  21.746  0.00  0.00    +0.000 HD
ENDBRANCH  18  19
ENDBRANCH   1  18
BRANCH   6  21
ATOM     21  C   UNL     1       1.028   8.257  21.062  0.00  0.00    +0.000 C 
BRANCH  21  22
ATOM     22  C   UNL     1       0.477   9.622  20.803  0.00  0.00    +0.000 A 
ATOM     23  C   UNL     1      -0.526   9.946  19.918  0.00  0.00    +0.000 A 
ATOM     24  C   UNL     1      -0.433  11.309  19.502  0.00  0.00    +0.000 A 
ATOM     25  C   UNL     1      -0.987  11.946  18.370  0.00  0.00    +0.000 A 
ATOM     26  C   UNL     1      -0.747  13.301  18.146  0.00  0.00    +0.000 A 
ATOM     27  C   UNL     1      -0.053  14.050  19.087  0.00  0.00    +0.000 A 
ATOM     28  C   UNL     1       0.496  13.447  20.223  0.00  0.00    +0.000 A 
ATOM     29  C   UNL     1       0.362  12.054  20.376  0.00  0.00    +0.000 A 
ATOM     30  S   UNL     1       1.127  11.026  21.529  0.00  0.00    +0.000 S 
ENDBRANCH  21  22
ENDBRANCH   6  21
TORSDOF 6
ENDMDL
MODEL 9
REMARK VINA RESULT:      -7.2      5.063      8.994
REMARK  Name = 
REMARK  6 active torsions:
REMARK  status: ('A' for Active; 'I' for Inactive)
REMARK    1  A    between atoms: O_1  and  C_2
REMARK    2  A    between atoms: C_2  and  C_3
REMARK    3  A    between atoms: C_8  and  C_9
REMARK    4  A    between atoms: C_9  and  C_10
REMARK    5  A    between atoms: C_24  and  O_25
REMARK    6  A    between atoms: C_26  and  O_27
REMARK                            x       y       z     vdW  Elec       q    Type
REMARK                         _______ _______ _______ _____ _____    ______ ____
ROOT
ATOM      1  C   UNL     1       6.453   5.085  18.763  0.00  0.00    +0.000 C 
ATOM      2  O   UNL     1       5.312   5.795  19.259  0.00  0.00    +0.000 OA
ATOM      3  C   UNL     1       4.111   5.508  18.552  0.00  0.00    +0.000 C 
ATOM      4  C   UNL     1       3.171   6.617  18.838  0.00  0.00    +0.000 A 
ATOM      5  C   UNL     1       2.384   6.849  19.952  0.00  0.00    +0.000 A 
ATOM      6  C   UNL     1       1.592   8.010  19.981  0.00  0.00    +0.000 A 
ATOM      7  C   UNL     1       1.633   8.919  18.902  0.00  0.00    +0.000 A 
ATOM      8  C   UNL     1       2.450   8.681  17.795  0.00  0.00    +0.000 A 
ATOM      9  C   UNL     1       3.197   7.524  17.787  0.00  0.00    +0.000 A 
ATOM     10  O   UNL     1       4.051   7.152  16.775  0.00  0.00    +0.000 OA
ATOM     11  C   UNL     1       4.206   5.723  17.030  0.00  0.00    +0.000 C 
ATOM     12  C   UNL     1       5.513   5.210  16.442  0.00  0.00    +0.000 C 
ATOM     13  C   UNL     1       6.740   5.508  17.315  0.00  0.00    +0.000 C 
ENDROOT
BRANCH  12  14
ATOM     14  O   UNL     1       5.710   5.724  15.123  0.00  0.00    +0.000 OA
ATOM     15  H   UNL     1       4.877   5.576  14.632  0.00  0.00    +0.000 HD
ENDBRANCH  12  14
BRANCH  13  16
ATOM     16  O   UNL     1       7.897   4.824  16.830  0.00  0.00    +0.000 OA
ATOM     17  H   UNL     1       7.939   4.935  15.862  0.00  0.00    +0.000 HD
ENDBRANCH  13  16
BRANCH   1  18
ATOM     18  C   UNL     1       7.653   5.393  19.673  0.00  0.00    +0.000 C 
BRANCH  18  19
ATOM     19  O   UNL     1       8.352   6.545  19.196  0.00  0.00    +0.000 OA
ATOM     20  H   UNL     1       8.509   7.111  19.971  0.00  0.00    +0.000 HD
ENDBRANCH  18  19
ENDBRANCH   1  18
BRANCH   6  21
ATOM     21  C   UNL     1       0.702   8.295  21.162  0.00  0.00    +0.000 C 
BRANCH  21  22
ATOM     22  C   UNL     1       0.122   9.672  21.178  0.00  0.00    +0.000 A 
ATOM     23  C   UNL     1       0.032  10.511  22.266  0.00  0.00    +0.000 A 
ATOM     24  C   UNL     1      -1.023  11.461  22.105  0.00  0.00    +0.000 A 
ATOM     25  C   UNL     1      -1.698  12.230  23.076  0.00  0.00    +0.000 A 
ATOM     26  C   UNL     1      -2.726  13.091  22.692  0.00  0.00    +0.000 A 
ATOM     27  C   UNL     1      -3.015  13.273  21.346  0.00  0.00    +0.000 A 
ATOM     28  C   UNL     1      -2.353  12.531  20.362  0.00  0.00    +0.000 A 
ATOM     29  C   UNL     1      -1.409  11.569  20.768  0.00  0.00    +0.000 A 
ATOM     30  S   UNL     1      -0.629  10.366  19.809  0.00  0.00    +0.000 S 
ENDBRANCH  21  22
ENDBRANCH   6  21
TORSDOF 6
ENDMDL
