MODEL 1
REMARK VINA RESULT:      -9.3      0.000      0.000
REMARK  Name = 
REMARK  11 active torsions:
REMARK  status: ('A' for Active; 'I' for Inactive)
REMARK    1  A    between atoms: C_1  and  C_2
REMARK    2  A    between atoms: C_5  and  C_6
REMARK    3  A    between atoms: C_6  and  N_7
REMARK    4  A    between atoms: C_6  and  C_27
REMARK    5  A    between atoms: N_7  and  C_8
REMARK    6  A    between atoms: C_9  and  N_10
REMARK    7  A    between atoms: N_10  and  C_11
REMARK    8  A    between atoms: C_15  and  C_16
REMARK    9  A    between atoms: N_18  and  C_19
REMARK   10  A    between atoms: N_18  and  C_20
REMARK   11  A    between atoms: C_21  and  O_22
REMARK                            x       y       z     vdW  Elec       q    Type
REMARK                         _______ _______ _______ _____ _____    ______ ____
ROOT
ATOM      1  C   UNL     1       4.060   3.810  18.983  0.00  0.00    +0.000 C 
ATOM      2  C   UNL     1       3.054   4.561  19.549  0.00  0.00    +0.000 C 
ATOM      3  C   UNL     1       2.062   3.481  19.321  0.00  0.00    +0.000 C 
ATOM      4  O   UNL     1       0.904   3.244  19.567  0.00  0.00    +0.000 OA
ATOM      5  C   UNL     1       3.102   2.765  18.540  0.00  0.00    +0.000 C 
ATOM      6  O   UNL     1       3.087   1.753  17.886  0.00  0.00    +0.000 OA
ENDROOT
BRANCH   1   7
ATOM      7  N   UNL     1       5.377   3.857  18.787  0.00  0.00    +0.000 N 
ATOM      8  H   UNL     1       5.920   4.171  19.602  0.00  0.00    +0.000 HD
BRANCH   7   9
ATOM      9  C   UNL     1       5.857   4.754  17.683  0.00  0.00    +0.000 C 
BRANCH   9  14
ATOM     10  C   UNL     1       7.992   9.115  17.561  0.00  0.00    +0.000 C 
ATOM     11  C   UNL     1       7.800   7.758  18.119  0.00  0.00    +0.000 A 
ATOM     12  C   UNL     1       8.455   7.039  19.092  0.00  0.00    +0.000 A 
ATOM     13  C   UNL     1       7.843   5.760  19.129  0.00  0.00    +0.000 A 
ATOM     14  C   UNL     1       6.845   5.780  18.176  0.00  0.00    +0.000 A 
ATOM     15  O   UNL     1       6.804   7.006  17.574  0.00  0.00    +0.000 OA
ENDBRANCH   9  14
BRANCH   9  16
ATOM     16  C   UNL     1       6.434   3.976  16.463  0.00  0.00    +0.000 C 
ATOM     17  C   UNL     1       5.445   3.548  15.385  0.00  0.00    +0.000 C 
ATOM     18  C   UNL     1       5.612   4.608  14.329  0.00  0.00    +0.000 C 
ATOM     19  C   UNL     1       7.095   4.890  14.415  0.00  0.00    +0.000 C 
ATOM     20  O   UNL     1       7.462   4.745  15.793  0.00  0.00    +0.000 OA
ENDBRANCH   9  16
ENDBRANCH   7   9
ENDBRANCH   1   7
BRANCH   2  21
ATOM     21  N   UNL     1       2.837   5.723  20.139  0.00  0.00    +0.000 N 
ATOM     22  H   UNL     1       2.374   5.746  21.053  0.00  0.00    +0.000 HD
BRANCH  21  23
ATOM     23  C   UNL     1       2.518   6.957  19.490  0.00  0.00    +0.000 A 
ATOM     24  C   UNL     1       2.880   7.222  18.165  0.00  0.00    +0.000 A 
ATOM     25  C   UNL     1       2.497   8.404  17.540  0.00  0.00    +0.000 A 
ATOM     26  C   UNL     1       1.698   9.319  18.219  0.00  0.00    +0.000 A 
ATOM     27  C   UNL     1       1.324   9.103  19.559  0.00  0.00    +0.000 A 
ATOM     28  C   UNL     1       1.825   7.964  20.205  0.00  0.00    +0.000 A 
BRANCH  27  29
ATOM     29  C   UNL     1       0.467  10.172  20.154  0.00  0.00    +0.000 C 
ATOM     30  O   UNL     1       0.881  10.662  21.209  0.00  0.00    +0.000 OA
ATOM     31  N   UNL     1      -0.704  10.645  19.553  0.00  0.00    +0.000 N 
ATOM     32  C   UNL     1      -1.340  10.148  18.340  0.00  0.00    +0.000 C 
ATOM     33  C   UNL     1      -1.428  11.719  20.226  0.00  0.00    +0.000 C 
ENDBRANCH  27  29
BRANCH  28  34
ATOM     34  O   UNL     1       1.718   7.786  21.565  0.00  0.00    +0.000 OA
ATOM     35  H   UNL     1       0.822   8.080  21.811  0.00  0.00    +0.000 HD
ENDBRANCH  28  34
ENDBRANCH  21  23
ENDBRANCH   2  21
TORSDOF 8
ENDMDL
MODEL 2
REMARK VINA RESULT:      -8.5      1.357      1.637
REMARK  Name = 
REMARK  11 active torsions:
REMARK  status: ('A' for Active; 'I' for Inactive)
REMARK    1  A    between atoms: C_1  and  C_2
REMARK    2  A    between atoms: C_5  and  C_6
REMARK    3  A    between atoms: C_6  and  N_7
REMARK    4  A    between atoms: C_6  and  C_27
REMARK    5  A    between atoms: N_7  and  C_8
REMARK    6  A    between atoms: C_9  and  N_10
REMARK    7  A    between atoms: N_10  and  C_11
REMARK    8  A    between atoms: C_15  and  C_16
REMARK    9  A    between atoms: N_18  and  C_19
REMARK   10  A    between atoms: N_18  and  C_20
REMARK   11  A    between atoms: C_21  and  O_22
REMARK                            x       y       z     vdW  Elec       q    Type
REMARK                         _______ _______ _______ _____ _____    ______ ____
ROOT
ATOM      1  C   UNL     1       4.211   4.369  18.010  0.00  0.00    +0.000 C 
ATOM      2  C   UNL     1       3.207   5.311  18.040  0.00  0.00    +0.000 C 
ATOM      3  C   UNL     1       2.172   4.263  18.219  0.00  0.00    +0.000 C 
ATOM      4  O   UNL     1       0.982   4.183  18.405  0.00  0.00    +0.000 OA
ATOM      5  C   UNL     1       3.234   3.252  17.987  0.00  0.00    +0.000 C 
ATOM      6  O   UNL     1       3.216   2.051  17.878  0.00  0.00    +0.000 OA
ENDROOT
BRANCH   1   7
ATOM      7  N   UNL     1       5.542   4.302  17.974  0.00  0.00    +0.000 N 
ATOM      8  H   UNL     1       6.004   4.502  18.871  0.00  0.00    +0.000 HD
BRANCH   7   9
ATOM      9  C   UNL     1       6.232   5.226  17.013  0.00  0.00    +0.000 C 
BRANCH   9  14
ATOM     10  C   UNL     1       8.151   9.656  17.545  0.00  0.00    +0.000 C 
ATOM     11  C   UNL     1       7.950   8.250  17.960  0.00  0.00    +0.000 A 
ATOM     12  C   UNL     1       8.497   7.473  18.955  0.00  0.00    +0.000 A 
ATOM     13  C   UNL     1       7.949   6.175  18.802  0.00  0.00    +0.000 A 
ATOM     14  C   UNL     1       7.092   6.241  17.722  0.00  0.00    +0.000 A 
ATOM     15  O   UNL     1       7.075   7.512  17.221  0.00  0.00    +0.000 OA
ENDBRANCH   9  14
BRANCH   9  16
ATOM     16  C   UNL     1       7.051   4.478  15.920  0.00  0.00    +0.000 C 
ATOM     17  C   UNL     1       6.308   3.440  15.087  0.00  0.00    +0.000 C 
ATOM     18  C   UNL     1       5.985   4.188  13.820  0.00  0.00    +0.000 C 
ATOM     19  C   UNL     1       7.212   5.056  13.660  0.00  0.00    +0.000 C 
ATOM     20  O   UNL     1       7.641   5.409  14.982  0.00  0.00    +0.000 OA
ENDBRANCH   9  16
ENDBRANCH   7   9
ENDBRANCH   1   7
BRANCH   2  21
ATOM     21  N   UNL     1       3.011   6.617  17.996  0.00  0.00    +0.000 N 
ATOM     22  H   UNL     1       3.754   7.226  17.640  0.00  0.00    +0.000 HD
BRANCH  21  23
ATOM     23  C   UNL     1       2.262   7.395  18.934  0.00  0.00    +0.000 A 
ATOM     24  C   UNL     1       1.983   6.943  20.228  0.00  0.00    +0.000 A 
ATOM     25  C   UNL     1       1.311   7.750  21.140  0.00  0.00    +0.000 A 
ATOM     26  C   UNL     1       0.951   9.046  20.784  0.00  0.00    +0.000 A 
ATOM     27  C   UNL     1       1.195   9.537  19.487  0.00  0.00    +0.000 A 
ATOM     28  C   UNL     1       1.763   8.663  18.550  0.00  0.00    +0.000 A 
BRANCH  27  29
ATOM     29  C   UNL     1       0.753  10.945  19.253  0.00  0.00    +0.000 C 
ATOM     30  O   UNL     1       1.528  11.821  19.648  0.00  0.00    +0.000 OA
ATOM     31  N   UNL     1      -0.430  11.279  18.585  0.00  0.00    +0.000 N 
ATOM     32  C   UNL     1      -1.460  10.371  18.097  0.00  0.00    +0.000 C 
ATOM     33  C   UNL     1      -0.725  12.696  18.393  0.00  0.00    +0.000 C 
ENDBRANCH  27  29
BRANCH  28  34
ATOM     34  O   UNL     1       1.822   8.964  17.208  0.00  0.00    +0.000 OA
ATOM     35  H   UNL     1       2.139   8.158  16.761  0.00  0.00    +0.000 HD
ENDBRANCH  28  34
ENDBRANCH  21  23
ENDBRANCH   2  21
TORSDOF 8
ENDMDL
MODEL 3
REMARK VINA RESULT:      -8.4      1.184      1.401
REMARK  Name = 
REMARK  11 active torsions:
REMARK  status: ('A' for Active; 'I' for Inactive)
REMARK    1  A    between atoms: C_1  and  C_2
REMARK    2  A    between atoms: C_5  and  C_6
REMARK    3  A    between atoms: C_6  and  N_7
REMARK    4  A    between atoms: C_6  and  C_27
REMARK    5  A    between atoms: N_7  and  C_8
REMARK    6  A    between atoms: C_9  and  N_10
REMARK    7  A    between atoms: N_10  and  C_11
REMARK    8  A    between atoms: C_15  and  C_16
REMARK    9  A    between atoms: N_18  and  C_19
REMARK   10  A    between atoms: N_18  and  C_20
REMARK   11  A    between atoms: C_21  and  O_22
REMARK                            x       y       z     vdW  Elec       q    Type
REMARK                         _______ _______ _______ _____ _____    ______ ____
ROOT
ATOM      1  C   UNL     1       3.373   4.191  19.119  0.00  0.00    +0.000 C 
ATOM      2  C   UNL     1       2.544   4.998  19.867  0.00  0.00    +0.000 C 
ATOM      3  C   UNL     1       1.520   3.928  19.963  0.00  0.00    +0.000 C 
ATOM      4  O   UNL     1       0.459   3.732  20.503  0.00  0.00    +0.000 OA
ATOM      5  C   UNL     1       2.330   3.142  18.998  0.00  0.00    +0.000 C 
ATOM      6  O   UNL     1       2.146   2.091  18.436  0.00  0.00    +0.000 OA
ENDROOT
BRANCH   1   7
ATOM      7  N   UNL     1       4.601   4.197  18.600  0.00  0.00    +0.000 N 
ATOM      8  H   UNL     1       5.358   4.236  19.295  0.00  0.00    +0.000 HD
BRANCH   7   9
ATOM      9  C   UNL     1       4.926   5.327  17.667  0.00  0.00    +0.000 C 
BRANCH   9  14
ATOM     10  C   UNL     1       8.034   9.059  17.635  0.00  0.00    +0.000 C 
ATOM     11  C   UNL     1       7.634   7.682  18.000  0.00  0.00    +0.000 A 
ATOM     12  C   UNL     1       8.292   6.641  18.613  0.00  0.00    +0.000 A 
ATOM     13  C   UNL     1       7.394   5.543  18.619  0.00  0.00    +0.000 A 
ATOM     14  C   UNL     1       6.237   5.986  18.012  0.00  0.00    +0.000 A 
ATOM     15  O   UNL     1       6.375   7.297  17.653  0.00  0.00    +0.000 OA
ENDBRANCH   9  14
BRANCH   9  16
ATOM     16  C   UNL     1       4.895   4.915  16.166  0.00  0.00    +0.000 C 
ATOM     17  C   UNL     1       5.664   5.799  15.190  0.00  0.00    +0.000 C 
ATOM     18  C   UNL     1       6.955   5.049  14.996  0.00  0.00    +0.000 C 
ATOM     19  C   UNL     1       6.483   3.614  15.046  0.00  0.00    +0.000 C 
ATOM     20  O   UNL     1       5.399   3.570  15.983  0.00  0.00    +0.000 OA
ENDBRANCH   9  16
ENDBRANCH   7   9
ENDBRANCH   1   7
BRANCH   2  21
ATOM     21  N   UNL     1       2.487   6.199  20.414  0.00  0.00    +0.000 N 
ATOM     22  H   UNL     1       2.201   6.294  21.393  0.00  0.00    +0.000 HD
BRANCH  21  23
ATOM     23  C   UNL     1       2.105   7.412  19.759  0.00  0.00    +0.000 A 
ATOM     24  C   UNL     1       2.271   7.605  18.384  0.00  0.00    +0.000 A 
ATOM     25  C   UNL     1       1.828   8.769  17.764  0.00  0.00    +0.000 A 
ATOM     26  C   UNL     1       1.163   9.739  18.508  0.00  0.00    +0.000 A 
ATOM     27  C   UNL     1       0.989   9.596  19.898  0.00  0.00    +0.000 A 
ATOM     28  C   UNL     1       1.553   8.472  20.518  0.00  0.00    +0.000 A 
BRANCH  27  29
ATOM     29  C   UNL     1       0.258  10.718  20.560  0.00  0.00    +0.000 C 
ATOM     30  O   UNL     1      -0.744  10.395  21.205  0.00  0.00    +0.000 OA
ATOM     31  N   UNL     1       0.687  12.049  20.516  0.00  0.00    +0.000 N 
ATOM     32  C   UNL     1       1.817  12.592  19.773  0.00  0.00    +0.000 C 
ATOM     33  C   UNL     1      -0.104  13.041  21.238  0.00  0.00    +0.000 C 
ENDBRANCH  27  29
BRANCH  28  34
ATOM     34  O   UNL     1       1.646   8.359  21.886  0.00  0.00    +0.000 OA
ATOM     35  H   UNL     1       2.361   7.720  22.061  0.00  0.00    +0.000 HD
ENDBRANCH  28  34
ENDBRANCH  21  23
ENDBRANCH   2  21
TORSDOF 8
ENDMDL
MODEL 4
REMARK VINA RESULT:      -8.3      3.083      8.163
REMARK  Name = 
REMARK  11 active torsions:
REMARK  status: ('A' for Active; 'I' for Inactive)
REMARK    1  A    between atoms: C_1  and  C_2
REMARK    2  A    between atoms: C_5  and  C_6
REMARK    3  A    between atoms: C_6  and  N_7
REMARK    4  A    between atoms: C_6  and  C_27
REMARK    5  A    between atoms: N_7  and  C_8
REMARK    6  A    between atoms: C_9  and  N_10
REMARK    7  A    between atoms: N_10  and  C_11
REMARK    8  A    between atoms: C_15  and  C_16
REMARK    9  A    between atoms: N_18  and  C_19
REMARK   10  A    between atoms: N_18  and  C_20
REMARK   11  A    between atoms: C_21  and  O_22
REMARK                            x       y       z     vdW  Elec       q    Type
REMARK                         _______ _______ _______ _____ _____    ______ ____
ROOT
ATOM      1  C   UNL     1      -0.189   9.750  20.881  0.00  0.00    +0.000 C 
ATOM      2  C   UNL     1       0.726   8.998  21.584  0.00  0.00    +0.000 C 
ATOM      3  C   UNL     1       0.297   9.600  22.870  0.00  0.00    +0.000 C 
ATOM      4  O   UNL     1       0.524   9.482  24.050  0.00  0.00    +0.000 OA
ATOM      5  C   UNL     1      -0.542  10.542  22.086  0.00  0.00    +0.000 C 
ATOM      6  O   UNL     1      -1.214  11.495  22.394  0.00  0.00    +0.000 OA
ENDROOT
BRANCH   1   7
ATOM      7  N   UNL     1      -0.662   9.880  19.642  0.00  0.00    +0.000 N 
ATOM      8  H   UNL     1      -0.072   9.458  18.913  0.00  0.00    +0.000 HD
BRANCH   7   9
ATOM      9  C   UNL     1      -0.874  11.282  19.151  0.00  0.00    +0.000 C 
BRANCH   9  14
ATOM     10  C   UNL     1       1.940  15.215  19.600  0.00  0.00    +0.000 C 
ATOM     11  C   UNL     1       1.695  13.810  19.207  0.00  0.00    +0.000 A 
ATOM     12  C   UNL     1       2.455  12.868  18.553  0.00  0.00    +0.000 A 
ATOM     13  C   UNL     1       1.637  11.718  18.410  0.00  0.00    +0.000 A 
ATOM     14  C   UNL     1       0.426  12.029  18.993  0.00  0.00    +0.000 A 
ATOM     15  O   UNL     1       0.468  13.298  19.499  0.00  0.00    +0.000 OA
ENDBRANCH   9  14
BRANCH   9  16
ATOM     16  C   UNL     1      -1.714  11.357  17.842  0.00  0.00    +0.000 C 
ATOM     17  C   UNL     1      -1.930  10.053  17.083  0.00  0.00    +0.000 C 
ATOM     18  C   UNL     1      -3.309   9.631  17.516  0.00  0.00    +0.000 C 
ATOM     19  C   UNL     1      -4.010  10.965  17.636  0.00  0.00    +0.000 C 
ATOM     20  O   UNL     1      -3.030  11.904  18.097  0.00  0.00    +0.000 OA
ENDBRANCH   9  16
ENDBRANCH   7   9
ENDBRANCH   1   7
BRANCH   2  21
ATOM     21  N   UNL     1       1.645   8.063  21.415  0.00  0.00    +0.000 N 
ATOM     22  H   UNL     1       2.466   8.048  22.026  0.00  0.00    +0.000 HD
BRANCH  21  23
ATOM     23  C   UNL     1       2.054   7.492  20.169  0.00  0.00    +0.000 A 
ATOM     24  C   UNL     1       2.094   8.231  18.983  0.00  0.00    +0.000 A 
ATOM     25  C   UNL     1       2.561   7.666  17.801  0.00  0.00    +0.000 A 
ATOM     26  C   UNL     1       3.045   6.361  17.801  0.00  0.00    +0.000 A 
ATOM     27  C   UNL     1       3.008   5.573  18.968  0.00  0.00    +0.000 A 
ATOM     28  C   UNL     1       2.419   6.125  20.114  0.00  0.00    +0.000 A 
BRANCH  27  29
ATOM     29  C   UNL     1       3.560   4.193  18.814  0.00  0.00    +0.000 C 
ATOM     30  O   UNL     1       4.786   4.095  18.918  0.00  0.00    +0.000 OA
ATOM     31  N   UNL     1       2.762   3.062  18.618  0.00  0.00    +0.000 N 
ATOM     32  C   UNL     1       1.317   3.017  18.436  0.00  0.00    +0.000 C 
ATOM     33  C   UNL     1       3.431   1.768  18.519  0.00  0.00    +0.000 C 
ENDBRANCH  27  29
BRANCH  28  34
ATOM     34  O   UNL     1       2.120   5.366  21.222  0.00  0.00    +0.000 OA
ATOM     35  H   UNL     1       1.199   5.578  21.460  0.00  0.00    +0.000 HD
ENDBRANCH  28  34
ENDBRANCH  21  23
ENDBRANCH   2  21
TORSDOF 8
ENDMDL
MODEL 5
REMARK VINA RESULT:      -8.2      2.042      3.823
REMARK  Name = 
REMARK  11 active torsions:
REMARK  status: ('A' for Active; 'I' for Inactive)
REMARK    1  A    between atoms: C_1  and  C_2
REMARK    2  A    between atoms: C_5  and  C_6
REMARK    3  A    between atoms: C_6  and  N_7
REMARK    4  A    between atoms: C_6  and  C_27
REMARK    5  A    between atoms: N_7  and  C_8
REMARK    6  A    between atoms: C_9  and  N_10
REMARK    7  A    between atoms: N_10  and  C_11
REMARK    8  A    between atoms: C_15  and  C_16
REMARK    9  A    between atoms: N_18  and  C_19
REMARK   10  A    between atoms: N_18  and  C_20
REMARK   11  A    between atoms: C_21  and  O_22
REMARK                            x       y       z     vdW  Elec       q    Type
REMARK                         _______ _______ _______ _____ _____    ______ ____
ROOT
ATOM      1  C   UNL     1       3.660   5.299  17.275  0.00  0.00    +0.000 C 
ATOM      2  C   UNL     1       3.158   5.941  18.385  0.00  0.00    +0.000 C 
ATOM      3  C   UNL     1       2.380   4.741  18.779  0.00  0.00    +0.000 C 
ATOM      4  O   UNL     1       1.674   4.372  19.687  0.00  0.00    +0.000 OA
ATOM      5  C   UNL     1       2.769   4.130  17.483  0.00  0.00    +0.000 C 
ATOM      6  O   UNL     1       2.463   3.101  16.935  0.00  0.00    +0.000 OA
ENDROOT
BRANCH   1   7
ATOM      7  N   UNL     1       4.542   5.500  16.296  0.00  0.00    +0.000 N 
ATOM      8  H   UNL     1       4.126   5.595  15.360  0.00  0.00    +0.000 HD
BRANCH   7   9
ATOM      9  C   UNL     1       5.585   4.438  16.108  0.00  0.00    +0.000 C 
BRANCH   9  14
ATOM     10  C   UNL     1       4.401   3.222  11.558  0.00  0.00    +0.000 C 
ATOM     11  C   UNL     1       5.358   3.665  12.595  0.00  0.00    +0.000 A 
ATOM     12  C   UNL     1       6.716   3.889  12.590  0.00  0.00    +0.000 A 
ATOM     13  C   UNL     1       7.072   4.236  13.918  0.00  0.00    +0.000 A 
ATOM     14  C   UNL     1       5.904   4.209  14.653  0.00  0.00    +0.000 A 
ATOM     15  O   UNL     1       4.855   3.881  13.842  0.00  0.00    +0.000 OA
ENDBRANCH   9  14
BRANCH   9  16
ATOM     16  C   UNL     1       6.886   4.701  16.922  0.00  0.00    +0.000 C 
ATOM     17  C   UNL     1       7.438   6.122  16.904  0.00  0.00    +0.000 C 
ATOM     18  C   UNL     1       6.940   6.697  18.203  0.00  0.00    +0.000 C 
ATOM     19  C   UNL     1       7.020   5.496  19.117  0.00  0.00    +0.000 C 
ATOM     20  O   UNL     1       6.711   4.348  18.315  0.00  0.00    +0.000 OA
ENDBRANCH   9  16
ENDBRANCH   7   9
ENDBRANCH   1   7
BRANCH   2  21
ATOM     21  N   UNL     1       3.227   7.089  19.037  0.00  0.00    +0.000 N 
ATOM     22  H   UNL     1       4.027   7.273  19.649  0.00  0.00    +0.000 HD
BRANCH  21  23
ATOM     23  C   UNL     1       2.126   7.827  19.574  0.00  0.00    +0.000 A 
ATOM     24  C   UNL     1       1.587   7.557  20.836  0.00  0.00    +0.000 A 
ATOM     25  C   UNL     1       0.560   8.336  21.359  0.00  0.00    +0.000 A 
ATOM     26  C   UNL     1       0.090   9.434  20.644  0.00  0.00    +0.000 A 
ATOM     27  C   UNL     1       0.591   9.733  19.362  0.00  0.00    +0.000 A 
ATOM     28  C   UNL     1       1.537   8.861  18.806  0.00  0.00    +0.000 A 
BRANCH  27  29
ATOM     29  C   UNL     1      -0.010  10.939  18.717  0.00  0.00    +0.000 C 
ATOM     30  O   UNL     1      -0.926  10.718  17.920  0.00  0.00    +0.000 OA
ATOM     31  N   UNL     1       0.382  12.248  19.017  0.00  0.00    +0.000 N 
ATOM     32  C   UNL     1       1.463  12.670  19.898  0.00  0.00    +0.000 C 
ATOM     33  C   UNL     1      -0.313  13.338  18.338  0.00  0.00    +0.000 C 
ENDBRANCH  27  29
BRANCH  28  34
ATOM     34  O   UNL     1       1.907   8.927  17.482  0.00  0.00    +0.000 OA
ATOM     35  H   UNL     1       2.141   9.857  17.309  0.00  0.00    +0.000 HD
ENDBRANCH  28  34
ENDBRANCH  21  23
ENDBRANCH   2  21
TORSDOF 8
ENDMDL
MODEL 6
REMARK VINA RESULT:      -8.2      1.468      3.084
REMARK  Name = 
REMARK  11 active torsions:
REMARK  status: ('A' for Active; 'I' for Inactive)
REMARK    1  A    between atoms: C_1  and  C_2
REMARK    2  A    between atoms: C_5  and  C_6
REMARK    3  A    between atoms: C_6  and  N_7
REMARK    4  A    between atoms: C_6  and  C_27
REMARK    5  A    between atoms: N_7  and  C_8
REMARK    6  A    between atoms: C_9  and  N_10
REMARK    7  A    between atoms: N_10  and  C_11
REMARK    8  A    between atoms: C_15  and  C_16
REMARK    9  A    between atoms: N_18  and  C_19
REMARK   10  A    between atoms: N_18  and  C_20
REMARK   11  A    between atoms: C_21  and  O_22
REMARK                            x       y       z     vdW  Elec       q    Type
REMARK                         _______ _______ _______ _____ _____    ______ ____
ROOT
ATOM      1  C   UNL     1       3.957   3.183  18.714  0.00  0.00    +0.000 C 
ATOM      2  C   UNL     1       2.919   3.745  19.424  0.00  0.00    +0.000 C 
ATOM      3  C   UNL     1       3.318   3.025  20.658  0.00  0.00    +0.000 C 
ATOM      4  O   UNL     1       2.996   2.966  21.820  0.00  0.00    +0.000 OA
ATOM      5  C   UNL     1       4.306   2.279  19.839  0.00  0.00    +0.000 C 
ATOM      6  O   UNL     1       5.053   1.364  20.083  0.00  0.00    +0.000 OA
ENDROOT
BRANCH   1   7
ATOM      7  N   UNL     1       4.529   3.263  17.513  0.00  0.00    +0.000 N 
ATOM      8  H   UNL     1       4.769   2.355  17.093  0.00  0.00    +0.000 HD
BRANCH   7   9
ATOM      9  C   UNL     1       5.814   4.033  17.434  0.00  0.00    +0.000 C 
BRANCH   9  14
ATOM     10  C   UNL     1       5.300   3.583  12.625  0.00  0.00    +0.000 C 
ATOM     11  C   UNL     1       6.009   4.057  13.835  0.00  0.00    +0.000 A 
ATOM     12  C   UNL     1       7.211   4.696  14.033  0.00  0.00    +0.000 A 
ATOM     13  C   UNL     1       7.373   4.824  15.436  0.00  0.00    +0.000 A 
ATOM     14  C   UNL     1       6.253   4.259  16.010  0.00  0.00    +0.000 A 
ATOM     15  O   UNL     1       5.410   3.809  15.033  0.00  0.00    +0.000 OA
ENDBRANCH   9  14
BRANCH   9  16
ATOM     16  C   UNL     1       5.775   5.379  18.217  0.00  0.00    +0.000 C 
ATOM     17  C   UNL     1       6.823   5.575  19.308  0.00  0.00    +0.000 C 
ATOM     18  C   UNL     1       7.868   6.418  18.627  0.00  0.00    +0.000 C 
ATOM     19  C   UNL     1       7.017   7.302  17.744  0.00  0.00    +0.000 C 
ATOM     20  O   UNL     1       5.901   6.508  17.321  0.00  0.00    +0.000 OA
ENDBRANCH   9  16
ENDBRANCH   7   9
ENDBRANCH   1   7
BRANCH   2  21
ATOM     21  N   UNL     1       1.920   4.599  19.294  0.00  0.00    +0.000 N 
ATOM     22  H   UNL     1       1.079   4.317  18.782  0.00  0.00    +0.000 HD
BRANCH  21  23
ATOM     23  C   UNL     1       2.031   6.017  19.144  0.00  0.00    +0.000 A 
ATOM     24  C   UNL     1       2.483   6.613  17.962  0.00  0.00    +0.000 A 
ATOM     25  C   UNL     1       2.516   7.996  17.823  0.00  0.00    +0.000 A 
ATOM     26  C   UNL     1       2.045   8.807  18.851  0.00  0.00    +0.000 A 
ATOM     27  C   UNL     1       1.596   8.253  20.065  0.00  0.00    +0.000 A 
ATOM     28  C   UNL     1       1.689   6.864  20.226  0.00  0.00    +0.000 A 
BRANCH  27  29
ATOM     29  C   UNL     1       1.122   9.247  21.074  0.00  0.00    +0.000 C 
ATOM     30  O   UNL     1       1.741   9.259  22.142  0.00  0.00    +0.000 OA
ATOM     31  N   UNL     1       0.083  10.152  20.834  0.00  0.00    +0.000 N 
ATOM     32  C   UNL     1      -0.763  10.237  19.651  0.00  0.00    +0.000 C 
ATOM     33  C   UNL     1      -0.256  11.094  21.897  0.00  0.00    +0.000 C 
ENDBRANCH  27  29
BRANCH  28  34
ATOM     34  O   UNL     1       1.504   6.253  21.446  0.00  0.00    +0.000 OA
ATOM     35  H   UNL     1       0.542   6.135  21.551  0.00  0.00    +0.000 HD
ENDBRANCH  28  34
ENDBRANCH  21  23
ENDBRANCH   2  21
TORSDOF 8
ENDMDL
MODEL 7
REMARK VINA RESULT:      -8.1      1.840      3.662
REMARK  Name = 
REMARK  11 active torsions:
REMARK  status: ('A' for Active; 'I' for Inactive)
REMARK    1  A    between atoms: C_1  and  C_2
REMARK    2  A    between atoms: C_5  and  C_6
REMARK    3  A    between atoms: C_6  and  N_7
REMARK    4  A    between atoms: C_6  and  C_27
REMARK    5  A    between atoms: N_7  and  C_8
REMARK    6  A    between atoms: C_9  and  N_10
REMARK    7  A    between atoms: N_10  and  C_11
REMARK    8  A    between atoms: C_15  and  C_16
REMARK    9  A    between atoms: N_18  and  C_19
REMARK   10  A    between atoms: N_18  and  C_20
REMARK   11  A    between atoms: C_21  and  O_22
REMARK                            x       y       z     vdW  Elec       q    Type
REMARK                         _______ _______ _______ _____ _____    ______ ____
ROOT
ATOM      1  C   UNL     1       3.611   5.192  17.356  0.00  0.00    +0.000 C 
ATOM      2  C   UNL     1       3.119   5.746  18.517  0.00  0.00    +0.000 C 
ATOM      3  C   UNL     1       2.298   4.542  18.794  0.00  0.00    +0.000 C 
ATOM      4  O   UNL     1       1.572   4.116  19.659  0.00  0.00    +0.000 OA
ATOM      5  C   UNL     1       2.680   4.040  17.450  0.00  0.00    +0.000 C 
ATOM      6  O   UNL     1       2.346   3.076  16.808  0.00  0.00    +0.000 OA
ENDROOT
BRANCH   1   7
ATOM      7  N   UNL     1       4.508   5.452  16.405  0.00  0.00    +0.000 N 
ATOM      8  H   UNL     1       4.110   5.582  15.466  0.00  0.00    +0.000 HD
BRANCH   7   9
ATOM      9  C   UNL     1       5.574   4.416  16.191  0.00  0.00    +0.000 C 
BRANCH   9  14
ATOM     10  C   UNL     1       4.429   3.207  11.628  0.00  0.00    +0.000 C 
ATOM     11  C   UNL     1       5.367   3.687  12.667  0.00  0.00    +0.000 A 
ATOM     12  C   UNL     1       6.710   3.987  12.658  0.00  0.00    +0.000 A 
ATOM     13  C   UNL     1       7.055   4.333  13.990  0.00  0.00    +0.000 A 
ATOM     14  C   UNL     1       5.895   4.229  14.731  0.00  0.00    +0.000 A 
ATOM     15  O   UNL     1       4.860   3.855  13.920  0.00  0.00    +0.000 OA
ENDBRANCH   9  14
BRANCH   9  16
ATOM     16  C   UNL     1       6.870   4.687  17.010  0.00  0.00    +0.000 C 
ATOM     17  C   UNL     1       7.431   6.104  16.968  0.00  0.00    +0.000 C 
ATOM     18  C   UNL     1       6.927   6.708  18.252  0.00  0.00    +0.000 C 
ATOM     19  C   UNL     1       6.992   5.524  19.190  0.00  0.00    +0.000 C 
ATOM     20  O   UNL     1       6.682   4.363  18.408  0.00  0.00    +0.000 OA
ENDBRANCH   9  16
ENDBRANCH   7   9
ENDBRANCH   1   7
BRANCH   2  21
ATOM     21  N   UNL     1       3.220   6.826  19.272  0.00  0.00    +0.000 N 
ATOM     22  H   UNL     1       3.982   6.896  19.953  0.00  0.00    +0.000 HD
BRANCH  21  23
ATOM     23  C   UNL     1       2.137   7.601  19.792  0.00  0.00    +0.000 A 
ATOM     24  C   UNL     1       1.462   7.252  20.967  0.00  0.00    +0.000 A 
ATOM     25  C   UNL     1       0.458   8.063  21.484  0.00  0.00    +0.000 A 
ATOM     26  C   UNL     1       0.147   9.266  20.858  0.00  0.00    +0.000 A 
ATOM     27  C   UNL     1       0.787   9.649  19.665  0.00  0.00    +0.000 A 
ATOM     28  C   UNL     1       1.708   8.758  19.097  0.00  0.00    +0.000 A 
BRANCH  27  29
ATOM     29  C   UNL     1       0.348  10.966  19.109  0.00  0.00    +0.000 C 
ATOM     30  O   UNL     1       1.133  11.904  19.276  0.00  0.00    +0.000 OA
ATOM     31  N   UNL     1      -0.842  11.142  18.396  0.00  0.00    +0.000 N 
ATOM     32  C   UNL     1      -1.883  10.152  18.149  0.00  0.00    +0.000 C 
ATOM     33  C   UNL     1      -1.132  12.476  17.878  0.00  0.00    +0.000 C 
ENDBRANCH  27  29
BRANCH  28  34
ATOM     34  O   UNL     1       2.204   8.927  17.825  0.00  0.00    +0.000 OA
ATOM     35  H   UNL     1       1.789   9.736  17.473  0.00  0.00    +0.000 HD
ENDBRANCH  28  34
ENDBRANCH  21  23
ENDBRANCH   2  21
TORSDOF 8
ENDMDL
MODEL 8
REMARK VINA RESULT:      -8.1      1.136      1.538
REMARK  Name = 
REMARK  11 active torsions:
REMARK  status: ('A' for Active; 'I' for Inactive)
REMARK    1  A    between atoms: C_1  and  C_2
REMARK    2  A    between atoms: C_5  and  C_6
REMARK    3  A    between atoms: C_6  and  N_7
REMARK    4  A    between atoms: C_6  and  C_27
REMARK    5  A    between atoms: N_7  and  C_8
REMARK    6  A    between atoms: C_9  and  N_10
REMARK    7  A    between atoms: N_10  and  C_11
REMARK    8  A    between atoms: C_15  and  C_16
REMARK    9  A    between atoms: N_18  and  C_19
REMARK   10  A    between atoms: N_18  and  C_20
REMARK   11  A    between atoms: C_21  and  O_22
REMARK                            x       y       z     vdW  Elec       q    Type
REMARK                         _______ _______ _______ _____ _____    ______ ____
ROOT
ATOM      1  C   UNL     1       3.567   3.721  18.582  0.00  0.00    +0.000 C 
ATOM      2  C   UNL     1       2.991   4.744  19.302  0.00  0.00    +0.000 C 
ATOM      3  C   UNL     1       1.755   3.953  19.518  0.00  0.00    +0.000 C 
ATOM      4  O   UNL     1       0.709   4.045  20.113  0.00  0.00    +0.000 OA
ATOM      5  C   UNL     1       2.304   2.941  18.579  0.00  0.00    +0.000 C 
ATOM      6  O   UNL     1       1.850   1.931  18.103  0.00  0.00    +0.000 OA
ENDROOT
BRANCH   1   7
ATOM      7  N   UNL     1       4.731   3.406  18.015  0.00  0.00    +0.000 N 
ATOM      8  H   UNL     1       5.499   3.239  18.678  0.00  0.00    +0.000 HD
BRANCH   7   9
ATOM      9  C   UNL     1       5.306   4.416  17.065  0.00  0.00    +0.000 C 
BRANCH   9  14
ATOM     10  C   UNL     1       8.583   5.403  20.512  0.00  0.00    +0.000 C 
ATOM     11  C   UNL     1       7.819   5.734  19.289  0.00  0.00    +0.000 A 
ATOM     12  C   UNL     1       7.732   6.863  18.509  0.00  0.00    +0.000 A 
ATOM     13  C   UNL     1       6.770   6.587  17.504  0.00  0.00    +0.000 A 
ATOM     14  C   UNL     1       6.332   5.298  17.730  0.00  0.00    +0.000 A 
ATOM     15  O   UNL     1       6.987   4.769  18.806  0.00  0.00    +0.000 OA
ENDBRANCH   9  14
BRANCH   9  16
ATOM     16  C   UNL     1       5.885   3.782  15.766  0.00  0.00    +0.000 C 
ATOM     17  C   UNL     1       5.127   4.047  14.470  0.00  0.00    +0.000 C 
ATOM     18  C   UNL     1       5.911   5.168  13.840  0.00  0.00    +0.000 C 
ATOM     19  C   UNL     1       7.325   4.809  14.237  0.00  0.00    +0.000 C 
ATOM     20  O   UNL     1       7.248   4.212  15.538  0.00  0.00    +0.000 OA
ENDBRANCH   9  16
ENDBRANCH   7   9
ENDBRANCH   1   7
BRANCH   2  21
ATOM     21  N   UNL     1       3.246   5.956  19.763  0.00  0.00    +0.000 N 
ATOM     22  H   UNL     1       3.436   6.086  20.761  0.00  0.00    +0.000 HD
BRANCH  21  23
ATOM     23  C   UNL     1       2.671   7.179  19.295  0.00  0.00    +0.000 A 
ATOM     24  C   UNL     1       2.883   7.659  17.998  0.00  0.00    +0.000 A 
ATOM     25  C   UNL     1       2.255   8.816  17.550  0.00  0.00    +0.000 A 
ATOM     26  C   UNL     1       1.361   9.485  18.382  0.00  0.00    +0.000 A 
ATOM     27  C   UNL     1       1.130   9.049  19.700  0.00  0.00    +0.000 A 
ATOM     28  C   UNL     1       1.867   7.953  20.168  0.00  0.00    +0.000 A 
BRANCH  27  29
ATOM     29  C   UNL     1       0.147   9.868  20.471  0.00  0.00    +0.000 C 
ATOM     30  O   UNL     1      -0.800   9.244  20.960  0.00  0.00    +0.000 OA
ATOM     31  N   UNL     1       0.291  11.242  20.688  0.00  0.00    +0.000 N 
ATOM     32  C   UNL     1       1.322  12.121  20.151  0.00  0.00    +0.000 C 
ATOM     33  C   UNL     1      -0.727  11.914  21.491  0.00  0.00    +0.000 C 
ENDBRANCH  27  29
BRANCH  28  34
ATOM     34  O   UNL     1       1.893   7.599  21.498  0.00  0.00    +0.000 OA
ATOM     35  H   UNL     1       1.059   7.923  21.883  0.00  0.00    +0.000 HD
ENDBRANCH  28  34
ENDBRANCH  21  23
ENDBRANCH   2  21
TORSDOF 8
ENDMDL
MODEL 9
REMARK VINA RESULT:      -8.1      0.924      2.799
REMARK  Name = 
REMARK  11 active torsions:
REMARK  status: ('A' for Active; 'I' for Inactive)
REMARK    1  A    between atoms: C_1  and  C_2
REMARK    2  A    between atoms: C_5  and  C_6
REMARK    3  A    between atoms: C_6  and  N_7
REMARK    4  A    between atoms: C_6  and  C_27
REMARK    5  A    between atoms: N_7  and  C_8
REMARK    6  A    between atoms: C_9  and  N_10
REMARK    7  A    between atoms: N_10  and  C_11
REMARK    8  A    between atoms: C_15  and  C_16
REMARK    9  A    between atoms: N_18  and  C_19
REMARK   10  A    between atoms: N_18  and  C_20
REMARK   11  A    between atoms: C_21  and  O_22
REMARK                            x       y       z     vdW  Elec       q    Type
REMARK                         _______ _______ _______ _____ _____    ______ ____
ROOT
ATOM      1  C   UNL     1       4.230   3.680  18.776  0.00  0.00    +0.000 C 
ATOM      2  C   UNL     1       3.370   4.655  19.231  0.00  0.00    +0.000 C 
ATOM      3  C   UNL     1       2.185   3.851  18.841  0.00  0.00    +0.000 C 
ATOM      4  O   UNL     1       0.983   3.905  18.926  0.00  0.00    +0.000 OA
ATOM      5  C   UNL     1       3.116   2.902  18.179  0.00  0.00    +0.000 C 
ATOM      6  O   UNL     1       2.943   1.924  17.495  0.00  0.00    +0.000 OA
ENDROOT
BRANCH   1   7
ATOM      7  N   UNL     1       5.534   3.403  18.754  0.00  0.00    +0.000 N 
ATOM      8  H   UNL     1       5.971   3.332  19.682  0.00  0.00    +0.000 HD
BRANCH   7   9
ATOM      9  C   UNL     1       6.412   4.380  18.028  0.00  0.00    +0.000 C 
BRANCH   9  14
ATOM     10  C   UNL     1       7.726   5.048  13.400  0.00  0.00    +0.000 C 
ATOM     11  C   UNL     1       6.752   4.683  14.452  0.00  0.00    +0.000 A 
ATOM     12  C   UNL     1       5.414   4.363  14.428  0.00  0.00    +0.000 A 
ATOM     13  C   UNL     1       5.020   4.175  15.777  0.00  0.00    +0.000 A 
ATOM     14  C   UNL     1       6.147   4.385  16.544  0.00  0.00    +0.000 A 
ATOM     15  O   UNL     1       7.210   4.674  15.735  0.00  0.00    +0.000 OA
ENDBRANCH   9  14
BRANCH   9  16
ATOM     16  C   UNL     1       6.337   5.824  18.606  0.00  0.00    +0.000 C 
ATOM     17  C   UNL     1       7.574   6.346  19.329  0.00  0.00    +0.000 C 
ATOM     18  C   UNL     1       8.250   7.189  18.280  0.00  0.00    +0.000 C 
ATOM     19  C   UNL     1       7.063   7.783  17.558  0.00  0.00    +0.000 C 
ATOM     20  O   UNL     1       6.033   6.786  17.568  0.00  0.00    +0.000 OA
ENDBRANCH   9  16
ENDBRANCH   7   9
ENDBRANCH   1   7
BRANCH   2  21
ATOM     21  N   UNL     1       3.365   5.835  19.825  0.00  0.00    +0.000 N 
ATOM     22  H   UNL     1       3.319   5.885  20.847  0.00  0.00    +0.000 HD
BRANCH  21  23
ATOM     23  C   UNL     1       2.754   7.030  19.332  0.00  0.00    +0.000 A 
ATOM     24  C   UNL     1       2.929   7.474  18.016  0.00  0.00    +0.000 A 
ATOM     25  C   UNL     1       2.267   8.603  17.547  0.00  0.00    +0.000 A 
ATOM     26  C   UNL     1       1.375   9.278  18.375  0.00  0.00    +0.000 A 
ATOM     27  C   UNL     1       1.180   8.878  19.710  0.00  0.00    +0.000 A 
ATOM     28  C   UNL     1       1.951   7.813  20.196  0.00  0.00    +0.000 A 
BRANCH  27  29
ATOM     29  C   UNL     1       0.194   9.699  20.476  0.00  0.00    +0.000 C 
ATOM     30  O   UNL     1      -0.701   9.066  21.044  0.00  0.00    +0.000 OA
ATOM     31  N   UNL     1       0.284  11.089  20.604  0.00  0.00    +0.000 N 
ATOM     32  C   UNL     1       1.249  11.977  19.969  0.00  0.00    +0.000 C 
ATOM     33  C   UNL     1      -0.728  11.764  21.411  0.00  0.00    +0.000 C 
ENDBRANCH  27  29
BRANCH  28  34
ATOM     34  O   UNL     1       2.011   7.502  21.536  0.00  0.00    +0.000 OA
ATOM     35  H   UNL     1       1.896   8.341  22.017  0.00  0.00    +0.000 HD
ENDBRANCH  28  34
ENDBRANCH  21  23
ENDBRANCH   2  21
TORSDOF 8
ENDMDL
