MODEL 1
REMARK VINA RESULT:      -7.7      0.000      0.000
REMARK  Name = 
REMARK  1 active torsions:
REMARK  status: ('A' for Active; 'I' for Inactive)
REMARK    1  A    between atoms: N_10  and  N_11
REMARK                            x       y       z     vdW  Elec       q    Type
REMARK                         _______ _______ _______ _____ _____    ______ ____
ROOT
ATOM      1  N   UNL     1       5.897   5.259  17.713  0.00  0.00    +0.000 N 
ATOM      2  C   UNL     1       6.066   4.956  16.395  0.00  0.00    +0.000 A 
ATOM      3  N   UNL     1       7.073   5.449  15.706  0.00  0.00    +0.000 NA
ATOM      4  C   UNL     1       7.049   4.975  14.406  0.00  0.00    +0.000 A 
ATOM      5  C   UNL     1       8.008   5.253  13.411  0.00  0.00    +0.000 A 
ATOM      6  C   UNL     1       7.860   4.716  12.128  0.00  0.00    +0.000 A 
ATOM      7  C   UNL     1       6.761   3.922  11.823  0.00  0.00    +0.000 A 
ATOM      8  C   UNL     1       5.795   3.629  12.793  0.00  0.00    +0.000 A 
ATOM      9  C   UNL     1       5.967   4.154  14.086  0.00  0.00    +0.000 A 
ATOM     10  S   UNL     1       4.999   3.946  15.494  0.00  0.00    +0.000 S 
ATOM     11  H   UNL     1       6.654   5.847  18.052  0.00  0.00    +0.000 HD
ENDROOT
BRANCH   1  21
ATOM     12  C   UNL     1       1.571   2.665  21.555  0.00  0.00    +0.000 A 
ATOM     13  C   UNL     1       2.925   2.327  21.508  0.00  0.00    +0.000 A 
ATOM     14  N   UNL     1       3.819   2.891  20.665  0.00  0.00    +0.000 NA
ATOM     15  C   UNL     1       3.300   3.828  19.856  0.00  0.00    +0.000 A 
ATOM     16  C   UNL     1       1.985   4.252  19.832  0.00  0.00    +0.000 A 
ATOM     17  C   UNL     1       1.087   3.653  20.694  0.00  0.00    +0.000 A 
ATOM     18  C   UNL     1       1.741   5.328  18.830  0.00  0.00    +0.000 C 
ATOM     19  C   UNL     1       3.133   5.612  18.239  0.00  0.00    +0.000 C 
ATOM     20  C   UNL     1       4.059   4.594  18.874  0.00  0.00    +0.000 C 
ATOM     21  N   UNL     1       5.316   4.405  18.610  0.00  0.00    +0.000 NA
ENDBRANCH   1  21
TORSDOF 1
ENDMDL
MODEL 2
REMARK VINA RESULT:      -7.7      5.402      7.738
REMARK  Name = 
REMARK  1 active torsions:
REMARK  status: ('A' for Active; 'I' for Inactive)
REMARK    1  A    between atoms: N_10  and  N_11
REMARK                            x       y       z     vdW  Elec       q    Type
REMARK                         _______ _______ _______ _____ _____    ______ ____
ROOT
ATOM      1  N   UNL     1       1.638   7.404  21.190  0.00  0.00    +0.000 N 
ATOM      2  C   UNL     1       1.840   6.338  20.366  0.00  0.00    +0.000 A 
ATOM      3  N   UNL     1       1.417   5.135  20.691  0.00  0.00    +0.000 NA
ATOM      4  C   UNL     1       1.711   4.230  19.686  0.00  0.00    +0.000 A 
ATOM      5  C   UNL     1       1.353   2.867  19.676  0.00  0.00    +0.000 A 
ATOM      6  C   UNL     1       1.722   2.055  18.599  0.00  0.00    +0.000 A 
ATOM      7  C   UNL     1       2.458   2.582  17.543  0.00  0.00    +0.000 A 
ATOM      8  C   UNL     1       2.824   3.933  17.527  0.00  0.00    +0.000 A 
ATOM      9  C   UNL     1       2.426   4.745  18.605  0.00  0.00    +0.000 A 
ATOM     10  S   UNL     1       2.673   6.429  18.860  0.00  0.00    +0.000 S 
ATOM     11  H   UNL     1       1.102   7.134  22.011  0.00  0.00    +0.000 HD
ENDROOT
BRANCH   1  21
ATOM     12  C   UNL     1      -0.557  13.328  20.640  0.00  0.00    +0.000 A 
ATOM     13  C   UNL     1       0.287  12.685  19.732  0.00  0.00    +0.000 A 
ATOM     14  N   UNL     1       0.750  11.424  19.888  0.00  0.00    +0.000 NA
ATOM     15  C   UNL     1       0.324  10.814  21.004  0.00  0.00    +0.000 A 
ATOM     16  C   UNL     1      -0.525  11.347  21.956  0.00  0.00    +0.000 A 
ATOM     17  C   UNL     1      -0.975  12.642  21.782  0.00  0.00    +0.000 A 
ATOM     18  C   UNL     1      -0.823  10.397  23.065  0.00  0.00    +0.000 C 
ATOM     19  C   UNL     1      -0.093   9.104  22.657  0.00  0.00    +0.000 C 
ATOM     20  C   UNL     1       0.663   9.449  21.390  0.00  0.00    +0.000 C 
ATOM     21  N   UNL     1       1.484   8.685  20.735  0.00  0.00    +0.000 NA
ENDBRANCH   1  21
TORSDOF 1
ENDMDL
MODEL 3
REMARK VINA RESULT:      -7.6      4.300      8.390
REMARK  Name = 
REMARK  1 active torsions:
REMARK  status: ('A' for Active; 'I' for Inactive)
REMARK    1  A    between atoms: N_10  and  N_11
REMARK                            x       y       z     vdW  Elec       q    Type
REMARK                         _______ _______ _______ _____ _____    ______ ____
ROOT
ATOM      1  N   UNL     1       2.369   6.611  20.071  0.00  0.00    +0.000 N 
ATOM      2  C   UNL     1       1.657   7.723  20.409  0.00  0.00    +0.000 A 
ATOM      3  N   UNL     1       1.069   7.826  21.582  0.00  0.00    +0.000 NA
ATOM      4  C   UNL     1       0.439   9.052  21.702  0.00  0.00    +0.000 A 
ATOM      5  C   UNL     1      -0.239   9.520  22.846  0.00  0.00    +0.000 A 
ATOM      6  C   UNL     1      -0.845  10.780  22.832  0.00  0.00    +0.000 A 
ATOM      7  C   UNL     1      -0.797  11.569  21.689  0.00  0.00    +0.000 A 
ATOM      8  C   UNL     1      -0.129  11.129  20.540  0.00  0.00    +0.000 A 
ATOM      9  C   UNL     1       0.498   9.870  20.573  0.00  0.00    +0.000 A 
ATOM     10  S   UNL     1       1.426   9.073  19.363  0.00  0.00    +0.000 S 
ATOM     11  H   UNL     1       2.402   5.950  20.843  0.00  0.00    +0.000 HD
ENDROOT
BRANCH   1  21
ATOM     12  C   UNL     1       6.590   4.750  15.721  0.00  0.00    +0.000 A 
ATOM     13  C   UNL     1       6.695   5.890  16.522  0.00  0.00    +0.000 A 
ATOM     14  N   UNL     1       5.768   6.266  17.431  0.00  0.00    +0.000 NA
ATOM     15  C   UNL     1       4.712   5.442  17.516  0.00  0.00    +0.000 A 
ATOM     16  C   UNL     1       4.517   4.282  16.789  0.00  0.00    +0.000 A 
ATOM     17  C   UNL     1       5.473   3.924  15.857  0.00  0.00    +0.000 A 
ATOM     18  C   UNL     1       3.250   3.583  17.142  0.00  0.00    +0.000 C 
ATOM     19  C   UNL     1       2.662   4.427  18.287  0.00  0.00    +0.000 C 
ATOM     20  C   UNL     1       3.590   5.616  18.431  0.00  0.00    +0.000 C 
ATOM     21  N   UNL     1       3.440   6.636  19.221  0.00  0.00    +0.000 NA
ENDBRANCH   1  21
TORSDOF 1
ENDMDL
MODEL 4
REMARK VINA RESULT:      -7.4      4.962      8.847
REMARK  Name = 
REMARK  1 active torsions:
REMARK  status: ('A' for Active; 'I' for Inactive)
REMARK    1  A    between atoms: N_10  and  N_11
REMARK                            x       y       z     vdW  Elec       q    Type
REMARK                         _______ _______ _______ _____ _____    ______ ____
ROOT
ATOM      1  N   UNL     1       1.699   7.293  20.527  0.00  0.00    +0.000 N 
ATOM      2  C   UNL     1       0.967   8.414  20.785  0.00  0.00    +0.000 A 
ATOM      3  N   UNL     1       0.510   8.667  21.992  0.00  0.00    +0.000 NA
ATOM      4  C   UNL     1      -0.172   9.870  22.010  0.00  0.00    +0.000 A 
ATOM      5  C   UNL     1      -0.743  10.476  23.148  0.00  0.00    +0.000 A 
ATOM      6  C   UNL     1      -1.419  11.694  23.026  0.00  0.00    +0.000 A 
ATOM      7  C   UNL     1      -1.546  12.305  21.784  0.00  0.00    +0.000 A 
ATOM      8  C   UNL     1      -0.987  11.726  20.638  0.00  0.00    +0.000 A 
ATOM      9  C   UNL     1      -0.289  10.512  20.777  0.00  0.00    +0.000 A 
ATOM     10  S   UNL     1       0.541   9.581  19.591  0.00  0.00    +0.000 S 
ATOM     11  H   UNL     1       1.857   6.757  21.377  0.00  0.00    +0.000 HD
ENDROOT
BRANCH   1  21
ATOM     12  C   UNL     1       5.531   4.967  16.043  0.00  0.00    +0.000 A 
ATOM     13  C   UNL     1       5.643   6.226  16.636  0.00  0.00    +0.000 A 
ATOM     14  N   UNL     1       4.798   6.698  17.580  0.00  0.00    +0.000 NA
ATOM     15  C   UNL     1       3.820   5.845  17.921  0.00  0.00    +0.000 A 
ATOM     16  C   UNL     1       3.629   4.573  17.415  0.00  0.00    +0.000 A 
ATOM     17  C   UNL     1       4.498   4.117  16.441  0.00  0.00    +0.000 A 
ATOM     18  C   UNL     1       2.462   3.875  18.025  0.00  0.00    +0.000 C 
ATOM     19  C   UNL     1       1.947   4.864  19.086  0.00  0.00    +0.000 C 
ATOM     20  C   UNL     1       2.798   6.107  18.928  0.00  0.00    +0.000 C 
ATOM     21  N   UNL     1       2.665   7.235  19.560  0.00  0.00    +0.000 NA
ENDBRANCH   1  21
TORSDOF 1
ENDMDL
MODEL 5
REMARK VINA RESULT:      -7.3      5.912      7.795
REMARK  Name = 
REMARK  1 active torsions:
REMARK  status: ('A' for Active; 'I' for Inactive)
REMARK    1  A    between atoms: N_10  and  N_11
REMARK                            x       y       z     vdW  Elec       q    Type
REMARK                         _______ _______ _______ _____ _____    ______ ____
ROOT
ATOM      1  N   UNL     1       8.404   8.212  18.778  0.00  0.00    +0.000 N 
ATOM      2  C   UNL     1       8.826   9.508  18.809  0.00  0.00    +0.000 A 
ATOM      3  N   UNL     1       9.660   9.931  19.734  0.00  0.00    +0.000 NA
ATOM      4  C   UNL     1       9.964  11.267  19.538  0.00  0.00    +0.000 A 
ATOM      5  C   UNL     1      10.868  12.026  20.308  0.00  0.00    +0.000 A 
ATOM      6  C   UNL     1      11.076  13.377  20.010  0.00  0.00    +0.000 A 
ATOM      7  C   UNL     1      10.382  13.980  18.968  0.00  0.00    +0.000 A 
ATOM      8  C   UNL     1       9.480  13.248  18.187  0.00  0.00    +0.000 A 
ATOM      9  C   UNL     1       9.297  11.885  18.480  0.00  0.00    +0.000 A 
ATOM     10  S   UNL     1       8.310  10.715  17.693  0.00  0.00    +0.000 S 
ATOM     11  H   UNL     1       8.851   7.665  19.509  0.00  0.00    +0.000 HD
ENDROOT
BRANCH   1  21
ATOM     12  C   UNL     1       6.059   3.804  14.869  0.00  0.00    +0.000 A 
ATOM     13  C   UNL     1       6.896   4.859  14.498  0.00  0.00    +0.000 A 
ATOM     14  N   UNL     1       7.367   5.791  15.356  0.00  0.00    +0.000 NA
ATOM     15  C   UNL     1       6.966   5.626  16.626  0.00  0.00    +0.000 A 
ATOM     16  C   UNL     1       6.158   4.612  17.104  0.00  0.00    +0.000 A 
ATOM     17  C   UNL     1       5.678   3.677  16.206  0.00  0.00    +0.000 A 
ATOM     18  C   UNL     1       5.922   4.702  18.572  0.00  0.00    +0.000 C 
ATOM     19  C   UNL     1       6.773   5.905  19.016  0.00  0.00    +0.000 C 
ATOM     20  C   UNL     1       7.352   6.483  17.741  0.00  0.00    +0.000 C 
ATOM     21  N   UNL     1       8.069   7.560  17.623  0.00  0.00    +0.000 NA
ENDBRANCH   1  21
TORSDOF 1
ENDMDL
MODEL 6
REMARK VINA RESULT:      -7.2      5.676      8.910
REMARK  Name = 
REMARK  1 active torsions:
REMARK  status: ('A' for Active; 'I' for Inactive)
REMARK    1  A    between atoms: N_10  and  N_11
REMARK                            x       y       z     vdW  Elec       q    Type
REMARK                         _______ _______ _______ _____ _____    ______ ____
ROOT
ATOM      1  N   UNL     1       1.912   8.306  20.835  0.00  0.00    +0.000 N 
ATOM      2  C   UNL     1       1.050   9.248  21.311  0.00  0.00    +0.000 A 
ATOM      3  N   UNL     1       1.050  10.474  20.833  0.00  0.00    +0.000 NA
ATOM      4  C   UNL     1       0.070  11.233  21.449  0.00  0.00    +0.000 A 
ATOM      5  C   UNL     1      -0.248  12.572  21.142  0.00  0.00    +0.000 A 
ATOM      6  C   UNL     1      -1.258  13.230  21.851  0.00  0.00    +0.000 A 
ATOM      7  C   UNL     1      -1.941  12.576  22.870  0.00  0.00    +0.000 A 
ATOM      8  C   UNL     1      -1.647  11.246  23.193  0.00  0.00    +0.000 A 
ATOM      9  C   UNL     1      -0.645  10.587  22.457  0.00  0.00    +0.000 A 
ATOM     10  S   UNL     1      -0.086   8.963  22.574  0.00  0.00    +0.000 S 
ATOM     11  H   UNL     1       2.475   8.677  20.074  0.00  0.00    +0.000 HD
ENDROOT
BRANCH   1  21
ATOM     12  C   UNL     1       1.475   2.331  18.758  0.00  0.00    +0.000 A 
ATOM     13  C   UNL     1       0.843   2.847  19.892  0.00  0.00    +0.000 A 
ATOM     14  N   UNL     1       0.970   4.125  20.315  0.00  0.00    +0.000 NA
ATOM     15  C   UNL     1       1.764   4.885  19.546  0.00  0.00    +0.000 A 
ATOM     16  C   UNL     1       2.420   4.484  18.398  0.00  0.00    +0.000 A 
ATOM     17  C   UNL     1       2.285   3.170  17.991  0.00  0.00    +0.000 A 
ATOM     18  C   UNL     1       3.203   5.581  17.763  0.00  0.00    +0.000 C 
ATOM     19  C   UNL     1       2.900   6.812  18.637  0.00  0.00    +0.000 C 
ATOM     20  C   UNL     1       2.045   6.297  19.777  0.00  0.00    +0.000 C 
ATOM     21  N   UNL     1       1.621   6.970  20.805  0.00  0.00    +0.000 NA
ENDBRANCH   1  21
TORSDOF 1
ENDMDL
MODEL 7
REMARK VINA RESULT:      -7.2      5.306      8.648
REMARK  Name = 
REMARK  1 active torsions:
REMARK  status: ('A' for Active; 'I' for Inactive)
REMARK    1  A    between atoms: N_10  and  N_11
REMARK                            x       y       z     vdW  Elec       q    Type
REMARK                         _______ _______ _______ _____ _____    ______ ____
ROOT
ATOM      1  N   UNL     1       1.860   8.351  19.685  0.00  0.00    +0.000 N 
ATOM      2  C   UNL     1       1.015   9.157  20.387  0.00  0.00    +0.000 A 
ATOM      3  N   UNL     1       0.349  10.126  19.796  0.00  0.00    +0.000 NA
ATOM      4  C   UNL     1      -0.463  10.781  20.705  0.00  0.00    +0.000 A 
ATOM      5  C   UNL     1      -1.354  11.831  20.405  0.00  0.00    +0.000 A 
ATOM      6  C   UNL     1      -2.112  12.416  21.424  0.00  0.00    +0.000 A 
ATOM      7  C   UNL     1      -1.980  11.979  22.737  0.00  0.00    +0.000 A 
ATOM      8  C   UNL     1      -1.103  10.937  23.062  0.00  0.00    +0.000 A 
ATOM      9  C   UNL     1      -0.363  10.339  22.025  0.00  0.00    +0.000 A 
ATOM     10  S   UNL     1       0.748   9.026  22.084  0.00  0.00    +0.000 S 
ATOM     11  H   UNL     1       1.847   8.582  18.695  0.00  0.00    +0.000 HD
ENDROOT
BRANCH   1  21
ATOM     12  C   UNL     1       3.765   2.320  19.231  0.00  0.00    +0.000 A 
ATOM     13  C   UNL     1       2.976   2.849  20.254  0.00  0.00    +0.000 A 
ATOM     14  N   UNL     1       2.599   4.145  20.328  0.00  0.00    +0.000 NA
ATOM     15  C   UNL     1       3.046   4.909  19.319  0.00  0.00    +0.000 A 
ATOM     16  C   UNL     1       3.813   4.486  18.250  0.00  0.00    +0.000 A 
ATOM     17  C   UNL     1       4.197   3.159  18.202  0.00  0.00    +0.000 A 
ATOM     18  C   UNL     1       4.120   5.581  17.287  0.00  0.00    +0.000 C 
ATOM     19  C   UNL     1       3.361   6.797  17.848  0.00  0.00    +0.000 C 
ATOM     20  C   UNL     1       2.761   6.330  19.159  0.00  0.00    +0.000 C 
ATOM     21  N   UNL     1       2.104   7.047  20.020  0.00  0.00    +0.000 NA
ENDBRANCH   1  21
TORSDOF 1
ENDMDL
MODEL 8
REMARK VINA RESULT:      -7.2      5.291      8.727
REMARK  Name = 
REMARK  1 active torsions:
REMARK  status: ('A' for Active; 'I' for Inactive)
REMARK    1  A    between atoms: N_10  and  N_11
REMARK                            x       y       z     vdW  Elec       q    Type
REMARK                         _______ _______ _______ _____ _____    ______ ____
ROOT
ATOM      1  N   UNL     1       1.801   8.572  19.086  0.00  0.00    +0.000 N 
ATOM      2  C   UNL     1       1.033   9.246  19.987  0.00  0.00    +0.000 A 
ATOM      3  N   UNL     1       0.436  10.373  19.665  0.00  0.00    +0.000 NA
ATOM      4  C   UNL     1      -0.308  10.849  20.731  0.00  0.00    +0.000 A 
ATOM      5  C   UNL     1      -1.119  12.002  20.719  0.00  0.00    +0.000 A 
ATOM      6  C   UNL     1      -1.813  12.380  21.873  0.00  0.00    +0.000 A 
ATOM      7  C   UNL     1      -1.693  11.635  23.039  0.00  0.00    +0.000 A 
ATOM      8  C   UNL     1      -0.896  10.484  23.078  0.00  0.00    +0.000 A 
ATOM      9  C   UNL     1      -0.222  10.100  21.905  0.00  0.00    +0.000 A 
ATOM     10  S   UNL     1       0.784   8.734  21.613  0.00  0.00    +0.000 S 
ATOM     11  H   UNL     1       1.791   9.033  18.179  0.00  0.00    +0.000 HD
ENDROOT
BRANCH   1  21
ATOM     12  C   UNL     1       3.837   2.771  17.531  0.00  0.00    +0.000 A 
ATOM     13  C   UNL     1       2.763   3.058  18.377  0.00  0.00    +0.000 A 
ATOM     14  N   UNL     1       2.364   4.308  18.700  0.00  0.00    +0.000 NA
ATOM     15  C   UNL     1       3.090   5.283  18.130  0.00  0.00    +0.000 A 
ATOM     16  C   UNL     1       4.155   5.114  17.266  0.00  0.00    +0.000 A 
ATOM     17  C   UNL     1       4.552   3.826  16.960  0.00  0.00    +0.000 A 
ATOM     18  C   UNL     1       4.727   6.405  16.791  0.00  0.00    +0.000 C 
ATOM     19  C   UNL     1       3.816   7.473  17.421  0.00  0.00    +0.000 C 
ATOM     20  C   UNL     1       2.848   6.711  18.303  0.00  0.00    +0.000 C 
ATOM     21  N   UNL     1       1.948   7.212  19.095  0.00  0.00    +0.000 NA
ENDBRANCH   1  21
TORSDOF 1
ENDMDL
MODEL 9
REMARK VINA RESULT:      -7.2      4.709      5.688
REMARK  Name = 
REMARK  1 active torsions:
REMARK  status: ('A' for Active; 'I' for Inactive)
REMARK    1  A    between atoms: N_10  and  N_11
REMARK                            x       y       z     vdW  Elec       q    Type
REMARK                         _______ _______ _______ _____ _____    ______ ____
ROOT
ATOM      1  N   UNL     1       2.414   8.357  18.249  0.00  0.00    +0.000 N 
ATOM      2  C   UNL     1       3.095   7.258  17.817  0.00  0.00    +0.000 A 
ATOM      3  N   UNL     1       4.115   7.369  16.994  0.00  0.00    +0.000 NA
ATOM      4  C   UNL     1       4.659   6.125  16.727  0.00  0.00    +0.000 A 
ATOM      5  C   UNL     1       5.796   5.877  15.931  0.00  0.00    +0.000 A 
ATOM      6  C   UNL     1       6.236   4.565  15.730  0.00  0.00    +0.000 A 
ATOM      7  C   UNL     1       5.549   3.499  16.299  0.00  0.00    +0.000 A 
ATOM      8  C   UNL     1       4.418   3.717  17.096  0.00  0.00    +0.000 A 
ATOM      9  C   UNL     1       3.998   5.043  17.310  0.00  0.00    +0.000 A 
ATOM     10  S   UNL     1       2.694   5.642  18.261  0.00  0.00    +0.000 S 
ATOM     11  H   UNL     1       2.833   9.211  17.889  0.00  0.00    +0.000 HD
ENDROOT
BRANCH   1  21
ATOM     12  C   UNL     1      -0.978  10.606  23.112  0.00  0.00    +0.000 A 
ATOM     13  C   UNL     1      -0.179   9.461  23.137  0.00  0.00    +0.000 A 
ATOM     14  N   UNL     1       0.521   9.000  22.076  0.00  0.00    +0.000 NA
ATOM     15  C   UNL     1       0.394   9.744  20.966  0.00  0.00    +0.000 A 
ATOM     16  C   UNL     1      -0.351  10.900  20.836  0.00  0.00    +0.000 A 
ATOM     17  C   UNL     1      -1.068  11.345  21.931  0.00  0.00    +0.000 A 
ATOM     18  C   UNL     1      -0.260  11.499  19.475  0.00  0.00    +0.000 C 
ATOM     19  C   UNL     1       0.738  10.592  18.732  0.00  0.00    +0.000 C 
ATOM     20  C   UNL     1       1.062   9.471  19.699  0.00  0.00    +0.000 C 
ATOM     21  N   UNL     1       1.800   8.427  19.470  0.00  0.00    +0.000 NA
ENDBRANCH   1  21
TORSDOF 1
ENDMDL
