MODEL 1
REMARK VINA RESULT:      -6.1      0.000      0.000
REMARK  Name = 
REMARK  20 active torsions:
REMARK  status: ('A' for Active; 'I' for Inactive)
REMARK    1  A    between atoms: C_1  and  C_2
REMARK    2  A    between atoms: C_2  and  C_3
REMARK    3  A    between atoms: C_3  and  C_4
REMARK    4  A    between atoms: C_4  and  C_5
REMARK    5  A    between atoms: C_5  and  C_6
REMARK    6  A    between atoms: C_6  and  O_7
REMARK    7  A    between atoms: C_6  and  C_8
REMARK    8  A    between atoms: C_8  and  C_9
REMARK    9  A    between atoms: C_9  and  C_10
REMARK   10  A    between atoms: C_10  and  C_11
REMARK   11  A    between atoms: C_11  and  C_12
REMARK   12  A    between atoms: C_11  and  C_21
REMARK   13  A    between atoms: C_12  and  C_13
REMARK   14  A    between atoms: C_13  and  C_14
REMARK   15  A    between atoms: C_14  and  C_15
REMARK   16  A    between atoms: C_15  and  C_16
REMARK   17  A    between atoms: C_16  and  C_17
REMARK   18  A    between atoms: C_17  and  C_18
REMARK   19  A    between atoms: C_18  and  O_20
REMARK   20  A    between atoms: C_21  and  C_22
REMARK                            x       y       z     vdW  Elec       q    Type
REMARK                         _______ _______ _______ _____ _____    ______ ____
ROOT
ATOM      1  C   UNL     1       6.409   5.548  17.178  0.00  0.00    +0.000 C 
ENDROOT
BRANCH   1   2
ATOM      2  C   UNL     1       7.538   5.062  18.088  0.00  0.00    +0.000 C 
ATOM      3  C   UNL     1       7.813   5.770  19.390  0.00  0.00    +0.000 C 
ATOM      4  O   UNL     1       8.267   4.128  17.731  0.00  0.00    +0.000 OA
ENDBRANCH   1   2
BRANCH   1   5
ATOM      5  C   UNL     1       5.623   6.685  17.861  0.00  0.00    +0.000 C 
BRANCH   5   6
ATOM      6  C   UNL     1       4.267   6.949  17.178  0.00  0.00    +0.000 C 
BRANCH   6   7
ATOM      7  C   UNL     1       3.068   6.951  18.128  0.00  0.00    +0.000 C 
BRANCH   7   8
ATOM      8  C   UNL     1       3.217   5.979  19.301  0.00  0.00    +0.000 C 
BRANCH   8   9
ATOM      9  C   UNL     1       2.143   4.890  19.320  0.00  0.00    +0.000 C 
BRANCH   9  10
ATOM     10  C   UNL     1       2.098   4.079  18.026  0.00  0.00    +0.000 C 
BRANCH  10  11
ATOM     11  C   UNL     1       1.606   2.672  18.263  0.00  0.00    +0.000 C 
ATOM     12  O   UNL     1       0.597   2.370  18.872  0.00  0.00    +0.000 OA
BRANCH  11  13
ATOM     13  O   UNL     1       2.425   1.745  17.709  0.00  0.00    +0.000 OA
ATOM     14  H   UNL     1       3.263   1.620  18.197  0.00  0.00    +0.000 HD
ENDBRANCH  11  13
ENDBRANCH  10  11
ENDBRANCH   9  10
ENDBRANCH   8   9
ENDBRANCH   7   8
ENDBRANCH   6   7
ENDBRANCH   5   6
ENDBRANCH   1   5
BRANCH   1  15
ATOM     15  C   UNL     1       5.546   4.353  16.712  0.00  0.00    +0.000 C 
BRANCH  15  16
ATOM     16  C   UNL     1       5.605   4.099  15.200  0.00  0.00    +0.000 C 
BRANCH  16  17
ATOM     17  C   UNL     1       7.002   4.351  14.604  0.00  0.00    +0.000 C 
BRANCH  17  18
ATOM     18  C   UNL     1       6.913   4.812  13.137  0.00  0.00    +0.000 C 
BRANCH  18  19
ATOM     19  O   UNL     1       8.100   5.529  12.795  0.00  0.00    +0.000 OA
ATOM     20  H   UNL     1       8.726   4.900  12.397  0.00  0.00    +0.000 HD
ENDBRANCH  18  19
BRANCH  18  21
ATOM     21  C   UNL     1       6.729   3.674  12.118  0.00  0.00    +0.000 C 
BRANCH  21  22
ATOM     22  C   UNL     1       5.261   3.310  11.906  0.00  0.00    +0.000 C 
BRANCH  22  23
ATOM     23  C   UNL     1       5.058   1.970  11.199  0.00  0.00    +0.000 C 
BRANCH  23  25
ATOM     24  C   UNL     1       6.268  -0.258  11.341  0.00  0.00    +0.000 C 
ATOM     25  C   UNL     1       6.399   1.236  11.108  0.00  0.00    +0.000 C 
ENDBRANCH  23  25
ENDBRANCH  22  23
ENDBRANCH  21  22
ENDBRANCH  18  21
ENDBRANCH  17  18
ENDBRANCH  16  17
ENDBRANCH  15  16
ENDBRANCH   1  15
TORSDOF 18
ENDMDL
MODEL 2
REMARK VINA RESULT:      -5.9      3.871      8.005
REMARK  Name = 
REMARK  20 active torsions:
REMARK  status: ('A' for Active; 'I' for Inactive)
REMARK    1  A    between atoms: C_1  and  C_2
REMARK    2  A    between atoms: C_2  and  C_3
REMARK    3  A    between atoms: C_3  and  C_4
REMARK    4  A    between atoms: C_4  and  C_5
REMARK    5  A    between atoms: C_5  and  C_6
REMARK    6  A    between atoms: C_6  and  O_7
REMARK    7  A    between atoms: C_6  and  C_8
REMARK    8  A    between atoms: C_8  and  C_9
REMARK    9  A    between atoms: C_9  and  C_10
REMARK   10  A    between atoms: C_10  and  C_11
REMARK   11  A    between atoms: C_11  and  C_12
REMARK   12  A    between atoms: C_11  and  C_21
REMARK   13  A    between atoms: C_12  and  C_13
REMARK   14  A    between atoms: C_13  and  C_14
REMARK   15  A    between atoms: C_14  and  C_15
REMARK   16  A    between atoms: C_15  and  C_16
REMARK   17  A    between atoms: C_16  and  C_17
REMARK   18  A    between atoms: C_17  and  C_18
REMARK   19  A    between atoms: C_18  and  O_20
REMARK   20  A    between atoms: C_21  and  C_22
REMARK                            x       y       z     vdW  Elec       q    Type
REMARK                         _______ _______ _______ _____ _____    ______ ____
ROOT
ATOM      1  C   UNL     1       6.227   6.106  17.556  0.00  0.00    +0.000 C 
ENDROOT
BRANCH   1   2
ATOM      2  C   UNL     1       6.588   5.480  16.206  0.00  0.00    +0.000 C 
ATOM      3  C   UNL     1       5.607   5.536  15.064  0.00  0.00    +0.000 C 
ATOM      4  O   UNL     1       7.658   4.874  16.069  0.00  0.00    +0.000 OA
ENDBRANCH   1   2
BRANCH   1   5
ATOM      5  C   UNL     1       7.420   6.006  18.527  0.00  0.00    +0.000 C 
BRANCH   5   6
ATOM      6  C   UNL     1       8.325   7.251  18.469  0.00  0.00    +0.000 C 
BRANCH   6   7
ATOM      7  C   UNL     1       7.686   8.470  17.802  0.00  0.00    +0.000 C 
BRANCH   7   8
ATOM      8  C   UNL     1       8.614   9.685  17.733  0.00  0.00    +0.000 C 
BRANCH   8   9
ATOM      9  C   UNL     1       8.972  10.248  19.109  0.00  0.00    +0.000 C 
BRANCH   9  10
ATOM     10  C   UNL     1       9.668  11.607  19.031  0.00  0.00    +0.000 C 
BRANCH  10  11
ATOM     11  C   UNL     1       9.885  12.204  20.401  0.00  0.00    +0.000 C 
ATOM     12  O   UNL     1       9.183  13.050  20.922  0.00  0.00    +0.000 OA
BRANCH  11  13
ATOM     13  O   UNL     1      10.975  11.684  21.017  0.00  0.00    +0.000 OA
ATOM     14  H   UNL     1      10.844  11.521  21.973  0.00  0.00    +0.000 HD
ENDBRANCH  11  13
ENDBRANCH  10  11
ENDBRANCH   9  10
ENDBRANCH   8   9
ENDBRANCH   7   8
ENDBRANCH   6   7
ENDBRANCH   5   6
ENDBRANCH   1   5
BRANCH   1  15
ATOM     15  C   UNL     1       4.905   5.507  18.087  0.00  0.00    +0.000 C 
BRANCH  15  16
ATOM     16  C   UNL     1       4.952   3.986  18.288  0.00  0.00    +0.000 C 
BRANCH  16  17
ATOM     17  C   UNL     1       3.997   3.229  17.347  0.00  0.00    +0.000 C 
BRANCH  17  18
ATOM     18  C   UNL     1       3.455   1.948  18.009  0.00  0.00    +0.000 C 
BRANCH  18  19
ATOM     19  O   UNL     1       4.190   1.688  19.205  0.00  0.00    +0.000 OA
ATOM     20  H   UNL     1       4.849   0.999  19.009  0.00  0.00    +0.000 HD
ENDBRANCH  18  19
BRANCH  18  21
ATOM     21  C   UNL     1       1.958   1.994  18.365  0.00  0.00    +0.000 C 
BRANCH  21  22
ATOM     22  C   UNL     1       1.383   3.406  18.290  0.00  0.00    +0.000 C 
BRANCH  22  23
ATOM     23  C   UNL     1       1.454   4.167  19.615  0.00  0.00    +0.000 C 
BRANCH  23  25
ATOM     24  C   UNL     1       2.099   3.146  21.848  0.00  0.00    +0.000 C 
ATOM     25  C   UNL     1       1.047   3.234  20.758  0.00  0.00    +0.000 C 
ENDBRANCH  23  25
ENDBRANCH  22  23
ENDBRANCH  21  22
ENDBRANCH  18  21
ENDBRANCH  17  18
ENDBRANCH  16  17
ENDBRANCH  15  16
ENDBRANCH   1  15
TORSDOF 18
ENDMDL
MODEL 3
REMARK VINA RESULT:      -5.9      2.240      3.932
REMARK  Name = 
REMARK  20 active torsions:
REMARK  status: ('A' for Active; 'I' for Inactive)
REMARK    1  A    between atoms: C_1  and  C_2
REMARK    2  A    between atoms: C_2  and  C_3
REMARK    3  A    between atoms: C_3  and  C_4
REMARK    4  A    between atoms: C_4  and  C_5
REMARK    5  A    between atoms: C_5  and  C_6
REMARK    6  A    between atoms: C_6  and  O_7
REMARK    7  A    between atoms: C_6  and  C_8
REMARK    8  A    between atoms: C_8  and  C_9
REMARK    9  A    between atoms: C_9  and  C_10
REMARK   10  A    between atoms: C_10  and  C_11
REMARK   11  A    between atoms: C_11  and  C_12
REMARK   12  A    between atoms: C_11  and  C_21
REMARK   13  A    between atoms: C_12  and  C_13
REMARK   14  A    between atoms: C_13  and  C_14
REMARK   15  A    between atoms: C_14  and  C_15
REMARK   16  A    between atoms: C_15  and  C_16
REMARK   17  A    between atoms: C_16  and  C_17
REMARK   18  A    between atoms: C_17  and  C_18
REMARK   19  A    between atoms: C_18  and  O_20
REMARK   20  A    between atoms: C_21  and  C_22
REMARK                            x       y       z     vdW  Elec       q    Type
REMARK                         _______ _______ _______ _____ _____    ______ ____
ROOT
ATOM      1  C   UNL     1       2.851   6.853  17.878  0.00  0.00    +0.000 C 
ENDROOT
BRANCH   1   2
ATOM      2  C   UNL     1       2.343   8.274  18.132  0.00  0.00    +0.000 C 
ATOM      3  C   UNL     1       1.730   8.628  19.462  0.00  0.00    +0.000 C 
ATOM      4  O   UNL     1       2.377   9.118  17.227  0.00  0.00    +0.000 OA
ENDBRANCH   1   2
BRANCH   1   5
ATOM      5  C   UNL     1       2.754   6.014  19.167  0.00  0.00    +0.000 C 
BRANCH   5   6
ATOM      6  C   UNL     1       1.618   4.975  19.102  0.00  0.00    +0.000 C 
BRANCH   6   7
ATOM      7  C   UNL     1       1.145   4.466  20.465  0.00  0.00    +0.000 C 
BRANCH   7   8
ATOM      8  C   UNL     1       2.291   4.085  21.406  0.00  0.00    +0.000 C 
BRANCH   8   9
ATOM      9  C   UNL     1       2.760   2.640  21.228  0.00  0.00    +0.000 C 
BRANCH   9  10
ATOM     10  C   UNL     1       2.534   2.113  19.812  0.00  0.00    +0.000 C 
BRANCH  10  11
ATOM     11  C   UNL     1       3.838   1.843  19.100  0.00  0.00    +0.000 C 
ATOM     12  O   UNL     1       4.045   0.927  18.327  0.00  0.00    +0.000 OA
BRANCH  11  13
ATOM     13  O   UNL     1       4.790   2.756  19.415  0.00  0.00    +0.000 OA
ATOM     14  H   UNL     1       4.482   3.445  20.038  0.00  0.00    +0.000 HD
ENDBRANCH  11  13
ENDBRANCH  10  11
ENDBRANCH   9  10
ENDBRANCH   8   9
ENDBRANCH   7   8
ENDBRANCH   6   7
ENDBRANCH   5   6
ENDBRANCH   1   5
BRANCH   1  15
ATOM     15  C   UNL     1       4.256   6.895  17.235  0.00  0.00    +0.000 C 
BRANCH  15  16
ATOM     16  C   UNL     1       5.247   5.897  17.847  0.00  0.00    +0.000 C 
BRANCH  16  17
ATOM     17  C   UNL     1       6.589   5.847  17.092  0.00  0.00    +0.000 C 
BRANCH  17  18
ATOM     18  C   UNL     1       6.800   4.481  16.411  0.00  0.00    +0.000 C 
BRANCH  18  19
ATOM     19  O   UNL     1       5.645   3.668  16.619  0.00  0.00    +0.000 OA
ATOM     20  H   UNL     1       5.618   3.421  17.560  0.00  0.00    +0.000 HD
ENDBRANCH  18  19
BRANCH  18  21
ATOM     21  C   UNL     1       7.070   4.555  14.898  0.00  0.00    +0.000 C 
BRANCH  21  22
ATOM     22  C   UNL     1       5.914   3.997  14.069  0.00  0.00    +0.000 C 
BRANCH  22  23
ATOM     23  C   UNL     1       6.208   3.937  12.570  0.00  0.00    +0.000 C 
BRANCH  23  25
ATOM     24  C   UNL     1       4.225   3.085  11.233  0.00  0.00    +0.000 C 
ATOM     25  C   UNL     1       5.504   2.720  11.964  0.00  0.00    +0.000 C 
ENDBRANCH  23  25
ENDBRANCH  22  23
ENDBRANCH  21  22
ENDBRANCH  18  21
ENDBRANCH  17  18
ENDBRANCH  16  17
ENDBRANCH  15  16
ENDBRANCH   1  15
TORSDOF 18
ENDMDL
MODEL 4
REMARK VINA RESULT:      -5.8      2.292      3.059
REMARK  Name = 
REMARK  20 active torsions:
REMARK  status: ('A' for Active; 'I' for Inactive)
REMARK    1  A    between atoms: C_1  and  C_2
REMARK    2  A    between atoms: C_2  and  C_3
REMARK    3  A    between atoms: C_3  and  C_4
REMARK    4  A    between atoms: C_4  and  C_5
REMARK    5  A    between atoms: C_5  and  C_6
REMARK    6  A    between atoms: C_6  and  O_7
REMARK    7  A    between atoms: C_6  and  C_8
REMARK    8  A    between atoms: C_8  and  C_9
REMARK    9  A    between atoms: C_9  and  C_10
REMARK   10  A    between atoms: C_10  and  C_11
REMARK   11  A    between atoms: C_11  and  C_12
REMARK   12  A    between atoms: C_11  and  C_21
REMARK   13  A    between atoms: C_12  and  C_13
REMARK   14  A    between atoms: C_13  and  C_14
REMARK   15  A    between atoms: C_14  and  C_15
REMARK   16  A    between atoms: C_15  and  C_16
REMARK   17  A    between atoms: C_16  and  C_17
REMARK   18  A    between atoms: C_17  and  C_18
REMARK   19  A    between atoms: C_18  and  O_20
REMARK   20  A    between atoms: C_21  and  C_22
REMARK                            x       y       z     vdW  Elec       q    Type
REMARK                         _______ _______ _______ _____ _____    ______ ____
ROOT
ATOM      1  C   UNL     1       5.887   4.993  16.988  0.00  0.00    +0.000 C 
ENDROOT
BRANCH   1   2
ATOM      2  C   UNL     1       6.461   6.406  16.858  0.00  0.00    +0.000 C 
ATOM      3  C   UNL     1       5.593   7.601  17.157  0.00  0.00    +0.000 C 
ATOM      4  O   UNL     1       7.617   6.573  16.450  0.00  0.00    +0.000 OA
ENDBRANCH   1   2
BRANCH   1   5
ATOM      5  C   UNL     1       5.994   4.506  18.446  0.00  0.00    +0.000 C 
BRANCH   5   6
ATOM      6  C   UNL     1       4.622   4.459  19.147  0.00  0.00    +0.000 C 
BRANCH   6   7
ATOM      7  C   UNL     1       3.425   4.626  18.210  0.00  0.00    +0.000 C 
BRANCH   7   8
ATOM      8  C   UNL     1       2.363   5.593  18.742  0.00  0.00    +0.000 C 
BRANCH   8   9
ATOM      9  C   UNL     1       2.074   5.409  20.232  0.00  0.00    +0.000 C 
BRANCH   9  10
ATOM     10  C   UNL     1       1.034   4.323  20.505  0.00  0.00    +0.000 C 
BRANCH  10  11
ATOM     11  C   UNL     1       1.677   3.037  20.966  0.00  0.00    +0.000 C 
ATOM     12  O   UNL     1       1.859   2.052  20.275  0.00  0.00    +0.000 OA
BRANCH  11  13
ATOM     13  O   UNL     1       2.047   3.089  22.269  0.00  0.00    +0.000 OA
ATOM     14  H   UNL     1       3.016   3.113  22.400  0.00  0.00    +0.000 HD
ENDBRANCH  11  13
ENDBRANCH  10  11
ENDBRANCH   9  10
ENDBRANCH   8   9
ENDBRANCH   7   8
ENDBRANCH   6   7
ENDBRANCH   5   6
ENDBRANCH   1   5
BRANCH   1  15
ATOM     15  C   UNL     1       6.534   4.056  15.942  0.00  0.00    +0.000 C 
BRANCH  15  16
ATOM     16  C   UNL     1       5.841   4.084  14.574  0.00  0.00    +0.000 C 
BRANCH  16  17
ATOM     17  C   UNL     1       6.815   3.845  13.405  0.00  0.00    +0.000 C 
BRANCH  17  18
ATOM     18  C   UNL     1       6.061   3.502  12.106  0.00  0.00    +0.000 C 
BRANCH  18  19
ATOM     19  O   UNL     1       6.267   2.124  11.792  0.00  0.00    +0.000 OA
ATOM     20  H   UNL     1       6.998   2.069  11.152  0.00  0.00    +0.000 HD
ENDBRANCH  18  19
BRANCH  18  21
ATOM     21  C   UNL     1       4.545   3.761  12.157  0.00  0.00    +0.000 C 
BRANCH  21  22
ATOM     22  C   UNL     1       3.794   3.072  11.020  0.00  0.00    +0.000 C 
BRANCH  22  23
ATOM     23  C   UNL     1       3.742   3.895   9.733  0.00  0.00    +0.000 C 
BRANCH  23  25
ATOM     24  C   UNL     1       2.038   5.411   8.618  0.00  0.00    +0.000 C 
ATOM     25  C   UNL     1       2.282   4.084   9.311  0.00  0.00    +0.000 C 
ENDBRANCH  23  25
ENDBRANCH  22  23
ENDBRANCH  21  22
ENDBRANCH  18  21
ENDBRANCH  17  18
ENDBRANCH  16  17
ENDBRANCH  15  16
ENDBRANCH   1  15
TORSDOF 18
ENDMDL
MODEL 5
REMARK VINA RESULT:      -5.8      2.245      7.051
REMARK  Name = 
REMARK  20 active torsions:
REMARK  status: ('A' for Active; 'I' for Inactive)
REMARK    1  A    between atoms: C_1  and  C_2
REMARK    2  A    between atoms: C_2  and  C_3
REMARK    3  A    between atoms: C_3  and  C_4
REMARK    4  A    between atoms: C_4  and  C_5
REMARK    5  A    between atoms: C_5  and  C_6
REMARK    6  A    between atoms: C_6  and  O_7
REMARK    7  A    between atoms: C_6  and  C_8
REMARK    8  A    between atoms: C_8  and  C_9
REMARK    9  A    between atoms: C_9  and  C_10
REMARK   10  A    between atoms: C_10  and  C_11
REMARK   11  A    between atoms: C_11  and  C_12
REMARK   12  A    between atoms: C_11  and  C_21
REMARK   13  A    between atoms: C_12  and  C_13
REMARK   14  A    between atoms: C_13  and  C_14
REMARK   15  A    between atoms: C_14  and  C_15
REMARK   16  A    between atoms: C_15  and  C_16
REMARK   17  A    between atoms: C_16  and  C_17
REMARK   18  A    between atoms: C_17  and  C_18
REMARK   19  A    between atoms: C_18  and  O_20
REMARK   20  A    between atoms: C_21  and  C_22
REMARK                            x       y       z     vdW  Elec       q    Type
REMARK                         _______ _______ _______ _____ _____    ______ ____
ROOT
ATOM      1  C   UNL     1       6.129   5.177  17.649  0.00  0.00    +0.000 C 
ENDROOT
BRANCH   1   2
ATOM      2  C   UNL     1       7.257   5.804  18.472  0.00  0.00    +0.000 C 
ATOM      3  C   UNL     1       7.798   7.159  18.097  0.00  0.00    +0.000 C 
ATOM      4  O   UNL     1       7.768   5.175  19.407  0.00  0.00    +0.000 OA
ENDBRANCH   1   2
BRANCH   1   5
ATOM      5  C   UNL     1       6.633   4.818  16.238  0.00  0.00    +0.000 C 
BRANCH   5   6
ATOM      6  C   UNL     1       5.730   5.398  15.132  0.00  0.00    +0.000 C 
BRANCH   6   7
ATOM      7  C   UNL     1       5.320   4.393  14.055  0.00  0.00    +0.000 C 
BRANCH   7   8
ATOM      8  C   UNL     1       6.507   3.780  13.307  0.00  0.00    +0.000 C 
BRANCH   8   9
ATOM      9  C   UNL     1       6.211   3.503  11.832  0.00  0.00    +0.000 C 
BRANCH   9  10
ATOM     10  C   UNL     1       5.443   2.200  11.617  0.00  0.00    +0.000 C 
BRANCH  10  11
ATOM     11  C   UNL     1       6.359   1.070  11.214  0.00  0.00    +0.000 C 
ATOM     12  O   UNL     1       6.006  -0.061  10.936  0.00  0.00    +0.000 OA
BRANCH  11  13
ATOM     13  O   UNL     1       7.659   1.452  11.187  0.00  0.00    +0.000 OA
ATOM     14  H   UNL     1       8.111   1.246  10.344  0.00  0.00    +0.000 HD
ENDBRANCH  11  13
ENDBRANCH  10  11
ENDBRANCH   9  10
ENDBRANCH   8   9
ENDBRANCH   7   8
ENDBRANCH   6   7
ENDBRANCH   5   6
ENDBRANCH   1   5
BRANCH   1  15
ATOM     15  C   UNL     1       4.877   6.083  17.681  0.00  0.00    +0.000 C 
BRANCH  15  16
ATOM     16  C   UNL     1       3.585   5.343  18.052  0.00  0.00    +0.000 C 
BRANCH  16  17
ATOM     17  C   UNL     1       3.403   4.029  17.270  0.00  0.00    +0.000 C 
BRANCH  17  18
ATOM     18  C   UNL     1       2.996   2.872  18.203  0.00  0.00    +0.000 C 
BRANCH  18  19
ATOM     19  O   UNL     1       2.576   1.758  17.415  0.00  0.00    +0.000 OA
ATOM     20  H   UNL     1       2.097   2.102  16.641  0.00  0.00    +0.000 HD
ENDBRANCH  18  19
BRANCH  18  21
ATOM     21  C   UNL     1       4.107   2.396  19.155  0.00  0.00    +0.000 C 
BRANCH  21  22
ATOM     22  C   UNL     1       3.634   2.302  20.604  0.00  0.00    +0.000 C 
BRANCH  22  23
ATOM     23  C   UNL     1       2.114   2.352  20.757  0.00  0.00    +0.000 C 
BRANCH  23  25
ATOM     24  C   UNL     1       1.990   4.866  21.090  0.00  0.00    +0.000 C 
ATOM     25  C   UNL     1       1.736   3.499  21.699  0.00  0.00    +0.000 C 
ENDBRANCH  23  25
ENDBRANCH  22  23
ENDBRANCH  21  22
ENDBRANCH  18  21
ENDBRANCH  17  18
ENDBRANCH  16  17
ENDBRANCH  15  16
ENDBRANCH   1  15
TORSDOF 18
ENDMDL
MODEL 6
REMARK VINA RESULT:      -5.8      4.196      8.326
REMARK  Name = 
REMARK  20 active torsions:
REMARK  status: ('A' for Active; 'I' for Inactive)
REMARK    1  A    between atoms: C_1  and  C_2
REMARK    2  A    between atoms: C_2  and  C_3
REMARK    3  A    between atoms: C_3  and  C_4
REMARK    4  A    between atoms: C_4  and  C_5
REMARK    5  A    between atoms: C_5  and  C_6
REMARK    6  A    between atoms: C_6  and  O_7
REMARK    7  A    between atoms: C_6  and  C_8
REMARK    8  A    between atoms: C_8  and  C_9
REMARK    9  A    between atoms: C_9  and  C_10
REMARK   10  A    between atoms: C_10  and  C_11
REMARK   11  A    between atoms: C_11  and  C_12
REMARK   12  A    between atoms: C_11  and  C_21
REMARK   13  A    between atoms: C_12  and  C_13
REMARK   14  A    between atoms: C_13  and  C_14
REMARK   15  A    between atoms: C_14  and  C_15
REMARK   16  A    between atoms: C_15  and  C_16
REMARK   17  A    between atoms: C_16  and  C_17
REMARK   18  A    between atoms: C_17  and  C_18
REMARK   19  A    between atoms: C_18  and  O_20
REMARK   20  A    between atoms: C_21  and  C_22
REMARK                            x       y       z     vdW  Elec       q    Type
REMARK                         _______ _______ _______ _____ _____    ______ ____
ROOT
ATOM      1  C   UNL     1       6.851   5.917  17.016  0.00  0.00    +0.000 C 
ENDROOT
BRANCH   1   2
ATOM      2  C   UNL     1       7.612   5.081  18.047  0.00  0.00    +0.000 C 
ATOM      3  C   UNL     1       7.615   5.494  19.496  0.00  0.00    +0.000 C 
ATOM      4  O   UNL     1       8.275   4.101  17.685  0.00  0.00    +0.000 OA
ENDBRANCH   1   2
BRANCH   1   5
ATOM      5  C   UNL     1       6.620   7.344  17.551  0.00  0.00    +0.000 C 
BRANCH   5   6
ATOM      6  C   UNL     1       7.813   8.276  17.263  0.00  0.00    +0.000 C 
BRANCH   6   7
ATOM      7  C   UNL     1       8.450   8.895  18.508  0.00  0.00    +0.000 C 
BRANCH   7   8
ATOM      8  C   UNL     1       8.858  10.358  18.322  0.00  0.00    +0.000 C 
BRANCH   8   9
ATOM      9  C   UNL     1       9.833  10.851  19.393  0.00  0.00    +0.000 C 
BRANCH   9  10
ATOM     10  C   UNL     1       9.666  12.338  19.705  0.00  0.00    +0.000 C 
BRANCH  10  11
ATOM     11  C   UNL     1      10.816  13.155  19.167  0.00  0.00    +0.000 C 
ATOM     12  O   UNL     1      11.876  13.343  19.734  0.00  0.00    +0.000 OA
BRANCH  11  13
ATOM     13  O   UNL     1      10.544  13.675  17.944  0.00  0.00    +0.000 OA
ATOM     14  H   UNL     1      11.219  13.461  17.269  0.00  0.00    +0.000 HD
ENDBRANCH  11  13
ENDBRANCH  10  11
ENDBRANCH   9  10
ENDBRANCH   8   9
ENDBRANCH   7   8
ENDBRANCH   6   7
ENDBRANCH   5   6
ENDBRANCH   1   5
BRANCH   1  15
ATOM     15  C   UNL     1       5.570   5.177  16.567  0.00  0.00    +0.000 C 
BRANCH  15  16
ATOM     16  C   UNL     1       4.513   5.045  17.671  0.00  0.00    +0.000 C 
BRANCH  16  17
ATOM     17  C   UNL     1       4.333   3.594  18.156  0.00  0.00    +0.000 C 
BRANCH  17  18
ATOM     18  C   UNL     1       3.091   2.939  17.522  0.00  0.00    +0.000 C 
BRANCH  18  19
ATOM     19  O   UNL     1       3.028   1.568  17.917  0.00  0.00    +0.000 OA
ATOM     20  H   UNL     1       2.131   1.242  17.725  0.00  0.00    +0.000 HD
ENDBRANCH  18  19
BRANCH  18  21
ATOM     21  C   UNL     1       1.755   3.608  17.889  0.00  0.00    +0.000 C 
BRANCH  21  22
ATOM     22  C   UNL     1       0.828   2.675  18.665  0.00  0.00    +0.000 C 
BRANCH  22  23
ATOM     23  C   UNL     1       0.683   3.046  20.142  0.00  0.00    +0.000 C 
BRANCH  23  25
ATOM     24  C   UNL     1       2.427   4.421  21.371  0.00  0.00    +0.000 C 
ATOM     25  C   UNL     1       1.281   4.436  20.377  0.00  0.00    +0.000 C 
ENDBRANCH  23  25
ENDBRANCH  22  23
ENDBRANCH  21  22
ENDBRANCH  18  21
ENDBRANCH  17  18
ENDBRANCH  16  17
ENDBRANCH  15  16
ENDBRANCH   1  15
TORSDOF 18
ENDMDL
MODEL 7
REMARK VINA RESULT:      -5.8      2.161      3.466
REMARK  Name = 
REMARK  20 active torsions:
REMARK  status: ('A' for Active; 'I' for Inactive)
REMARK    1  A    between atoms: C_1  and  C_2
REMARK    2  A    between atoms: C_2  and  C_3
REMARK    3  A    between atoms: C_3  and  C_4
REMARK    4  A    between atoms: C_4  and  C_5
REMARK    5  A    between atoms: C_5  and  C_6
REMARK    6  A    between atoms: C_6  and  O_7
REMARK    7  A    between atoms: C_6  and  C_8
REMARK    8  A    between atoms: C_8  and  C_9
REMARK    9  A    between atoms: C_9  and  C_10
REMARK   10  A    between atoms: C_10  and  C_11
REMARK   11  A    between atoms: C_11  and  C_12
REMARK   12  A    between atoms: C_11  and  C_21
REMARK   13  A    between atoms: C_12  and  C_13
REMARK   14  A    between atoms: C_13  and  C_14
REMARK   15  A    between atoms: C_14  and  C_15
REMARK   16  A    between atoms: C_15  and  C_16
REMARK   17  A    between atoms: C_16  and  C_17
REMARK   18  A    between atoms: C_17  and  C_18
REMARK   19  A    between atoms: C_18  and  O_20
REMARK   20  A    between atoms: C_21  and  C_22
REMARK                            x       y       z     vdW  Elec       q    Type
REMARK                         _______ _______ _______ _____ _____    ______ ____
ROOT
ATOM      1  C   UNL     1       3.661   6.014  17.516  0.00  0.00    +0.000 C 
ENDROOT
BRANCH   1   2
ATOM      2  C   UNL     1       3.044   7.366  17.879  0.00  0.00    +0.000 C 
ATOM      3  C   UNL     1       2.208   7.502  19.126  0.00  0.00    +0.000 C 
ATOM      4  O   UNL     1       3.177   8.335  17.121  0.00  0.00    +0.000 OA
ENDBRANCH   1   2
BRANCH   1   5
ATOM      5  C   UNL     1       2.617   4.892  17.669  0.00  0.00    +0.000 C 
BRANCH   5   6
ATOM      6  C   UNL     1       3.179   3.513  17.271  0.00  0.00    +0.000 C 
BRANCH   6   7
ATOM      7  C   UNL     1       3.690   2.674  18.444  0.00  0.00    +0.000 C 
BRANCH   7   8
ATOM      8  C   UNL     1       2.580   1.936  19.196  0.00  0.00    +0.000 C 
BRANCH   8   9
ATOM      9  C   UNL     1       1.203   2.575  19.016  0.00  0.00    +0.000 C 
BRANCH   9  10
ATOM     10  C   UNL     1       0.771   3.403  20.226  0.00  0.00    +0.000 C 
BRANCH  10  11
ATOM     11  C   UNL     1       1.871   3.507  21.254  0.00  0.00    +0.000 C 
ATOM     12  O   UNL     1       2.125   2.674  22.104  0.00  0.00    +0.000 OA
BRANCH  11  13
ATOM     13  O   UNL     1       2.577   4.658  21.132  0.00  0.00    +0.000 OA
ATOM     14  H   UNL     1       2.510   5.244  21.912  0.00  0.00    +0.000 HD
ENDBRANCH  11  13
ENDBRANCH  10  11
ENDBRANCH   9  10
ENDBRANCH   8   9
ENDBRANCH   7   8
ENDBRANCH   6   7
ENDBRANCH   5   6
ENDBRANCH   1   5
BRANCH   1  15
ATOM     15  C   UNL     1       4.970   5.794  18.309  0.00  0.00    +0.000 C 
BRANCH  15  16
ATOM     16  C   UNL     1       6.235   6.196  17.539  0.00  0.00    +0.000 C 
BRANCH  16  17
ATOM     17  C   UNL     1       6.769   5.068  16.636  0.00  0.00    +0.000 C 
BRANCH  17  18
ATOM     18  C   UNL     1       6.539   5.385  15.146  0.00  0.00    +0.000 C 
BRANCH  18  19
ATOM     19  O   UNL     1       7.789   5.339  14.457  0.00  0.00    +0.000 OA
ATOM     20  H   UNL     1       7.873   4.459  14.049  0.00  0.00    +0.000 HD
ENDBRANCH  18  19
BRANCH  18  21
ATOM     21  C   UNL     1       5.560   4.437  14.432  0.00  0.00    +0.000 C 
BRANCH  21  22
ATOM     22  C   UNL     1       6.244   3.586  13.364  0.00  0.00    +0.000 C 
BRANCH  22  23
ATOM     23  C   UNL     1       5.366   3.316  12.141  0.00  0.00    +0.000 C 
BRANCH  23  25
ATOM     24  C   UNL     1       7.209   1.928  11.081  0.00  0.00    +0.000 C 
ATOM     25  C   UNL     1       5.758   1.970  11.523  0.00  0.00    +0.000 C 
ENDBRANCH  23  25
ENDBRANCH  22  23
ENDBRANCH  21  22
ENDBRANCH  18  21
ENDBRANCH  17  18
ENDBRANCH  16  17
ENDBRANCH  15  16
ENDBRANCH   1  15
TORSDOF 18
ENDMDL
MODEL 8
REMARK VINA RESULT:      -5.7      2.209      6.739
REMARK  Name = 
REMARK  20 active torsions:
REMARK  status: ('A' for Active; 'I' for Inactive)
REMARK    1  A    between atoms: C_1  and  C_2
REMARK    2  A    between atoms: C_2  and  C_3
REMARK    3  A    between atoms: C_3  and  C_4
REMARK    4  A    between atoms: C_4  and  C_5
REMARK    5  A    between atoms: C_5  and  C_6
REMARK    6  A    between atoms: C_6  and  O_7
REMARK    7  A    between atoms: C_6  and  C_8
REMARK    8  A    between atoms: C_8  and  C_9
REMARK    9  A    between atoms: C_9  and  C_10
REMARK   10  A    between atoms: C_10  and  C_11
REMARK   11  A    between atoms: C_11  and  C_12
REMARK   12  A    between atoms: C_11  and  C_21
REMARK   13  A    between atoms: C_12  and  C_13
REMARK   14  A    between atoms: C_13  and  C_14
REMARK   15  A    between atoms: C_14  and  C_15
REMARK   16  A    between atoms: C_15  and  C_16
REMARK   17  A    between atoms: C_16  and  C_17
REMARK   18  A    between atoms: C_17  and  C_18
REMARK   19  A    between atoms: C_18  and  O_20
REMARK   20  A    between atoms: C_21  and  C_22
REMARK                            x       y       z     vdW  Elec       q    Type
REMARK                         _______ _______ _______ _____ _____    ______ ____
ROOT
ATOM      1  C   UNL     1       6.243   5.100  17.387  0.00  0.00    +0.000 C 
ENDROOT
BRANCH   1   2
ATOM      2  C   UNL     1       6.950   5.671  18.619  0.00  0.00    +0.000 C 
ATOM      3  C   UNL     1       7.960   6.778  18.463  0.00  0.00    +0.000 C 
ATOM      4  O   UNL     1       6.740   5.183  19.737  0.00  0.00    +0.000 OA
ENDBRANCH   1   2
BRANCH   1   5
ATOM      5  C   UNL     1       5.866   6.235  16.415  0.00  0.00    +0.000 C 
BRANCH   5   6
ATOM      6  C   UNL     1       5.983   5.803  14.941  0.00  0.00    +0.000 C 
BRANCH   6   7
ATOM      7  C   UNL     1       6.744   4.495  14.721  0.00  0.00    +0.000 C 
BRANCH   7   8
ATOM      8  C   UNL     1       5.947   3.448  13.939  0.00  0.00    +0.000 C 
BRANCH   8   9
ATOM      9  C   UNL     1       5.969   3.679  12.428  0.00  0.00    +0.000 C 
BRANCH   9  10
ATOM     10  C   UNL     1       5.305   2.547  11.645  0.00  0.00    +0.000 C 
BRANCH  10  11
ATOM     11  C   UNL     1       6.277   1.433  11.339  0.00  0.00    +0.000 C 
ATOM     12  O   UNL     1       5.981   0.266  11.162  0.00  0.00    +0.000 OA
BRANCH  11  13
ATOM     13  O   UNL     1       7.556   1.876  11.273  0.00  0.00    +0.000 OA
ATOM     14  H   UNL     1       7.960   2.040  12.149  0.00  0.00    +0.000 HD
ENDBRANCH  11  13
ENDBRANCH  10  11
ENDBRANCH   9  10
ENDBRANCH   8   9
ENDBRANCH   7   8
ENDBRANCH   6   7
ENDBRANCH   5   6
ENDBRANCH   1   5
BRANCH   1  15
ATOM     15  C   UNL     1       5.066   4.196  17.817  0.00  0.00    +0.000 C 
BRANCH  15  16
ATOM     16  C   UNL     1       3.698   4.685  17.323  0.00  0.00    +0.000 C 
BRANCH  16  17
ATOM     17  C   UNL     1       2.917   5.465  18.397  0.00  0.00    +0.000 C 
BRANCH  17  18
ATOM     18  C   UNL     1       1.460   4.975  18.499  0.00  0.00    +0.000 C 
BRANCH  18  19
ATOM     19  O   UNL     1       1.123   4.249  17.316  0.00  0.00    +0.000 OA
ATOM     20  H   UNL     1       0.542   4.811  16.775  0.00  0.00    +0.000 HD
ENDBRANCH  18  19
BRANCH  18  21
ATOM     21  C   UNL     1       1.169   4.076  19.714  0.00  0.00    +0.000 C 
BRANCH  21  22
ATOM     22  C   UNL     1       1.097   2.596  19.343  0.00  0.00    +0.000 C 
BRANCH  22  23
ATOM     23  C   UNL     1       2.451   1.886  19.392  0.00  0.00    +0.000 C 
BRANCH  23  25
ATOM     24  C   UNL     1       4.707   1.935  20.555  0.00  0.00    +0.000 C 
ATOM     25  C   UNL     1       3.285   2.464  20.540  0.00  0.00    +0.000 C 
ENDBRANCH  23  25
ENDBRANCH  22  23
ENDBRANCH  21  22
ENDBRANCH  18  21
ENDBRANCH  17  18
ENDBRANCH  16  17
ENDBRANCH  15  16
ENDBRANCH   1  15
TORSDOF 18
ENDMDL
MODEL 9
REMARK VINA RESULT:      -5.7      2.203      7.062
REMARK  Name = 
REMARK  20 active torsions:
REMARK  status: ('A' for Active; 'I' for Inactive)
REMARK    1  A    between atoms: C_1  and  C_2
REMARK    2  A    between atoms: C_2  and  C_3
REMARK    3  A    between atoms: C_3  and  C_4
REMARK    4  A    between atoms: C_4  and  C_5
REMARK    5  A    between atoms: C_5  and  C_6
REMARK    6  A    between atoms: C_6  and  O_7
REMARK    7  A    between atoms: C_6  and  C_8
REMARK    8  A    between atoms: C_8  and  C_9
REMARK    9  A    between atoms: C_9  and  C_10
REMARK   10  A    between atoms: C_10  and  C_11
REMARK   11  A    between atoms: C_11  and  C_12
REMARK   12  A    between atoms: C_11  and  C_21
REMARK   13  A    between atoms: C_12  and  C_13
REMARK   14  A    between atoms: C_13  and  C_14
REMARK   15  A    between atoms: C_14  and  C_15
REMARK   16  A    between atoms: C_15  and  C_16
REMARK   17  A    between atoms: C_16  and  C_17
REMARK   18  A    between atoms: C_17  and  C_18
REMARK   19  A    between atoms: C_18  and  O_20
REMARK   20  A    between atoms: C_21  and  C_22
REMARK                            x       y       z     vdW  Elec       q    Type
REMARK                         _______ _______ _______ _____ _____    ______ ____
ROOT
ATOM      1  C   UNL     1       5.708   5.472  17.209  0.00  0.00    +0.000 C 
ENDROOT
BRANCH   1   2
ATOM      2  C   UNL     1       6.865   6.407  17.568  0.00  0.00    +0.000 C 
ATOM      3  C   UNL     1       7.666   6.166  18.821  0.00  0.00    +0.000 C 
ATOM      4  O   UNL     1       7.106   7.396  16.864  0.00  0.00    +0.000 OA
ENDBRANCH   1   2
BRANCH   1   5
ATOM      5  C   UNL     1       6.227   4.262  16.409  0.00  0.00    +0.000 C 
BRANCH   5   6
ATOM      6  C   UNL     1       7.338   4.653  15.415  0.00  0.00    +0.000 C 
BRANCH   6   7
ATOM      7  C   UNL     1       6.869   4.807  13.967  0.00  0.00    +0.000 C 
BRANCH   7   8
ATOM      8  C   UNL     1       5.969   3.664  13.492  0.00  0.00    +0.000 C 
BRANCH   8   9
ATOM      9  C   UNL     1       5.986   3.476  11.974  0.00  0.00    +0.000 C 
BRANCH   9  10
ATOM     10  C   UNL     1       5.336   2.166  11.532  0.00  0.00    +0.000 C 
BRANCH  10  11
ATOM     11  C   UNL     1       6.366   1.112  11.205  0.00  0.00    +0.000 C 
ATOM     12  O   UNL     1       6.136  -0.067  11.013  0.00  0.00    +0.000 OA
BRANCH  11  13
ATOM     13  O   UNL     1       7.619   1.626  11.139  0.00  0.00    +0.000 OA
ATOM     14  H   UNL     1       8.317   0.994  11.405  0.00  0.00    +0.000 HD
ENDBRANCH  11  13
ENDBRANCH  10  11
ENDBRANCH   9  10
ENDBRANCH   8   9
ENDBRANCH   7   8
ENDBRANCH   6   7
ENDBRANCH   5   6
ENDBRANCH   1   5
BRANCH   1  15
ATOM     15  C   UNL     1       4.573   6.266  16.521  0.00  0.00    +0.000 C 
BRANCH  15  16
ATOM     16  C   UNL     1       3.786   7.174  17.474  0.00  0.00    +0.000 C 
BRANCH  16  17
ATOM     17  C   UNL     1       2.683   6.422  18.242  0.00  0.00    +0.000 C 
BRANCH  17  18
ATOM     18  C   UNL     1       3.051   6.248  19.728  0.00  0.00    +0.000 C 
BRANCH  18  19
ATOM     19  O   UNL     1       1.854   6.157  20.502  0.00  0.00    +0.000 OA
ATOM     20  H   UNL     1       1.580   7.061  20.737  0.00  0.00    +0.000 HD
ENDBRANCH  18  19
BRANCH  18  21
ATOM     21  C   UNL     1       3.916   5.013  20.034  0.00  0.00    +0.000 C 
BRANCH  21  22
ATOM     22  C   UNL     1       3.289   3.717  19.523  0.00  0.00    +0.000 C 
BRANCH  22  23
ATOM     23  C   UNL     1       2.479   2.969  20.583  0.00  0.00    +0.000 C 
BRANCH  23  25
ATOM     24  C   UNL     1       0.910   3.100  18.592  0.00  0.00    +0.000 C 
ATOM     25  C   UNL     1       1.074   2.688  20.043  0.00  0.00    +0.000 C 
ENDBRANCH  23  25
ENDBRANCH  22  23
ENDBRANCH  21  22
ENDBRANCH  18  21
ENDBRANCH  17  18
ENDBRANCH  16  17
ENDBRANCH  15  16
ENDBRANCH   1  15
TORSDOF 18
ENDMDL
