MODEL 1
REMARK VINA RESULT:      -8.3      0.000      0.000
REMARK  Name = 
REMARK  5 active torsions:
REMARK  status: ('A' for Active; 'I' for Inactive)
REMARK    1  A    between atoms: C_1  and  N_2
REMARK    2  A    between atoms: C_4  and  C_5
REMARK    3  A    between atoms: C_5  and  C_7
REMARK    4  A    between atoms: C_7  and  C_8
REMARK    5  A    between atoms: C_15  and  C_16
REMARK                            x       y       z     vdW  Elec       q    Type
REMARK                         _______ _______ _______ _____ _____    ______ ____
ROOT
ATOM      1  C   UNL     1       3.078   6.772  17.773  0.00  0.00    +0.000 C 
ATOM      2  N   UNL     1       3.885   5.749  17.141  0.00  0.00    +0.000 N 
ATOM      3  C   UNL     1       5.101   6.001  16.566  0.00  0.00    +0.000 A 
ATOM      4  C   UNL     1       5.640   4.815  16.101  0.00  0.00    +0.000 A 
ATOM      5  C   UNL     1       4.672   3.809  16.387  0.00  0.00    +0.000 A 
ATOM      6  C   UNL     1       3.607   4.402  17.048  0.00  0.00    +0.000 A 
ENDROOT
BRANCH   6   7
ATOM      7  C   UNL     1       2.394   3.878  17.559  0.00  0.00    +0.000 C 
ATOM      8  C   UNL     1       2.191   3.538  18.848  0.00  0.00    +0.000 C 
ATOM      9  C   UNL     1       3.186   3.689  19.943  0.00  0.00    +0.000 C 
ATOM     10  O   UNL     1       4.215   4.350  19.871  0.00  0.00    +0.000 OA
ATOM     11  N   UNL     1       2.852   3.072  21.118  0.00  0.00    +0.000 N 
ATOM     12  C   UNL     1       1.628   2.586  21.450  0.00  0.00    +0.000 C 
ATOM     13  O   UNL     1       1.369   2.216  22.594  0.00  0.00    +0.000 OA
ATOM     14  N   UNL     1       0.693   2.557  20.469  0.00  0.00    +0.000 N 
ATOM     15  C   UNL     1       0.854   2.971  19.176  0.00  0.00    +0.000 C 
ATOM     16  O   UNL     1      -0.062   2.879  18.366  0.00  0.00    +0.000 OA
ATOM     17  H   UNL     1       3.515   3.171  21.872  0.00  0.00    +0.000 HD
ATOM     18  H   UNL     1      -0.217   2.193  20.719  0.00  0.00    +0.000 HD
ENDBRANCH   6   7
BRANCH   4  19
ATOM     19  C   UNL     1       6.955   4.727  15.461  0.00  0.00    +0.000 C 
ATOM     20  O   UNL     1       7.953   4.420  16.118  0.00  0.00    +0.000 OA
BRANCH  19  21
ATOM     21  C   UNL     1       7.092   5.073  13.991  0.00  0.00    +0.000 C 
BRANCH  21  22
ATOM     22  C   UNL     1       6.522   4.074  13.015  0.00  0.00    +0.000 A 
ATOM     23  C   UNL     1       5.134   4.050  12.806  0.00  0.00    +0.000 A 
ATOM     24  C   UNL     1       4.557   3.124  11.937  0.00  0.00    +0.000 A 
ATOM     25  C   UNL     1       5.363   2.219  11.250  0.00  0.00    +0.000 A 
ATOM     26  C   UNL     1       6.747   2.273  11.401  0.00  0.00    +0.000 A 
ATOM     27  C   UNL     1       7.326   3.207  12.263  0.00  0.00    +0.000 A 
ENDBRANCH  21  22
ENDBRANCH  19  21
ENDBRANCH   4  19
TORSDOF 4
ENDMDL
MODEL 2
REMARK VINA RESULT:      -8.1      1.138      1.611
REMARK  Name = 
REMARK  5 active torsions:
REMARK  status: ('A' for Active; 'I' for Inactive)
REMARK    1  A    between atoms: C_1  and  N_2
REMARK    2  A    between atoms: C_4  and  C_5
REMARK    3  A    between atoms: C_5  and  C_7
REMARK    4  A    between atoms: C_7  and  C_8
REMARK    5  A    between atoms: C_15  and  C_16
REMARK                            x       y       z     vdW  Elec       q    Type
REMARK                         _______ _______ _______ _____ _____    ______ ____
ROOT
ATOM      1  C   UNL     1       2.249   7.265  17.993  0.00  0.00    +0.000 C 
ATOM      2  N   UNL     1       3.368   6.449  17.569  0.00  0.00    +0.000 N 
ATOM      3  C   UNL     1       4.576   6.971  17.189  0.00  0.00    +0.000 A 
ATOM      4  C   UNL     1       5.446   5.937  16.895  0.00  0.00    +0.000 A 
ATOM      5  C   UNL     1       4.701   4.736  17.079  0.00  0.00    +0.000 A 
ATOM      6  C   UNL     1       3.429   5.073  17.515  0.00  0.00    +0.000 A 
ENDROOT
BRANCH   6   7
ATOM      7  C   UNL     1       2.298   4.288  17.850  0.00  0.00    +0.000 C 
ATOM      8  C   UNL     1       2.003   3.864  19.095  0.00  0.00    +0.000 C 
ATOM      9  C   UNL     1       2.789   4.178  20.318  0.00  0.00    +0.000 C 
ATOM     10  O   UNL     1       3.654   5.042  20.394  0.00  0.00    +0.000 OA
ATOM     11  N   UNL     1       2.441   3.460  21.429  0.00  0.00    +0.000 N 
ATOM     12  C   UNL     1       1.315   2.716  21.586  0.00  0.00    +0.000 C 
ATOM     13  O   UNL     1       0.992   2.256  22.680  0.00  0.00    +0.000 OA
ATOM     14  N   UNL     1       0.547   2.530  20.485  0.00  0.00    +0.000 N 
ATOM     15  C   UNL     1       0.786   3.017  19.230  0.00  0.00    +0.000 C 
ATOM     16  O   UNL     1       0.027   2.766  18.301  0.00  0.00    +0.000 OA
ATOM     17  H   UNL     1       2.961   3.667  22.269  0.00  0.00    +0.000 HD
ATOM     18  H   UNL     1      -0.290   1.973  20.604  0.00  0.00    +0.000 HD
ENDBRANCH   6   7
BRANCH   4  19
ATOM     19  C   UNL     1       6.837   6.150  16.488  0.00  0.00    +0.000 C 
ATOM     20  O   UNL     1       7.370   7.254  16.629  0.00  0.00    +0.000 OA
BRANCH  19  21
ATOM     21  C   UNL     1       7.605   5.016  15.839  0.00  0.00    +0.000 C 
BRANCH  21  22
ATOM     22  C   UNL     1       7.212   4.669  14.424  0.00  0.00    +0.000 A 
ATOM     23  C   UNL     1       7.901   5.278  13.363  0.00  0.00    +0.000 A 
ATOM     24  C   UNL     1       7.555   5.013  12.038  0.00  0.00    +0.000 A 
ATOM     25  C   UNL     1       6.523   4.122  11.755  0.00  0.00    +0.000 A 
ATOM     26  C   UNL     1       5.872   3.463  12.796  0.00  0.00    +0.000 A 
ATOM     27  C   UNL     1       6.226   3.720  14.123  0.00  0.00    +0.000 A 
ENDBRANCH  21  22
ENDBRANCH  19  21
ENDBRANCH   4  19
TORSDOF 4
ENDMDL
MODEL 3
REMARK VINA RESULT:      -7.8      3.148      4.509
REMARK  Name = 
REMARK  5 active torsions:
REMARK  status: ('A' for Active; 'I' for Inactive)
REMARK    1  A    between atoms: C_1  and  N_2
REMARK    2  A    between atoms: C_4  and  C_5
REMARK    3  A    between atoms: C_5  and  C_7
REMARK    4  A    between atoms: C_7  and  C_8
REMARK    5  A    between atoms: C_15  and  C_16
REMARK                            x       y       z     vdW  Elec       q    Type
REMARK                         _______ _______ _______ _____ _____    ______ ____
ROOT
ATOM      1  C   UNL     1       1.676   4.503  17.912  0.00  0.00    +0.000 C 
ATOM      2  N   UNL     1       3.030   5.013  17.979  0.00  0.00    +0.000 N 
ATOM      3  C   UNL     1       4.069   4.481  17.265  0.00  0.00    +0.000 A 
ATOM      4  C   UNL     1       5.213   5.220  17.505  0.00  0.00    +0.000 A 
ATOM      5  C   UNL     1       4.838   6.227  18.441  0.00  0.00    +0.000 A 
ATOM      6  C   UNL     1       3.482   6.095  18.704  0.00  0.00    +0.000 A 
ENDROOT
BRANCH   6   7
ATOM      7  C   UNL     1       2.601   6.820  19.544  0.00  0.00    +0.000 C 
ATOM      8  C   UNL     1       2.049   8.009  19.226  0.00  0.00    +0.000 C 
ATOM      9  C   UNL     1       2.242   8.730  17.941  0.00  0.00    +0.000 C 
ATOM     10  O   UNL     1       2.725   8.242  16.927  0.00  0.00    +0.000 OA
ATOM     11  N   UNL     1       1.777  10.017  17.924  0.00  0.00    +0.000 N 
ATOM     12  C   UNL     1       0.947  10.584  18.838  0.00  0.00    +0.000 C 
ATOM     13  O   UNL     1       0.432  11.684  18.647  0.00  0.00    +0.000 OA
ATOM     14  N   UNL     1       0.690   9.866  19.958  0.00  0.00    +0.000 N 
ATOM     15  C   UNL     1       1.176   8.626  20.264  0.00  0.00    +0.000 C 
ATOM     16  O   UNL     1       0.888   8.078  21.322  0.00  0.00    +0.000 OA
ATOM     17  H   UNL     1       1.895  10.518  17.055  0.00  0.00    +0.000 HD
ATOM     18  H   UNL     1       0.073  10.292  20.639  0.00  0.00    +0.000 HD
ENDBRANCH   6   7
BRANCH   4  19
ATOM     19  C   UNL     1       6.501   4.937  16.866  0.00  0.00    +0.000 C 
ATOM     20  O   UNL     1       7.282   4.120  17.363  0.00  0.00    +0.000 OA
BRANCH  19  21
ATOM     21  C   UNL     1       6.896   5.699  15.617  0.00  0.00    +0.000 C 
BRANCH  21  22
ATOM     22  C   UNL     1       6.756   4.956  14.311  0.00  0.00    +0.000 A 
ATOM     23  C   UNL     1       5.678   4.072  14.148  0.00  0.00    +0.000 A 
ATOM     24  C   UNL     1       5.523   3.340  12.971  0.00  0.00    +0.000 A 
ATOM     25  C   UNL     1       6.437   3.495  11.932  0.00  0.00    +0.000 A 
ATOM     26  C   UNL     1       7.476   4.414  12.055  0.00  0.00    +0.000 A 
ATOM     27  C   UNL     1       7.625   5.156  13.230  0.00  0.00    +0.000 A 
ENDBRANCH  21  22
ENDBRANCH  19  21
ENDBRANCH   4  19
TORSDOF 4
ENDMDL
MODEL 4
REMARK VINA RESULT:      -7.8      3.062      7.697
REMARK  Name = 
REMARK  5 active torsions:
REMARK  status: ('A' for Active; 'I' for Inactive)
REMARK    1  A    between atoms: C_1  and  N_2
REMARK    2  A    between atoms: C_4  and  C_5
REMARK    3  A    between atoms: C_5  and  C_7
REMARK    4  A    between atoms: C_7  and  C_8
REMARK    5  A    between atoms: C_15  and  C_16
REMARK                            x       y       z     vdW  Elec       q    Type
REMARK                         _______ _______ _______ _____ _____    ______ ____
ROOT
ATOM      1  C   UNL     1       7.386   4.627  17.830  0.00  0.00    +0.000 C 
ATOM      2  N   UNL     1       6.208   5.404  17.501  0.00  0.00    +0.000 N 
ATOM      3  C   UNL     1       5.185   5.625  18.383  0.00  0.00    +0.000 A 
ATOM      4  C   UNL     1       4.241   6.443  17.789  0.00  0.00    +0.000 A 
ATOM      5  C   UNL     1       4.716   6.693  16.469  0.00  0.00    +0.000 A 
ATOM      6  C   UNL     1       5.941   6.061  16.319  0.00  0.00    +0.000 A 
ENDROOT
BRANCH   6   7
ATOM      7  C   UNL     1       6.843   5.981  15.230  0.00  0.00    +0.000 C 
ATOM      8  C   UNL     1       6.753   5.084  14.227  0.00  0.00    +0.000 C 
ATOM      9  C   UNL     1       5.681   4.065  14.080  0.00  0.00    +0.000 C 
ATOM     10  O   UNL     1       4.628   4.058  14.705  0.00  0.00    +0.000 OA
ATOM     11  N   UNL     1       5.911   3.117  13.120  0.00  0.00    +0.000 N 
ATOM     12  C   UNL     1       6.855   3.173  12.145  0.00  0.00    +0.000 C 
ATOM     13  O   UNL     1       6.871   2.369  11.215  0.00  0.00    +0.000 OA
ATOM     14  N   UNL     1       7.762   4.177  12.229  0.00  0.00    +0.000 N 
ATOM     15  C   UNL     1       7.824   5.143  13.194  0.00  0.00    +0.000 C 
ATOM     16  O   UNL     1       8.706   5.995  13.178  0.00  0.00    +0.000 OA
ATOM     17  H   UNL     1       5.188   2.421  13.004  0.00  0.00    +0.000 HD
ATOM     18  H   UNL     1       8.466   4.215  11.503  0.00  0.00    +0.000 HD
ENDBRANCH   6   7
BRANCH   4  19
ATOM     19  C   UNL     1       3.031   6.903  18.477  0.00  0.00    +0.000 C 
ATOM     20  O   UNL     1       2.356   7.824  18.009  0.00  0.00    +0.000 OA
BRANCH  19  21
ATOM     21  C   UNL     1       2.643   6.277  19.801  0.00  0.00    +0.000 C 
BRANCH  21  22
ATOM     22  C   UNL     1       2.034   4.898  19.733  0.00  0.00    +0.000 A 
ATOM     23  C   UNL     1       1.776   4.213  20.932  0.00  0.00    +0.000 A 
ATOM     24  C   UNL     1       1.242   2.925  20.920  0.00  0.00    +0.000 A 
ATOM     25  C   UNL     1       0.942   2.308  19.708  0.00  0.00    +0.000 A 
ATOM     26  C   UNL     1       1.135   2.999  18.514  0.00  0.00    +0.000 A 
ATOM     27  C   UNL     1       1.659   4.294  18.526  0.00  0.00    +0.000 A 
ENDBRANCH  21  22
ENDBRANCH  19  21
ENDBRANCH   4  19
TORSDOF 4
ENDMDL
MODEL 5
REMARK VINA RESULT:      -7.7      4.244      8.220
REMARK  Name = 
REMARK  5 active torsions:
REMARK  status: ('A' for Active; 'I' for Inactive)
REMARK    1  A    between atoms: C_1  and  N_2
REMARK    2  A    between atoms: C_4  and  C_5
REMARK    3  A    between atoms: C_5  and  C_7
REMARK    4  A    between atoms: C_7  and  C_8
REMARK    5  A    between atoms: C_15  and  C_16
REMARK                            x       y       z     vdW  Elec       q    Type
REMARK                         _______ _______ _______ _____ _____    ______ ____
ROOT
ATOM      1  C   UNL     1       2.394   5.649  20.834  0.00  0.00    +0.000 C 
ATOM      2  N   UNL     1       2.230   6.641  19.791  0.00  0.00    +0.000 N 
ATOM      3  C   UNL     1       1.706   7.885  20.015  0.00  0.00    +0.000 A 
ATOM      4  C   UNL     1       1.732   8.609  18.837  0.00  0.00    +0.000 A 
ATOM      5  C   UNL     1       2.271   7.731  17.852  0.00  0.00    +0.000 A 
ATOM      6  C   UNL     1       2.592   6.530  18.465  0.00  0.00    +0.000 A 
ENDROOT
BRANCH   6   7
ATOM      7  C   UNL     1       3.151   5.327  17.968  0.00  0.00    +0.000 C 
ATOM      8  C   UNL     1       4.336   5.242  17.330  0.00  0.00    +0.000 C 
ATOM      9  C   UNL     1       5.259   6.379  17.077  0.00  0.00    +0.000 C 
ATOM     10  O   UNL     1       5.183   7.478  17.612  0.00  0.00    +0.000 OA
ATOM     11  N   UNL     1       6.289   6.108  16.218  0.00  0.00    +0.000 N 
ATOM     12  C   UNL     1       6.689   4.878  15.805  0.00  0.00    +0.000 C 
ATOM     13  O   UNL     1       7.736   4.715  15.181  0.00  0.00    +0.000 OA
ATOM     14  N   UNL     1       5.893   3.832  16.138  0.00  0.00    +0.000 N 
ATOM     15  C   UNL     1       4.729   3.887  16.853  0.00  0.00    +0.000 C 
ATOM     16  O   UNL     1       4.079   2.872  17.079  0.00  0.00    +0.000 OA
ATOM     17  H   UNL     1       6.928   6.870  16.042  0.00  0.00    +0.000 HD
ATOM     18  H   UNL     1       6.192   2.917  15.827  0.00  0.00    +0.000 HD
ENDBRANCH   6   7
BRANCH   4  19
ATOM     19  C   UNL     1       1.275   9.998  18.737  0.00  0.00    +0.000 C 
ATOM     20  O   UNL     1       1.942  10.835  18.124  0.00  0.00    +0.000 OA
BRANCH  19  21
ATOM     21  C   UNL     1      -0.000  10.414  19.443  0.00  0.00    +0.000 C 
BRANCH  21  22
ATOM     22  C   UNL     1      -1.221  10.584  18.572  0.00  0.00    +0.000 A 
ATOM     23  C   UNL     1      -1.346   9.786  17.423  0.00  0.00    +0.000 A 
ATOM     24  C   UNL     1      -2.441   9.927  16.570  0.00  0.00    +0.000 A 
ATOM     25  C   UNL     1      -3.435  10.857  16.863  0.00  0.00    +0.000 A 
ATOM     26  C   UNL     1      -3.354  11.612  18.031  0.00  0.00    +0.000 A 
ATOM     27  C   UNL     1      -2.263  11.463  18.892  0.00  0.00    +0.000 A 
ENDBRANCH  21  22
ENDBRANCH  19  21
ENDBRANCH   4  19
TORSDOF 4
ENDMDL
MODEL 6
REMARK VINA RESULT:      -7.7      1.682      2.108
REMARK  Name = 
REMARK  5 active torsions:
REMARK  status: ('A' for Active; 'I' for Inactive)
REMARK    1  A    between atoms: C_1  and  N_2
REMARK    2  A    between atoms: C_4  and  C_5
REMARK    3  A    between atoms: C_5  and  C_7
REMARK    4  A    between atoms: C_7  and  C_8
REMARK    5  A    between atoms: C_15  and  C_16
REMARK                            x       y       z     vdW  Elec       q    Type
REMARK                         _______ _______ _______ _____ _____    ______ ____
ROOT
ATOM      1  C   UNL     1       6.875   5.700  19.385  0.00  0.00    +0.000 C 
ATOM      2  N   UNL     1       6.281   5.581  18.069  0.00  0.00    +0.000 N 
ATOM      3  C   UNL     1       7.013   5.376  16.931  0.00  0.00    +0.000 A 
ATOM      4  C   UNL     1       6.155   5.254  15.853  0.00  0.00    +0.000 A 
ATOM      5  C   UNL     1       4.842   5.432  16.379  0.00  0.00    +0.000 A 
ATOM      6  C   UNL     1       4.940   5.611  17.750  0.00  0.00    +0.000 A 
ENDROOT
BRANCH   6   7
ATOM      7  C   UNL     1       3.964   5.825  18.754  0.00  0.00    +0.000 C 
ATOM      8  C   UNL     1       3.501   4.869  19.586  0.00  0.00    +0.000 C 
ATOM      9  C   UNL     1       3.961   3.456  19.610  0.00  0.00    +0.000 C 
ATOM     10  O   UNL     1       4.968   3.035  19.055  0.00  0.00    +0.000 OA
ATOM     11  N   UNL     1       3.198   2.613  20.372  0.00  0.00    +0.000 N 
ATOM     12  C   UNL     1       2.263   2.979  21.286  0.00  0.00    +0.000 C 
ATOM     13  O   UNL     1       1.758   2.165  22.056  0.00  0.00    +0.000 OA
ATOM     14  N   UNL     1       1.932   4.294  21.329  0.00  0.00    +0.000 N 
ATOM     15  C   UNL     1       2.447   5.291  20.549  0.00  0.00    +0.000 C 
ATOM     16  O   UNL     1       2.056   6.448  20.665  0.00  0.00    +0.000 OA
ATOM     17  H   UNL     1       3.502   1.650  20.404  0.00  0.00    +0.000 HD
ATOM     18  H   UNL     1       1.233   4.564  22.009  0.00  0.00    +0.000 HD
ENDBRANCH   6   7
BRANCH   4  19
ATOM     19  C   UNL     1       6.614   4.991  14.487  0.00  0.00    +0.000 C 
ATOM     20  O   UNL     1       7.797   5.165  14.179  0.00  0.00    +0.000 OA
BRANCH  19  21
ATOM     21  C   UNL     1       5.613   4.558  13.435  0.00  0.00    +0.000 C 
BRANCH  21  22
ATOM     22  C   UNL     1       6.064   3.469  12.493  0.00  0.00    +0.000 A 
ATOM     23  C   UNL     1       5.118   2.540  12.030  0.00  0.00    +0.000 A 
ATOM     24  C   UNL     1       5.493   1.498  11.183  0.00  0.00    +0.000 A 
ATOM     25  C   UNL     1       6.818   1.380  10.771  0.00  0.00    +0.000 A 
ATOM     26  C   UNL     1       7.755   2.329  11.173  0.00  0.00    +0.000 A 
ATOM     27  C   UNL     1       7.378   3.380  12.013  0.00  0.00    +0.000 A 
ENDBRANCH  21  22
ENDBRANCH  19  21
ENDBRANCH   4  19
TORSDOF 4
ENDMDL
MODEL 7
REMARK VINA RESULT:      -7.6      2.059      2.692
REMARK  Name = 
REMARK  5 active torsions:
REMARK  status: ('A' for Active; 'I' for Inactive)
REMARK    1  A    between atoms: C_1  and  N_2
REMARK    2  A    between atoms: C_4  and  C_5
REMARK    3  A    between atoms: C_5  and  C_7
REMARK    4  A    between atoms: C_7  and  C_8
REMARK    5  A    between atoms: C_15  and  C_16
REMARK                            x       y       z     vdW  Elec       q    Type
REMARK                         _______ _______ _______ _____ _____    ______ ____
ROOT
ATOM      1  C   UNL     1       7.170   5.398  19.197  0.00  0.00    +0.000 C 
ATOM      2  N   UNL     1       6.594   5.108  17.900  0.00  0.00    +0.000 N 
ATOM      3  C   UNL     1       7.231   5.381  16.719  0.00  0.00    +0.000 A 
ATOM      4  C   UNL     1       6.449   4.940  15.667  0.00  0.00    +0.000 A 
ATOM      5  C   UNL     1       5.266   4.406  16.258  0.00  0.00    +0.000 A 
ATOM      6  C   UNL     1       5.386   4.500  17.636  0.00  0.00    +0.000 A 
ENDROOT
BRANCH   6   7
ATOM      7  C   UNL     1       4.521   4.124  18.694  0.00  0.00    +0.000 C 
ATOM      8  C   UNL     1       3.608   4.939  19.260  0.00  0.00    +0.000 C 
ATOM      9  C   UNL     1       3.335   6.341  18.847  0.00  0.00    +0.000 C 
ATOM     10  O   UNL     1       3.724   6.855  17.806  0.00  0.00    +0.000 OA
ATOM     11  N   UNL     1       2.535   7.050  19.702  0.00  0.00    +0.000 N 
ATOM     12  C   UNL     1       1.778   6.538  20.706  0.00  0.00    +0.000 C 
ATOM     13  O   UNL     1       0.949   7.222  21.303  0.00  0.00    +0.000 OA
ATOM     14  N   UNL     1       1.958   5.227  20.999  0.00  0.00    +0.000 N 
ATOM     15  C   UNL     1       2.821   4.363  20.385  0.00  0.00    +0.000 C 
ATOM     16  O   UNL     1       2.913   3.196  20.750  0.00  0.00    +0.000 OA
ATOM     17  H   UNL     1       2.335   8.002  19.431  0.00  0.00    +0.000 HD
ATOM     18  H   UNL     1       1.394   4.848  21.750  0.00  0.00    +0.000 HD
ENDBRANCH   6   7
BRANCH   4  19
ATOM     19  C   UNL     1       6.855   5.047  14.264  0.00  0.00    +0.000 C 
ATOM     20  O   UNL     1       7.983   5.450  13.967  0.00  0.00    +0.000 OA
BRANCH  19  21
ATOM     21  C   UNL     1       5.858   4.713  13.172  0.00  0.00    +0.000 C 
BRANCH  21  22
ATOM     22  C   UNL     1       6.170   3.497  12.334  0.00  0.00    +0.000 A 
ATOM     23  C   UNL     1       5.121   2.631  11.984  0.00  0.00    +0.000 A 
ATOM     24  C   UNL     1       5.364   1.479  11.237  0.00  0.00    +0.000 A 
ATOM     25  C   UNL     1       6.658   1.185  10.814  0.00  0.00    +0.000 A 
ATOM     26  C   UNL     1       7.697   2.066  11.101  0.00  0.00    +0.000 A 
ATOM     27  C   UNL     1       7.453   3.227  11.841  0.00  0.00    +0.000 A 
ENDBRANCH  21  22
ENDBRANCH  19  21
ENDBRANCH   4  19
TORSDOF 4
ENDMDL
MODEL 8
REMARK VINA RESULT:      -7.6      5.580      8.337
REMARK  Name = 
REMARK  5 active torsions:
REMARK  status: ('A' for Active; 'I' for Inactive)
REMARK    1  A    between atoms: C_1  and  N_2
REMARK    2  A    between atoms: C_4  and  C_5
REMARK    3  A    between atoms: C_5  and  C_7
REMARK    4  A    between atoms: C_7  and  C_8
REMARK    5  A    between atoms: C_15  and  C_16
REMARK                            x       y       z     vdW  Elec       q    Type
REMARK                         _______ _______ _______ _____ _____    ______ ____
ROOT
ATOM      1  C   UNL     1       0.533   9.209  21.270  0.00  0.00    +0.000 C 
ATOM      2  N   UNL     1       1.140   8.877  19.997  0.00  0.00    +0.000 N 
ATOM      3  C   UNL     1       2.155   7.968  19.864  0.00  0.00    +0.000 A 
ATOM      4  C   UNL     1       2.475   7.838  18.525  0.00  0.00    +0.000 A 
ATOM      5  C   UNL     1       1.625   8.745  17.829  0.00  0.00    +0.000 A 
ATOM      6  C   UNL     1       0.794   9.361  18.753  0.00  0.00    +0.000 A 
ENDROOT
BRANCH   6   7
ATOM      7  C   UNL     1      -0.228  10.332  18.615  0.00  0.00    +0.000 C 
ATOM      8  C   UNL     1      -0.022  11.665  18.617  0.00  0.00    +0.000 C 
ATOM      9  C   UNL     1       1.305  12.328  18.726  0.00  0.00    +0.000 C 
ATOM     10  O   UNL     1       2.384  11.767  18.591  0.00  0.00    +0.000 OA
ATOM     11  N   UNL     1       1.259  13.680  18.937  0.00  0.00    +0.000 N 
ATOM     12  C   UNL     1       0.172  14.480  18.790  0.00  0.00    +0.000 C 
ATOM     13  O   UNL     1       0.264  15.706  18.819  0.00  0.00    +0.000 OA
ATOM     14  N   UNL     1      -1.017  13.865  18.579  0.00  0.00    +0.000 N 
ATOM     15  C   UNL     1      -1.236  12.518  18.495  0.00  0.00    +0.000 C 
ATOM     16  O   UNL     1      -2.365  12.072  18.320  0.00  0.00    +0.000 OA
ATOM     17  H   UNL     1       2.153  14.145  19.006  0.00  0.00    +0.000 HD
ATOM     18  H   UNL     1      -1.826  14.463  18.473  0.00  0.00    +0.000 HD
ENDBRANCH   6   7
BRANCH   4  19
ATOM     19  C   UNL     1       3.501   6.914  18.031  0.00  0.00    +0.000 C 
ATOM     20  O   UNL     1       4.026   7.091  16.929  0.00  0.00    +0.000 OA
BRANCH  19  21
ATOM     21  C   UNL     1       3.874   5.703  18.863  0.00  0.00    +0.000 C 
BRANCH  21  22
ATOM     22  C   UNL     1       2.776   4.697  19.105  0.00  0.00    +0.000 A 
ATOM     23  C   UNL     1       2.359   4.457  20.424  0.00  0.00    +0.000 A 
ATOM     24  C   UNL     1       1.369   3.514  20.701  0.00  0.00    +0.000 A 
ATOM     25  C   UNL     1       0.769   2.810  19.661  0.00  0.00    +0.000 A 
ATOM     26  C   UNL     1       1.130   3.081  18.343  0.00  0.00    +0.000 A 
ATOM     27  C   UNL     1       2.114   4.033  18.064  0.00  0.00    +0.000 A 
ENDBRANCH  21  22
ENDBRANCH  19  21
ENDBRANCH   4  19
TORSDOF 4
ENDMDL
MODEL 9
REMARK VINA RESULT:      -7.5      3.955      8.160
REMARK  Name = 
REMARK  5 active torsions:
REMARK  status: ('A' for Active; 'I' for Inactive)
REMARK    1  A    between atoms: C_1  and  N_2
REMARK    2  A    between atoms: C_4  and  C_5
REMARK    3  A    between atoms: C_5  and  C_7
REMARK    4  A    between atoms: C_7  and  C_8
REMARK    5  A    between atoms: C_15  and  C_16
REMARK                            x       y       z     vdW  Elec       q    Type
REMARK                         _______ _______ _______ _____ _____    ______ ____
ROOT
ATOM      1  C   UNL     1       2.244   3.974  19.878  0.00  0.00    +0.000 C 
ATOM      2  N   UNL     1       2.175   5.399  19.626  0.00  0.00    +0.000 N 
ATOM      3  C   UNL     1       1.536   6.278  20.457  0.00  0.00    +0.000 A 
ATOM      4  C   UNL     1       1.695   7.563  19.970  0.00  0.00    +0.000 A 
ATOM      5  C   UNL     1       2.443   7.433  18.764  0.00  0.00    +0.000 A 
ATOM      6  C   UNL     1       2.747   6.093  18.581  0.00  0.00    +0.000 A 
ENDROOT
BRANCH   6   7
ATOM      7  C   UNL     1       3.462   5.409  17.566  0.00  0.00    +0.000 C 
ATOM      8  C   UNL     1       4.761   5.058  17.651  0.00  0.00    +0.000 C 
ATOM      9  C   UNL     1       5.640   5.294  18.826  0.00  0.00    +0.000 C 
ATOM     10  O   UNL     1       5.250   5.617  19.941  0.00  0.00    +0.000 OA
ATOM     11  N   UNL     1       6.971   5.064  18.608  0.00  0.00    +0.000 N 
ATOM     12  C   UNL     1       7.511   4.408  17.549  0.00  0.00    +0.000 C 
ATOM     13  O   UNL     1       8.697   4.085  17.525  0.00  0.00    +0.000 OA
ATOM     14  N   UNL     1       6.673   4.099  16.529  0.00  0.00    +0.000 N 
ATOM     15  C   UNL     1       5.336   4.376  16.458  0.00  0.00    +0.000 C 
ATOM     16  O   UNL     1       4.678   4.063  15.472  0.00  0.00    +0.000 OA
ATOM     17  H   UNL     1       7.580   5.214  19.400  0.00  0.00    +0.000 HD
ATOM     18  H   UNL     1       7.078   3.612  15.740  0.00  0.00    +0.000 HD
ENDBRANCH   6   7
BRANCH   4  19
ATOM     19  C   UNL     1       1.161   8.749  20.645  0.00  0.00    +0.000 C 
ATOM     20  O   UNL     1       0.663   8.659  21.771  0.00  0.00    +0.000 OA
BRANCH  19  21
ATOM     21  C   UNL     1       1.173  10.083  19.926  0.00  0.00    +0.000 C 
BRANCH  21  22
ATOM     22  C   UNL     1      -0.138  10.529  19.327  0.00  0.00    +0.000 A 
ATOM     23  C   UNL     1      -0.688   9.781  18.273  0.00  0.00    +0.000 A 
ATOM     24  C   UNL     1      -1.882  10.170  17.666  0.00  0.00    +0.000 A 
ATOM     25  C   UNL     1      -2.552  11.305  18.116  0.00  0.00    +0.000 A 
ATOM     26  C   UNL     1      -2.050  12.021  19.200  0.00  0.00    +0.000 A 
ATOM     27  C   UNL     1      -0.860  11.626  19.816  0.00  0.00    +0.000 A 
ENDBRANCH  21  22
ENDBRANCH  19  21
ENDBRANCH   4  19
TORSDOF 4
ENDMDL
