MODEL 1
REMARK VINA RESULT:      -7.4      0.000      0.000
REMARK  Name = 
REMARK  10 active torsions:
REMARK  status: ('A' for Active; 'I' for Inactive)
REMARK    1  A    between atoms: C_1  and  O_2
REMARK    2  A    between atoms: O_2  and  C_3
REMARK    3  A    between atoms: C_3  and  C_4
REMARK    4  A    between atoms: C_3  and  O_26
REMARK    5  A    between atoms: C_4  and  N_5
REMARK    6  A    between atoms: C_6  and  C_8
REMARK    7  A    between atoms: N_10  and  C_11
REMARK    8  A    between atoms: C_11  and  C_12
REMARK    9  A    between atoms: C_17  and  C_19
REMARK   10  A    between atoms: O_26  and  C_27
REMARK                            x       y       z     vdW  Elec       q    Type
REMARK                         _______ _______ _______ _____ _____    ______ ____
ROOT
ATOM      1  C   UNL     1       2.026   5.950  19.923  0.00  0.00    +0.000 C 
ENDROOT
BRANCH   1   2
ATOM      2  C   UNL     1       2.903   4.820  20.503  0.00  0.00    +0.000 C 
ATOM      3  O   UNL     1       2.164   4.210  21.589  0.00  0.00    +0.000 OA
ATOM      4  C   UNL     1       1.870   2.849  21.230  0.00  0.00    +0.000 C 
ATOM      5  C   UNL     1       2.177   2.723  19.760  0.00  0.00    +0.000 C 
ATOM      6  N   UNL     1       3.167   3.749  19.561  0.00  0.00    +0.000 N 
ATOM      7  C   UNL     1       3.959   3.725  18.424  0.00  0.00    +0.000 C 
ATOM      8  O   UNL     1       3.838   2.849  17.566  0.00  0.00    +0.000 OA
BRANCH   7   9
ATOM      9  C   UNL     1       4.990   4.776  18.189  0.00  0.00    +0.000 A 
ATOM     10  C   UNL     1       6.221   4.785  18.848  0.00  0.00    +0.000 A 
ATOM     11  C   UNL     1       7.116   5.837  18.663  0.00  0.00    +0.000 A 
ATOM     12  C   UNL     1       6.826   6.840  17.741  0.00  0.00    +0.000 A 
ATOM     13 CL   UNL     1       7.942   8.129  17.505  0.00  0.00    +0.000 Cl
ATOM     14  C   UNL     1       5.654   6.789  16.994  0.00  0.00    +0.000 A 
ATOM     15  C   UNL     1       4.732   5.761  17.221  0.00  0.00    +0.000 A 
ENDBRANCH   7   9
ENDBRANCH   1   2
BRANCH   1  18
ATOM     16  C   UNL     1       1.442   8.269  20.597  0.00  0.00    +0.000 C 
ATOM     17  O   UNL     1       1.532   8.752  19.481  0.00  0.00    +0.000 OA
ATOM     18  N   UNL     1       1.646   6.945  20.914  0.00  0.00    +0.000 N 
ATOM     19  H   UNL     1       1.700   6.718  21.904  0.00  0.00    +0.000 HD
BRANCH  16  21
ATOM     20  N   UNL     1      -0.222   9.613  21.813  0.00  0.00    +0.000 N 
ATOM     21  C   UNL     1       1.069   9.145  21.821  0.00  0.00    +0.000 C 
ATOM     22  O   UNL     1       1.898   9.358  22.697  0.00  0.00    +0.000 OA
ATOM     23  H   UNL     1      -0.793   9.443  20.986  0.00  0.00    +0.000 HD
BRANCH  20  24
ATOM     24  C   UNL     1      -0.728  10.500  22.847  0.00  0.00    +0.000 C 
BRANCH  24  25
ATOM     25  C   UNL     1      -1.043  11.925  22.331  0.00  0.00    +0.000 C 
BRANCH  25  27
ATOM     26  C   UNL     1      -0.161  14.142  22.479  0.00  0.00    +0.000 C 
ATOM     27  O   UNL     1      -0.487  12.945  23.164  0.00  0.00    +0.000 OA
ENDBRANCH  25  27
BRANCH  25  28
ATOM     28  O   UNL     1      -2.470  12.067  22.298  0.00  0.00    +0.000 OA
ATOM     29  C   UNL     1      -3.035  12.126  23.601  0.00  0.00    +0.000 C 
ENDBRANCH  25  28
ENDBRANCH  24  25
ENDBRANCH  20  24
ENDBRANCH  16  21
ENDBRANCH   1  18
TORSDOF 8
ENDMDL
MODEL 2
REMARK VINA RESULT:      -7.4      5.677     10.007
REMARK  Name = 
REMARK  10 active torsions:
REMARK  status: ('A' for Active; 'I' for Inactive)
REMARK    1  A    between atoms: C_1  and  O_2
REMARK    2  A    between atoms: O_2  and  C_3
REMARK    3  A    between atoms: C_3  and  C_4
REMARK    4  A    between atoms: C_3  and  O_26
REMARK    5  A    between atoms: C_4  and  N_5
REMARK    6  A    between atoms: C_6  and  C_8
REMARK    7  A    between atoms: N_10  and  C_11
REMARK    8  A    between atoms: C_11  and  C_12
REMARK    9  A    between atoms: C_17  and  C_19
REMARK   10  A    between atoms: O_26  and  C_27
REMARK                            x       y       z     vdW  Elec       q    Type
REMARK                         _______ _______ _______ _____ _____    ______ ____
ROOT
ATOM      1  C   UNL     1       7.323   4.551  18.048  0.00  0.00    +0.000 C 
ENDROOT
BRANCH   1   2
ATOM      2  C   UNL     1       6.940   5.867  18.759  0.00  0.00    +0.000 C 
ATOM      3  O   UNL     1       8.165   6.599  19.007  0.00  0.00    +0.000 OA
ATOM      4  C   UNL     1       8.129   7.816  18.244  0.00  0.00    +0.000 C 
ATOM      5  C   UNL     1       6.985   7.674  17.272  0.00  0.00    +0.000 C 
ATOM      6  N   UNL     1       6.117   6.746  17.950  0.00  0.00    +0.000 N 
ATOM      7  C   UNL     1       4.796   6.626  17.549  0.00  0.00    +0.000 C 
ATOM      8  O   UNL     1       4.337   7.290  16.618  0.00  0.00    +0.000 OA
BRANCH   7   9
ATOM      9  C   UNL     1       3.875   5.670  18.229  0.00  0.00    +0.000 A 
ATOM     10  C   UNL     1       3.177   4.677  17.539  0.00  0.00    +0.000 A 
ATOM     11  C   UNL     1       2.259   3.865  18.203  0.00  0.00    +0.000 A 
ATOM     12  C   UNL     1       2.106   3.977  19.583  0.00  0.00    +0.000 A 
ATOM     13 CL   UNL     1       0.982   2.962  20.400  0.00  0.00    +0.000 Cl
ATOM     14  C   UNL     1       2.874   4.886  20.303  0.00  0.00    +0.000 A 
ATOM     15  C   UNL     1       3.755   5.738  19.627  0.00  0.00    +0.000 A 
ENDBRANCH   7   9
ENDBRANCH   1   2
BRANCH   1  18
ATOM     16  C   UNL     1       6.508   4.102  15.744  0.00  0.00    +0.000 C 
ATOM     17  O   UNL     1       5.543   3.436  16.079  0.00  0.00    +0.000 OA
ATOM     18  N   UNL     1       7.412   4.687  16.602  0.00  0.00    +0.000 N 
ATOM     19  H   UNL     1       8.255   5.071  16.182  0.00  0.00    +0.000 HD
BRANCH  16  21
ATOM     20  N   UNL     1       6.344   3.403  13.392  0.00  0.00    +0.000 N 
ATOM     21  C   UNL     1       6.820   4.365  14.248  0.00  0.00    +0.000 C 
ATOM     22  O   UNL     1       7.435   5.371  13.918  0.00  0.00    +0.000 OA
ATOM     23  H   UNL     1       5.923   2.565  13.790  0.00  0.00    +0.000 HD
BRANCH  20  24
ATOM     24  C   UNL     1       6.596   3.451  11.961  0.00  0.00    +0.000 C 
BRANCH  24  25
ATOM     25  C   UNL     1       5.443   2.857  11.115  0.00  0.00    +0.000 C 
BRANCH  25  27
ATOM     26  C   UNL     1       3.281   3.511  10.334  0.00  0.00    +0.000 C 
ATOM     27  O   UNL     1       4.176   3.439  11.431  0.00  0.00    +0.000 OA
ENDBRANCH  25  27
BRANCH  25  28
ATOM     28  O   UNL     1       5.396   1.448  11.378  0.00  0.00    +0.000 OA
ATOM     29  C   UNL     1       6.602   0.791  11.010  0.00  0.00    +0.000 C 
ENDBRANCH  25  28
ENDBRANCH  24  25
ENDBRANCH  20  24
ENDBRANCH  16  21
ENDBRANCH   1  18
TORSDOF 8
ENDMDL
MODEL 3
REMARK VINA RESULT:      -7.3      4.239      9.556
REMARK  Name = 
REMARK  10 active torsions:
REMARK  status: ('A' for Active; 'I' for Inactive)
REMARK    1  A    between atoms: C_1  and  O_2
REMARK    2  A    between atoms: O_2  and  C_3
REMARK    3  A    between atoms: C_3  and  C_4
REMARK    4  A    between atoms: C_3  and  O_26
REMARK    5  A    between atoms: C_4  and  N_5
REMARK    6  A    between atoms: C_6  and  C_8
REMARK    7  A    between atoms: N_10  and  C_11
REMARK    8  A    between atoms: C_11  and  C_12
REMARK    9  A    between atoms: C_17  and  C_19
REMARK   10  A    between atoms: O_26  and  C_27
REMARK                            x       y       z     vdW  Elec       q    Type
REMARK                         _______ _______ _______ _____ _____    ______ ____
ROOT
ATOM      1  C   UNL     1       4.928   4.462  17.874  0.00  0.00    +0.000 C 
ENDROOT
BRANCH   1   2
ATOM      2  C   UNL     1       3.502   3.875  17.959  0.00  0.00    +0.000 C 
ATOM      3  O   UNL     1       3.566   2.509  17.484  0.00  0.00    +0.000 OA
ATOM      4  C   UNL     1       3.239   1.633  18.576  0.00  0.00    +0.000 C 
ATOM      5  C   UNL     1       3.274   2.479  19.823  0.00  0.00    +0.000 C 
ATOM      6  N   UNL     1       2.988   3.794  19.313  0.00  0.00    +0.000 N 
ATOM      7  C   UNL     1       2.585   4.794  20.184  0.00  0.00    +0.000 C 
ATOM      8  O   UNL     1       2.468   4.593  21.394  0.00  0.00    +0.000 OA
BRANCH   7   9
ATOM      9  C   UNL     1       2.286   6.167  19.686  0.00  0.00    +0.000 A 
ATOM     10  C   UNL     1       2.469   6.541  18.353  0.00  0.00    +0.000 A 
ATOM     11  C   UNL     1       2.261   7.860  17.952  0.00  0.00    +0.000 A 
ATOM     12  C   UNL     1       1.774   8.793  18.864  0.00  0.00    +0.000 A 
ATOM     13 CL   UNL     1       1.506  10.417  18.360  0.00  0.00    +0.000 Cl
ATOM     14  C   UNL     1       1.481   8.412  20.169  0.00  0.00    +0.000 A 
ATOM     15  C   UNL     1       1.742   7.101  20.584  0.00  0.00    +0.000 A 
ENDBRANCH   7   9
ENDBRANCH   1   2
BRANCH   1  18
ATOM     16  C   UNL     1       6.781   4.538  16.221  0.00  0.00    +0.000 C 
ATOM     17  O   UNL     1       7.683   4.462  17.039  0.00  0.00    +0.000 OA
ATOM     18  N   UNL     1       5.436   4.536  16.513  0.00  0.00    +0.000 N 
ATOM     19  H   UNL     1       4.805   4.771  15.751  0.00  0.00    +0.000 HD
BRANCH  16  21
ATOM     20  N   UNL     1       6.415   3.736  13.925  0.00  0.00    +0.000 N 
ATOM     21  C   UNL     1       7.082   4.649  14.704  0.00  0.00    +0.000 C 
ATOM     22  O   UNL     1       7.851   5.508  14.294  0.00  0.00    +0.000 OA
ATOM     23  H   UNL     1       5.869   3.011  14.389  0.00  0.00    +0.000 HD
BRANCH  20  24
ATOM     24  C   UNL     1       6.622   3.650  12.489  0.00  0.00    +0.000 C 
BRANCH  24  25
ATOM     25  C   UNL     1       5.681   2.636  11.794  0.00  0.00    +0.000 C 
BRANCH  25  27
ATOM     26  C   UNL     1       6.103   0.344  11.261  0.00  0.00    +0.000 C 
ATOM     27  O   UNL     1       6.388   1.703  10.975  0.00  0.00    +0.000 OA
ENDBRANCH  25  27
BRANCH  25  28
ATOM     28  O   UNL     1       4.767   3.384  10.979  0.00  0.00    +0.000 OA
ATOM     29  C   UNL     1       3.420   2.967  11.160  0.00  0.00    +0.000 C 
ENDBRANCH  25  28
ENDBRANCH  24  25
ENDBRANCH  20  24
ENDBRANCH  16  21
ENDBRANCH   1  18
TORSDOF 8
ENDMDL
MODEL 4
REMARK VINA RESULT:      -7.1      0.705      1.523
REMARK  Name = 
REMARK  10 active torsions:
REMARK  status: ('A' for Active; 'I' for Inactive)
REMARK    1  A    between atoms: C_1  and  O_2
REMARK    2  A    between atoms: O_2  and  C_3
REMARK    3  A    between atoms: C_3  and  C_4
REMARK    4  A    between atoms: C_3  and  O_26
REMARK    5  A    between atoms: C_4  and  N_5
REMARK    6  A    between atoms: C_6  and  C_8
REMARK    7  A    between atoms: N_10  and  C_11
REMARK    8  A    between atoms: C_11  and  C_12
REMARK    9  A    between atoms: C_17  and  C_19
REMARK   10  A    between atoms: O_26  and  C_27
REMARK                            x       y       z     vdW  Elec       q    Type
REMARK                         _______ _______ _______ _____ _____    ______ ____
ROOT
ATOM      1  C   UNL     1       1.930   5.939  19.992  0.00  0.00    +0.000 C 
ENDROOT
BRANCH   1   2
ATOM      2  C   UNL     1       2.878   4.866  20.570  0.00  0.00    +0.000 C 
ATOM      3  O   UNL     1       2.186   4.220  21.665  0.00  0.00    +0.000 OA
ATOM      4  C   UNL     1       1.971   2.841  21.316  0.00  0.00    +0.000 C 
ATOM      5  C   UNL     1       2.273   2.726  19.844  0.00  0.00    +0.000 C 
ATOM      6  N   UNL     1       3.198   3.808  19.631  0.00  0.00    +0.000 N 
ATOM      7  C   UNL     1       3.980   3.825  18.487  0.00  0.00    +0.000 C 
ATOM      8  O   UNL     1       3.904   2.938  17.635  0.00  0.00    +0.000 OA
BRANCH   7   9
ATOM      9  C   UNL     1       4.944   4.935  18.238  0.00  0.00    +0.000 A 
ATOM     10  C   UNL     1       4.675   5.983  17.355  0.00  0.00    +0.000 A 
ATOM     11  C   UNL     1       5.642   6.950  17.086  0.00  0.00    +0.000 A 
ATOM     12  C   UNL     1       6.852   6.929  17.774  0.00  0.00    +0.000 A 
ATOM     13 CL   UNL     1       8.038   8.134  17.449  0.00  0.00    +0.000 Cl
ATOM     14  C   UNL     1       7.095   5.956  18.739  0.00  0.00    +0.000 A 
ATOM     15  C   UNL     1       6.144   4.955  18.968  0.00  0.00    +0.000 A 
ENDBRANCH   7   9
ENDBRANCH   1   2
BRANCH   1  18
ATOM     16  C   UNL     1       1.425   8.294  20.600  0.00  0.00    +0.000 C 
ATOM     17  O   UNL     1       1.535   8.743  19.472  0.00  0.00    +0.000 OA
ATOM     18  N   UNL     1       1.583   6.973  20.954  0.00  0.00    +0.000 N 
ATOM     19  H   UNL     1       1.626   6.772  21.951  0.00  0.00    +0.000 HD
BRANCH  16  21
ATOM     20  N   UNL     1      -0.145   9.830  21.708  0.00  0.00    +0.000 N 
ATOM     21  C   UNL     1       1.080   9.216  21.799  0.00  0.00    +0.000 C 
ATOM     22  O   UNL     1       1.871   9.338  22.725  0.00  0.00    +0.000 OA
ATOM     23  H   UNL     1      -0.679   9.722  20.847  0.00  0.00    +0.000 HD
BRANCH  20  24
ATOM     24  C   UNL     1      -0.610  10.777  22.708  0.00  0.00    +0.000 C 
BRANCH  24  25
ATOM     25  C   UNL     1      -0.802  12.209  22.154  0.00  0.00    +0.000 C 
BRANCH  25  27
ATOM     26  C   UNL     1      -2.816  12.041  23.430  0.00  0.00    +0.000 C 
ATOM     27  O   UNL     1      -1.897  12.893  22.768  0.00  0.00    +0.000 OA
ENDBRANCH  25  27
BRANCH  25  28
ATOM     28  O   UNL     1      -1.044  12.097  20.744  0.00  0.00    +0.000 OA
ATOM     29  C   UNL     1      -0.652  13.267  20.037  0.00  0.00    +0.000 C 
ENDBRANCH  25  28
ENDBRANCH  24  25
ENDBRANCH  20  24
ENDBRANCH  16  21
ENDBRANCH   1  18
TORSDOF 8
ENDMDL
MODEL 5
REMARK VINA RESULT:      -7.0      5.512      8.024
REMARK  Name = 
REMARK  10 active torsions:
REMARK  status: ('A' for Active; 'I' for Inactive)
REMARK    1  A    between atoms: C_1  and  O_2
REMARK    2  A    between atoms: O_2  and  C_3
REMARK    3  A    between atoms: C_3  and  C_4
REMARK    4  A    between atoms: C_3  and  O_26
REMARK    5  A    between atoms: C_4  and  N_5
REMARK    6  A    between atoms: C_6  and  C_8
REMARK    7  A    between atoms: N_10  and  C_11
REMARK    8  A    between atoms: C_11  and  C_12
REMARK    9  A    between atoms: C_17  and  C_19
REMARK   10  A    between atoms: O_26  and  C_27
REMARK                            x       y       z     vdW  Elec       q    Type
REMARK                         _______ _______ _______ _____ _____    ______ ____
ROOT
ATOM      1  C   UNL     1       7.007   5.927  16.976  0.00  0.00    +0.000 C 
ENDROOT
BRANCH   1   2
ATOM      2  C   UNL     1       5.919   5.725  15.899  0.00  0.00    +0.000 C 
ATOM      3  O   UNL     1       6.590   5.614  14.620  0.00  0.00    +0.000 OA
ATOM      4  C   UNL     1       6.362   4.292  14.102  0.00  0.00    +0.000 C 
ATOM      5  C   UNL     1       5.791   3.484  15.239  0.00  0.00    +0.000 C 
ATOM      6  N   UNL     1       5.169   4.494  16.055  0.00  0.00    +0.000 N 
ATOM      7  C   UNL     1       4.235   4.124  17.010  0.00  0.00    +0.000 C 
ATOM      8  O   UNL     1       3.921   2.946  17.189  0.00  0.00    +0.000 OA
BRANCH   7   9
ATOM      9  C   UNL     1       3.578   5.147  17.873  0.00  0.00    +0.000 A 
ATOM     10  C   UNL     1       3.404   6.472  17.470  0.00  0.00    +0.000 A 
ATOM     11  C   UNL     1       2.865   7.414  18.345  0.00  0.00    +0.000 A 
ATOM     12  C   UNL     1       2.407   7.013  19.598  0.00  0.00    +0.000 A 
ATOM     13 CL   UNL     1       1.729   8.178  20.669  0.00  0.00    +0.000 Cl
ATOM     14  C   UNL     1       2.471   5.676  19.974  0.00  0.00    +0.000 A 
ATOM     15  C   UNL     1       3.062   4.742  19.115  0.00  0.00    +0.000 A 
ENDBRANCH   7   9
ENDBRANCH   1   2
BRANCH   1  18
ATOM     16  C   UNL     1       8.087   7.761  18.258  0.00  0.00    +0.000 C 
ATOM     17  O   UNL     1       8.503   7.056  19.161  0.00  0.00    +0.000 OA
ATOM     18  N   UNL     1       7.373   7.322  17.165  0.00  0.00    +0.000 N 
ATOM     19  H   UNL     1       6.950   8.039  16.580  0.00  0.00    +0.000 HD
BRANCH  16  21
ATOM     20  N   UNL     1       9.330   9.705  19.108  0.00  0.00    +0.000 N 
ATOM     21  C   UNL     1       8.337   9.292  18.255  0.00  0.00    +0.000 C 
ATOM     22  O   UNL     1       7.679  10.018  17.523  0.00  0.00    +0.000 OA
ATOM     23  H   UNL     1       9.749   9.019  19.734  0.00  0.00    +0.000 HD
BRANCH  20  24
ATOM     24  C   UNL     1       9.660  11.110  19.285  0.00  0.00    +0.000 C 
BRANCH  24  25
ATOM     25  C   UNL     1      10.568  11.672  18.164  0.00  0.00    +0.000 C 
BRANCH  25  27
ATOM     26  C   UNL     1      12.332  11.812  19.772  0.00  0.00    +0.000 C 
ATOM     27  O   UNL     1      11.670  12.424  18.677  0.00  0.00    +0.000 OA
ENDBRANCH  25  27
BRANCH  25  28
ATOM     28  O   UNL     1       9.759  12.521  17.338  0.00  0.00    +0.000 OA
ATOM     29  C   UNL     1       9.270  13.653  18.046  0.00  0.00    +0.000 C 
ENDBRANCH  25  28
ENDBRANCH  24  25
ENDBRANCH  20  24
ENDBRANCH  16  21
ENDBRANCH   1  18
TORSDOF 8
ENDMDL
MODEL 6
REMARK VINA RESULT:      -6.9      1.092      1.489
REMARK  Name = 
REMARK  10 active torsions:
REMARK  status: ('A' for Active; 'I' for Inactive)
REMARK    1  A    between atoms: C_1  and  O_2
REMARK    2  A    between atoms: O_2  and  C_3
REMARK    3  A    between atoms: C_3  and  C_4
REMARK    4  A    between atoms: C_3  and  O_26
REMARK    5  A    between atoms: C_4  and  N_5
REMARK    6  A    between atoms: C_6  and  C_8
REMARK    7  A    between atoms: N_10  and  C_11
REMARK    8  A    between atoms: C_11  and  C_12
REMARK    9  A    between atoms: C_17  and  C_19
REMARK   10  A    between atoms: O_26  and  C_27
REMARK                            x       y       z     vdW  Elec       q    Type
REMARK                         _______ _______ _______ _____ _____    ______ ____
ROOT
ATOM      1  C   UNL     1       2.015   5.716  19.776  0.00  0.00    +0.000 C 
ENDROOT
BRANCH   1   2
ATOM      2  C   UNL     1       2.947   4.719  20.497  0.00  0.00    +0.000 C 
ATOM      3  O   UNL     1       2.202   4.151  21.602  0.00  0.00    +0.000 OA
ATOM      4  C   UNL     1       2.034   2.744  21.361  0.00  0.00    +0.000 C 
ATOM      5  C   UNL     1       2.424   2.511  19.924  0.00  0.00    +0.000 C 
ATOM      6  N   UNL     1       3.340   3.592  19.673  0.00  0.00    +0.000 N 
ATOM      7  C   UNL     1       4.189   3.531  18.578  0.00  0.00    +0.000 C 
ATOM      8  O   UNL     1       4.180   2.574  17.802  0.00  0.00    +0.000 OA
BRANCH   7   9
ATOM      9  C   UNL     1       5.146   4.638  18.290  0.00  0.00    +0.000 A 
ATOM     10  C   UNL     1       6.373   4.761  18.944  0.00  0.00    +0.000 A 
ATOM     11  C   UNL     1       7.195   5.862  18.706  0.00  0.00    +0.000 A 
ATOM     12  C   UNL     1       6.836   6.798  17.739  0.00  0.00    +0.000 A 
ATOM     13 CL   UNL     1       7.862   8.148  17.439  0.00  0.00    +0.000 Cl
ATOM     14  C   UNL     1       5.670   6.632  17.000  0.00  0.00    +0.000 A 
ATOM     15  C   UNL     1       4.820   5.556  17.278  0.00  0.00    +0.000 A 
ENDBRANCH   7   9
ENDBRANCH   1   2
BRANCH   1  18
ATOM     16  C   UNL     1       1.619   8.146  20.115  0.00  0.00    +0.000 C 
ATOM     17  O   UNL     1       1.864   8.475  18.967  0.00  0.00    +0.000 OA
ATOM     18  N   UNL     1       1.651   6.858  20.601  0.00  0.00    +0.000 N 
ATOM     19  H   UNL     1       1.586   6.751  21.611  0.00  0.00    +0.000 HD
BRANCH  16  21
ATOM     20  N   UNL     1       0.602  10.313  20.681  0.00  0.00    +0.000 N 
ATOM     21  C   UNL     1       1.227   9.198  21.184  0.00  0.00    +0.000 C 
ATOM     22  O   UNL     1       1.471   8.991  22.365  0.00  0.00    +0.000 OA
ATOM     23  H   UNL     1       0.532  10.414  19.670  0.00  0.00    +0.000 HD
BRANCH  20  24
ATOM     24  C   UNL     1       0.219  11.431  21.528  0.00  0.00    +0.000 C 
BRANCH  24  25
ATOM     25  C   UNL     1      -1.039  12.179  21.023  0.00  0.00    +0.000 C 
BRANCH  25  27
ATOM     26  C   UNL     1      -1.799  11.482  23.180  0.00  0.00    +0.000 C 
ATOM     27  O   UNL     1      -2.115  12.137  21.963  0.00  0.00    +0.000 OA
ENDBRANCH  25  27
BRANCH  25  28
ATOM     28  O   UNL     1      -1.453  11.552  19.801  0.00  0.00    +0.000 OA
ATOM     29  C   UNL     1      -1.362  12.433  18.688  0.00  0.00    +0.000 C 
ENDBRANCH  25  28
ENDBRANCH  24  25
ENDBRANCH  20  24
ENDBRANCH  16  21
ENDBRANCH   1  18
TORSDOF 8
ENDMDL
MODEL 7
REMARK VINA RESULT:      -6.8      0.886      1.444
REMARK  Name = 
REMARK  10 active torsions:
REMARK  status: ('A' for Active; 'I' for Inactive)
REMARK    1  A    between atoms: C_1  and  O_2
REMARK    2  A    between atoms: O_2  and  C_3
REMARK    3  A    between atoms: C_3  and  C_4
REMARK    4  A    between atoms: C_3  and  O_26
REMARK    5  A    between atoms: C_4  and  N_5
REMARK    6  A    between atoms: C_6  and  C_8
REMARK    7  A    between atoms: N_10  and  C_11
REMARK    8  A    between atoms: C_11  and  C_12
REMARK    9  A    between atoms: C_17  and  C_19
REMARK   10  A    between atoms: O_26  and  C_27
REMARK                            x       y       z     vdW  Elec       q    Type
REMARK                         _______ _______ _______ _____ _____    ______ ____
ROOT
ATOM      1  C   UNL     1       1.918   5.659  19.853  0.00  0.00    +0.000 C 
ENDROOT
BRANCH   1   2
ATOM      2  C   UNL     1       2.908   4.710  20.562  0.00  0.00    +0.000 C 
ATOM      3  O   UNL     1       2.206   4.102  21.673  0.00  0.00    +0.000 OA
ATOM      4  C   UNL     1       2.108   2.688  21.428  0.00  0.00    +0.000 C 
ATOM      5  C   UNL     1       2.496   2.479  19.987  0.00  0.00    +0.000 C 
ATOM      6  N   UNL     1       3.351   3.608  19.730  0.00  0.00    +0.000 N 
ATOM      7  C   UNL     1       4.191   3.594  18.627  0.00  0.00    +0.000 C 
ATOM      8  O   UNL     1       4.225   2.639  17.848  0.00  0.00    +0.000 OA
BRANCH   7   9
ATOM      9  C   UNL     1       5.086   4.750  18.333  0.00  0.00    +0.000 A 
ATOM     10  C   UNL     1       4.744   5.755  17.427  0.00  0.00    +0.000 A 
ATOM     11  C   UNL     1       5.650   6.768  17.118  0.00  0.00    +0.000 A 
ATOM     12  C   UNL     1       6.869   6.836  17.787  0.00  0.00    +0.000 A 
ATOM     13 CL   UNL     1       7.978   8.098  17.412  0.00  0.00    +0.000 Cl
ATOM     14  C   UNL     1       7.181   5.906  18.773  0.00  0.00    +0.000 A 
ATOM     15  C   UNL     1       6.293   4.858  19.043  0.00  0.00    +0.000 A 
ENDBRANCH   7   9
ENDBRANCH   1   2
BRANCH   1  18
ATOM     16  C   UNL     1       1.605   8.102  20.182  0.00  0.00    +0.000 C 
ATOM     17  O   UNL     1       1.934   8.425  19.053  0.00  0.00    +0.000 OA
ATOM     18  N   UNL     1       1.553   6.812  20.661  0.00  0.00    +0.000 N 
ATOM     19  H   UNL     1       1.422   6.705  21.665  0.00  0.00    +0.000 HD
BRANCH  16  21
ATOM     20  N   UNL     1       0.638  10.304  20.700  0.00  0.00    +0.000 N 
ATOM     21  C   UNL     1       1.193   9.166  21.232  0.00  0.00    +0.000 C 
ATOM     22  O   UNL     1       1.363   8.948  22.424  0.00  0.00    +0.000 OA
ATOM     23  H   UNL     1       0.628  10.409  19.686  0.00  0.00    +0.000 HD
BRANCH  20  24
ATOM     24  C   UNL     1       0.250  11.434  21.528  0.00  0.00    +0.000 C 
BRANCH  24  25
ATOM     25  C   UNL     1      -1.278  11.535  21.751  0.00  0.00    +0.000 C 
BRANCH  25  27
ATOM     26  C   UNL     1      -2.283  12.324  19.730  0.00  0.00    +0.000 C 
ATOM     27  O   UNL     1      -1.863  12.634  21.049  0.00  0.00    +0.000 OA
ENDBRANCH  25  27
BRANCH  25  28
ATOM     28  O   UNL     1      -1.499  11.700  23.158  0.00  0.00    +0.000 OA
ATOM     29  C   UNL     1      -2.821  12.137  23.448  0.00  0.00    +0.000 C 
ENDBRANCH  25  28
ENDBRANCH  24  25
ENDBRANCH  20  24
ENDBRANCH  16  21
ENDBRANCH   1  18
TORSDOF 8
ENDMDL
MODEL 8
REMARK VINA RESULT:      -6.8      4.132      7.399
REMARK  Name = 
REMARK  10 active torsions:
REMARK  status: ('A' for Active; 'I' for Inactive)
REMARK    1  A    between atoms: C_1  and  O_2
REMARK    2  A    between atoms: O_2  and  C_3
REMARK    3  A    between atoms: C_3  and  C_4
REMARK    4  A    between atoms: C_3  and  O_26
REMARK    5  A    between atoms: C_4  and  N_5
REMARK    6  A    between atoms: C_6  and  C_8
REMARK    7  A    between atoms: N_10  and  C_11
REMARK    8  A    between atoms: C_11  and  C_12
REMARK    9  A    between atoms: C_17  and  C_19
REMARK   10  A    between atoms: O_26  and  C_27
REMARK                            x       y       z     vdW  Elec       q    Type
REMARK                         _______ _______ _______ _____ _____    ______ ____
ROOT
ATOM      1  C   UNL     1       5.386   4.713  19.347  0.00  0.00    +0.000 C 
ENDROOT
BRANCH   1   2
ATOM      2  C   UNL     1       4.173   4.085  18.626  0.00  0.00    +0.000 C 
ATOM      3  O   UNL     1       4.573   2.771  18.169  0.00  0.00    +0.000 OA
ATOM      4  C   UNL     1       3.784   1.789  18.863  0.00  0.00    +0.000 C 
ATOM      5  C   UNL     1       3.099   2.517  19.992  0.00  0.00    +0.000 C 
ATOM      6  N   UNL     1       3.032   3.866  19.494  0.00  0.00    +0.000 N 
ATOM      7  C   UNL     1       2.162   4.771  20.083  0.00  0.00    +0.000 C 
ATOM      8  O   UNL     1       1.442   4.456  21.032  0.00  0.00    +0.000 OA
BRANCH   7   9
ATOM      9  C   UNL     1       2.074   6.176  19.592  0.00  0.00    +0.000 A 
ATOM     10  C   UNL     1       2.324   6.527  18.264  0.00  0.00    +0.000 A 
ATOM     11  C   UNL     1       2.317   7.865  17.871  0.00  0.00    +0.000 A 
ATOM     12  C   UNL     1       1.963   8.854  18.786  0.00  0.00    +0.000 A 
ATOM     13 CL   UNL     1       1.941  10.502  18.292  0.00  0.00    +0.000 Cl
ATOM     14  C   UNL     1       1.603   8.511  20.085  0.00  0.00    +0.000 A 
ATOM     15  C   UNL     1       1.663   7.174  20.492  0.00  0.00    +0.000 A 
ENDBRANCH   7   9
ENDBRANCH   1   2
BRANCH   1  18
ATOM     16  C   UNL     1       7.352   6.077  18.678  0.00  0.00    +0.000 C 
ATOM     17  O   UNL     1       8.162   5.477  19.364  0.00  0.00    +0.000 OA
ATOM     18  N   UNL     1       6.009   5.787  18.590  0.00  0.00    +0.000 N 
ATOM     19  H   UNL     1       5.426   6.471  18.111  0.00  0.00    +0.000 HD
BRANCH  16  21
ATOM     20  N   UNL     1       8.141   8.400  18.506  0.00  0.00    +0.000 N 
ATOM     21  C   UNL     1       7.781   7.280  17.798  0.00  0.00    +0.000 C 
ATOM     22  O   UNL     1       7.790   7.174  16.579  0.00  0.00    +0.000 OA
ATOM     23  H   UNL     1       8.009   8.399  19.516  0.00  0.00    +0.000 HD
BRANCH  20  24
ATOM     24  C   UNL     1       8.511   9.643  17.847  0.00  0.00    +0.000 C 
BRANCH  24  25
ATOM     25  C   UNL     1       9.561  10.464  18.635  0.00  0.00    +0.000 C 
BRANCH  25  27
ATOM     26  C   UNL     1       9.296  11.080  20.929  0.00  0.00    +0.000 C 
ATOM     27  O   UNL     1       8.963  11.356  19.579  0.00  0.00    +0.000 OA
ENDBRANCH  25  27
BRANCH  25  28
ATOM     28  O   UNL     1      10.319  11.222  17.682  0.00  0.00    +0.000 OA
ATOM     29  C   UNL     1      11.533  11.716  18.232  0.00  0.00    +0.000 C 
ENDBRANCH  25  28
ENDBRANCH  24  25
ENDBRANCH  20  24
ENDBRANCH  16  21
ENDBRANCH   1  18
TORSDOF 8
ENDMDL
MODEL 9
REMARK VINA RESULT:      -6.8      4.120      9.369
REMARK  Name = 
REMARK  10 active torsions:
REMARK  status: ('A' for Active; 'I' for Inactive)
REMARK    1  A    between atoms: C_1  and  O_2
REMARK    2  A    between atoms: O_2  and  C_3
REMARK    3  A    between atoms: C_3  and  C_4
REMARK    4  A    between atoms: C_3  and  O_26
REMARK    5  A    between atoms: C_4  and  N_5
REMARK    6  A    between atoms: C_6  and  C_8
REMARK    7  A    between atoms: N_10  and  C_11
REMARK    8  A    between atoms: C_11  and  C_12
REMARK    9  A    between atoms: C_17  and  C_19
REMARK   10  A    between atoms: O_26  and  C_27
REMARK                            x       y       z     vdW  Elec       q    Type
REMARK                         _______ _______ _______ _____ _____    ______ ____
ROOT
ATOM      1  C   UNL     1       4.846   4.807  18.100  0.00  0.00    +0.000 C 
ENDROOT
BRANCH   1   2
ATOM      2  C   UNL     1       3.411   4.239  18.109  0.00  0.00    +0.000 C 
ATOM      3  O   UNL     1       3.469   2.904  17.552  0.00  0.00    +0.000 OA
ATOM      4  C   UNL     1       3.098   1.968  18.578  0.00  0.00    +0.000 C 
ATOM      5  C   UNL     1       3.109   2.735  19.876  0.00  0.00    +0.000 C 
ATOM      6  N   UNL     1       2.857   4.083  19.440  0.00  0.00    +0.000 N 
ATOM      7  C   UNL     1       2.443   5.034  20.360  0.00  0.00    +0.000 C 
ATOM      8  O   UNL     1       2.288   4.761  21.552  0.00  0.00    +0.000 OA
BRANCH   7   9
ATOM      9  C   UNL     1       2.177   6.440  19.939  0.00  0.00    +0.000 A 
ATOM     10  C   UNL     1       1.660   7.402  20.809  0.00  0.00    +0.000 A 
ATOM     11  C   UNL     1       1.345   8.679  20.347  0.00  0.00    +0.000 A 
ATOM     12  C   UNL     1       1.636   9.031  19.031  0.00  0.00    +0.000 A 
ATOM     13 CL   UNL     1       1.258  10.614  18.471  0.00  0.00    +0.000 Cl
ATOM     14  C   UNL     1       2.253   8.120  18.181  0.00  0.00    +0.000 A 
ATOM     15  C   UNL     1       2.519   6.822  18.631  0.00  0.00    +0.000 A 
ENDBRANCH   7   9
ENDBRANCH   1   2
BRANCH   1  18
ATOM     16  C   UNL     1       5.762   5.523  15.904  0.00  0.00    +0.000 C 
ATOM     17  O   UNL     1       5.404   6.686  15.990  0.00  0.00    +0.000 OA
ATOM     18  N   UNL     1       5.556   4.551  16.856  0.00  0.00    +0.000 N 
ATOM     19  H   UNL     1       5.760   3.593  16.580  0.00  0.00    +0.000 HD
BRANCH  16  21
ATOM     20  N   UNL     1       5.773   4.203  13.828  0.00  0.00    +0.000 N 
ATOM     21  C   UNL     1       6.520   5.009  14.652  0.00  0.00    +0.000 C 
ATOM     22  O   UNL     1       7.683   5.338  14.463  0.00  0.00    +0.000 OA
ATOM     23  H   UNL     1       4.842   3.926  14.135  0.00  0.00    +0.000 HD
BRANCH  20  24
ATOM     24  C   UNL     1       6.337   3.579  12.642  0.00  0.00    +0.000 C 
BRANCH  24  25
ATOM     25  C   UNL     1       5.324   2.693  11.876  0.00  0.00    +0.000 C 
BRANCH  25  27
ATOM     26  C   UNL     1       7.377   1.725  11.124  0.00  0.00    +0.000 C 
ATOM     27  O   UNL     1       5.961   1.654  11.129  0.00  0.00    +0.000 OA
ENDBRANCH  25  27
BRANCH  25  28
ATOM     28  O   UNL     1       4.598   3.545  10.979  0.00  0.00    +0.000 OA
ATOM     29  C   UNL     1       3.316   3.021  10.658  0.00  0.00    +0.000 C 
ENDBRANCH  25  28
ENDBRANCH  24  25
ENDBRANCH  20  24
ENDBRANCH  16  21
ENDBRANCH   1  18
TORSDOF 8
ENDMDL
