MODEL 1
REMARK VINA RESULT:      -8.4      0.000      0.000
REMARK  Name = 
REMARK  7 active torsions:
REMARK  status: ('A' for Active; 'I' for Inactive)
REMARK    1  A    between atoms: O_1  and  C_2
REMARK    2  A    between atoms: C_2  and  C_3
REMARK    3  A    between atoms: C_2  and  C_21
REMARK    4  A    between atoms: C_3  and  O_4
REMARK    5  A    between atoms: O_4  and  C_5
REMARK    6  A    between atoms: C_9  and  C_10
REMARK    7  A    between atoms: C_21  and  N_22
REMARK                            x       y       z     vdW  Elec       q    Type
REMARK                         _______ _______ _______ _____ _____    ______ ____
ROOT
ATOM      1  O   UNL     1       2.136   6.488  20.540  0.00  0.00    +0.000 OA
ENDROOT
BRANCH   1   2
ATOM      2  C   UNL     1       1.925   7.627  19.806  0.00  0.00    +0.000 A 
ATOM      3  C   UNL     1       2.416   7.636  18.507  0.00  0.00    +0.000 A 
ATOM      4  C   UNL     1       2.231   8.758  17.702  0.00  0.00    +0.000 A 
ATOM      5  C   UNL     1       1.518   9.862  18.181  0.00  0.00    +0.000 A 
ATOM      6  C   UNL     1       0.965   9.863  19.475  0.00  0.00    +0.000 A 
ATOM      7  C   UNL     1       1.247   8.746  20.286  0.00  0.00    +0.000 A 
BRANCH   6   8
ATOM      8  C   UNL     1      -0.033  10.873  19.924  0.00  0.00    +0.000 A 
ATOM      9  C   UNL     1      -0.980  11.417  19.066  0.00  0.00    +0.000 A 
ATOM     10  N   UNL     1      -2.026  12.189  19.439  0.00  0.00    +0.000 NA
ATOM     11  C   UNL     1      -2.263  12.309  20.756  0.00  0.00    +0.000 A 
ATOM     12  C   UNL     1      -3.431  12.926  21.180  0.00  0.00    +0.000 A 
ATOM     13  C   UNL     1      -3.840  12.867  22.511  0.00  0.00    +0.000 A 
ATOM     14  C   UNL     1      -3.030  12.229  23.454  0.00  0.00    +0.000 A 
ATOM     15  C   UNL     1      -1.789  11.724  23.075  0.00  0.00    +0.000 A 
ATOM     16  C   UNL     1      -1.398  11.760  21.724  0.00  0.00    +0.000 A 
ATOM     17  C   UNL     1      -0.210  11.171  21.286  0.00  0.00    +0.000 A 
ENDBRANCH   6   8
ENDBRANCH   1   2
BRANCH   1  18
ATOM     18  C   UNL     1       1.216   5.412  20.265  0.00  0.00    +0.000 C 
BRANCH  18  19
ATOM     19  C   UNL     1       1.939   4.371  19.402  0.00  0.00    +0.000 C 
BRANCH  19  20
ATOM     20  O   UNL     1       1.006   3.315  19.140  0.00  0.00    +0.000 OA
ATOM     21  H   UNL     1       1.407   2.769  18.437  0.00  0.00    +0.000 HD
ENDBRANCH  19  20
BRANCH  19  22
ATOM     22  C   UNL     1       3.194   3.862  20.155  0.00  0.00    +0.000 C 
BRANCH  22  23
ATOM     23  N   UNL     1       4.499   3.920  19.497  0.00  0.00    +0.000 NA
ATOM     24  C   UNL     1       5.121   5.243  19.376  0.00  0.00    +0.000 C 
ATOM     25  C   UNL     1       6.569   5.099  18.801  0.00  0.00    +0.000 C 
ATOM     26  C   UNL     1       6.482   4.481  17.415  0.00  0.00    +0.000 A 
ATOM     27  C   UNL     1       7.344   4.856  16.393  0.00  0.00    +0.000 A 
ATOM     28  C   UNL     1       6.791   5.068  15.137  0.00  0.00    +0.000 A 
ATOM     29  C   UNL     1       5.416   4.894  14.947  0.00  0.00    +0.000 A 
ATOM     30  C   UNL     1       4.646   4.257  15.925  0.00  0.00    +0.000 A 
ATOM     31  C   UNL     1       5.242   3.905  17.128  0.00  0.00    +0.000 A 
ATOM     32  C   UNL     1       4.579   3.148  18.251  0.00  0.00    +0.000 C 
ENDBRANCH  22  23
ENDBRANCH  19  22
ENDBRANCH  18  19
ENDBRANCH   1  18
TORSDOF 7
ENDMDL
MODEL 2
REMARK VINA RESULT:      -8.4      5.715      7.631
REMARK  Name = 
REMARK  7 active torsions:
REMARK  status: ('A' for Active; 'I' for Inactive)
REMARK    1  A    between atoms: O_1  and  C_2
REMARK    2  A    between atoms: C_2  and  C_3
REMARK    3  A    between atoms: C_2  and  C_21
REMARK    4  A    between atoms: C_3  and  O_4
REMARK    5  A    between atoms: O_4  and  C_5
REMARK    6  A    between atoms: C_9  and  C_10
REMARK    7  A    between atoms: C_21  and  N_22
REMARK                            x       y       z     vdW  Elec       q    Type
REMARK                         _______ _______ _______ _____ _____    ______ ____
ROOT
ATOM      1  O   UNL     1       7.425   6.743  16.696  0.00  0.00    +0.000 OA
ENDROOT
BRANCH   1   2
ATOM      2  C   UNL     1       6.235   6.085  16.871  0.00  0.00    +0.000 A 
ATOM      3  C   UNL     1       6.198   4.747  16.499  0.00  0.00    +0.000 A 
ATOM      4  C   UNL     1       5.023   4.015  16.657  0.00  0.00    +0.000 A 
ATOM      5  C   UNL     1       3.891   4.608  17.226  0.00  0.00    +0.000 A 
ATOM      6  C   UNL     1       3.914   5.946  17.659  0.00  0.00    +0.000 A 
ATOM      7  C   UNL     1       5.091   6.675  17.405  0.00  0.00    +0.000 A 
BRANCH   6   8
ATOM      8  C   UNL     1       2.850   6.532  18.522  0.00  0.00    +0.000 A 
ATOM      9  C   UNL     1       2.575   6.051  19.795  0.00  0.00    +0.000 A 
ATOM     10  N   UNL     1       1.763   6.643  20.700  0.00  0.00    +0.000 NA
ATOM     11  C   UNL     1       1.311   7.875  20.408  0.00  0.00    +0.000 A 
ATOM     12  C   UNL     1       0.638   8.598  21.381  0.00  0.00    +0.000 A 
ATOM     13  C   UNL     1       0.360   9.953  21.216  0.00  0.00    +0.000 A 
ATOM     14  C   UNL     1       0.709  10.587  20.020  0.00  0.00    +0.000 A 
ATOM     15  C   UNL     1       1.259   9.848  18.977  0.00  0.00    +0.000 A 
ATOM     16  C   UNL     1       1.565   8.488  19.164  0.00  0.00    +0.000 A 
ATOM     17  C   UNL     1       2.213   7.737  18.181  0.00  0.00    +0.000 A 
ENDBRANCH   6   8
ENDBRANCH   1   2
BRANCH   1  18
ATOM     18  C   UNL     1       7.432   8.113  17.147  0.00  0.00    +0.000 C 
BRANCH  18  19
ATOM     19  C   UNL     1       8.589   8.287  18.138  0.00  0.00    +0.000 C 
BRANCH  19  20
ATOM     20  O   UNL     1       8.465   7.251  19.120  0.00  0.00    +0.000 OA
ATOM     21  H   UNL     1       7.584   7.368  19.525  0.00  0.00    +0.000 HD
ENDBRANCH  19  20
BRANCH  19  22
ATOM     22  C   UNL     1       8.514   9.699  18.772  0.00  0.00    +0.000 C 
BRANCH  22  23
ATOM     23  N   UNL     1       9.750  10.436  19.032  0.00  0.00    +0.000 NA
ATOM     24  C   UNL     1       9.769  11.297  20.219  0.00  0.00    +0.000 C 
ATOM     25  C   UNL     1      11.208  11.875  20.434  0.00  0.00    +0.000 C 
ATOM     26  C   UNL     1      11.578  12.717  19.224  0.00  0.00    +0.000 A 
ATOM     27  C   UNL     1      12.333  13.875  19.344  0.00  0.00    +0.000 A 
ATOM     28  C   UNL     1      11.920  14.986  18.620  0.00  0.00    +0.000 A 
ATOM     29  C   UNL     1      10.784  14.899  17.807  0.00  0.00    +0.000 A 
ATOM     30  C   UNL     1      10.228  13.652  17.507  0.00  0.00    +0.000 A 
ATOM     31  C   UNL     1      10.746  12.519  18.119  0.00  0.00    +0.000 A 
ATOM     32  C   UNL     1      10.316  11.099  17.851  0.00  0.00    +0.000 C 
ENDBRANCH  22  23
ENDBRANCH  19  22
ENDBRANCH  18  19
ENDBRANCH   1  18
TORSDOF 7
ENDMDL
MODEL 3
REMARK VINA RESULT:      -8.2      5.676      7.531
REMARK  Name = 
REMARK  7 active torsions:
REMARK  status: ('A' for Active; 'I' for Inactive)
REMARK    1  A    between atoms: O_1  and  C_2
REMARK    2  A    between atoms: C_2  and  C_3
REMARK    3  A    between atoms: C_2  and  C_21
REMARK    4  A    between atoms: C_3  and  O_4
REMARK    5  A    between atoms: O_4  and  C_5
REMARK    6  A    between atoms: C_9  and  C_10
REMARK    7  A    between atoms: C_21  and  N_22
REMARK                            x       y       z     vdW  Elec       q    Type
REMARK                         _______ _______ _______ _____ _____    ______ ____
ROOT
ATOM      1  O   UNL     1       7.229   6.834  16.893  0.00  0.00    +0.000 OA
ENDROOT
BRANCH   1   2
ATOM      2  C   UNL     1       5.986   6.291  17.086  0.00  0.00    +0.000 A 
ATOM      3  C   UNL     1       5.852   4.929  16.845  0.00  0.00    +0.000 A 
ATOM      4  C   UNL     1       4.618   4.309  17.027  0.00  0.00    +0.000 A 
ATOM      5  C   UNL     1       3.520   5.042  17.491  0.00  0.00    +0.000 A 
ATOM      6  C   UNL     1       3.637   6.411  17.793  0.00  0.00    +0.000 A 
ATOM      7  C   UNL     1       4.877   7.018  17.514  0.00  0.00    +0.000 A 
BRANCH   6   8
ATOM      8  C   UNL     1       2.598   7.161  18.552  0.00  0.00    +0.000 A 
ATOM      9  C   UNL     1       2.314   6.896  19.886  0.00  0.00    +0.000 A 
ATOM     10  N   UNL     1       1.527   7.650  20.686  0.00  0.00    +0.000 NA
ATOM     11  C   UNL     1       1.115   8.835  20.203  0.00  0.00    +0.000 A 
ATOM     12  C   UNL     1       0.471   9.725  21.051  0.00  0.00    +0.000 A 
ATOM     13  C   UNL     1       0.237  11.045  20.673  0.00  0.00    +0.000 A 
ATOM     14  C   UNL     1       0.599  11.471  19.393  0.00  0.00    +0.000 A 
ATOM     15  C   UNL     1       1.120  10.559  18.479  0.00  0.00    +0.000 A 
ATOM     16  C   UNL     1       1.381   9.236  18.878  0.00  0.00    +0.000 A 
ATOM     17  C   UNL     1       1.999   8.318  18.026  0.00  0.00    +0.000 A 
ENDBRANCH   6   8
ENDBRANCH   1   2
BRANCH   1  18
ATOM     18  C   UNL     1       7.345   8.226  17.254  0.00  0.00    +0.000 C 
BRANCH  18  19
ATOM     19  C   UNL     1       8.607   8.397  18.109  0.00  0.00    +0.000 C 
BRANCH  19  20
ATOM     20  O   UNL     1       8.573   7.385  19.122  0.00  0.00    +0.000 OA
ATOM     21  H   UNL     1       7.637   7.115  19.201  0.00  0.00    +0.000 HD
ENDBRANCH  19  20
BRANCH  19  22
ATOM     22  C   UNL     1       8.627   9.824  18.713  0.00  0.00    +0.000 C 
BRANCH  22  23
ATOM     23  N   UNL     1       9.359  10.886  18.023  0.00  0.00    +0.000 NA
ATOM     24  C   UNL     1      10.677  11.239  18.562  0.00  0.00    +0.000 C 
ATOM     25  C   UNL     1      11.381  12.267  17.615  0.00  0.00    +0.000 C 
ATOM     26  C   UNL     1      10.534  13.527  17.552  0.00  0.00    +0.000 A 
ATOM     27  C   UNL     1      11.108  14.788  17.465  0.00  0.00    +0.000 A 
ATOM     28  C   UNL     1      10.579  15.788  18.271  0.00  0.00    +0.000 A 
ATOM     29  C   UNL     1       9.504  15.497  19.118  0.00  0.00    +0.000 A 
ATOM     30  C   UNL     1       8.792  14.304  18.968  0.00  0.00    +0.000 A 
ATOM     31  C   UNL     1       9.238  13.366  18.047  0.00  0.00    +0.000 A 
ATOM     32  C   UNL     1       8.548  12.068  17.708  0.00  0.00    +0.000 C 
ENDBRANCH  22  23
ENDBRANCH  19  22
ENDBRANCH  18  19
ENDBRANCH   1  18
TORSDOF 7
ENDMDL
MODEL 4
REMARK VINA RESULT:      -8.2      2.704      4.781
REMARK  Name = 
REMARK  7 active torsions:
REMARK  status: ('A' for Active; 'I' for Inactive)
REMARK    1  A    between atoms: O_1  and  C_2
REMARK    2  A    between atoms: C_2  and  C_3
REMARK    3  A    between atoms: C_2  and  C_21
REMARK    4  A    between atoms: C_3  and  O_4
REMARK    5  A    between atoms: O_4  and  C_5
REMARK    6  A    between atoms: C_9  and  C_10
REMARK    7  A    between atoms: C_21  and  N_22
REMARK                            x       y       z     vdW  Elec       q    Type
REMARK                         _______ _______ _______ _____ _____    ______ ____
ROOT
ATOM      1  O   UNL     1       3.538   6.880  17.182  0.00  0.00    +0.000 OA
ENDROOT
BRANCH   1   2
ATOM      2  C   UNL     1       2.770   7.590  18.067  0.00  0.00    +0.000 A 
ATOM      3  C   UNL     1       2.537   7.005  19.306  0.00  0.00    +0.000 A 
ATOM      4  C   UNL     1       1.770   7.675  20.257  0.00  0.00    +0.000 A 
ATOM      5  C   UNL     1       1.267   8.952  19.988  0.00  0.00    +0.000 A 
ATOM      6  C   UNL     1       1.529   9.592  18.763  0.00  0.00    +0.000 A 
ATOM      7  C   UNL     1       2.234   8.848  17.797  0.00  0.00    +0.000 A 
BRANCH   6   8
ATOM      8  C   UNL     1       1.268  11.041  18.539  0.00  0.00    +0.000 A 
ATOM      9  C   UNL     1       0.079  11.651  18.917  0.00  0.00    +0.000 A 
ATOM     10  N   UNL     1      -0.155  12.983  18.918  0.00  0.00    +0.000 NA
ATOM     11  C   UNL     1       0.894  13.792  18.690  0.00  0.00    +0.000 A 
ATOM     12  C   UNL     1       0.747  15.159  18.871  0.00  0.00    +0.000 A 
ATOM     13  C   UNL     1       1.848  16.012  18.881  0.00  0.00    +0.000 A 
ATOM     14  C   UNL     1       3.124  15.494  18.642  0.00  0.00    +0.000 A 
ATOM     15  C   UNL     1       3.277  14.148  18.321  0.00  0.00    +0.000 A 
ATOM     16  C   UNL     1       2.164  13.289  18.344  0.00  0.00    +0.000 A 
ATOM     17  C   UNL     1       2.291  11.914  18.131  0.00  0.00    +0.000 A 
ENDBRANCH   6   8
ENDBRANCH   1   2
BRANCH   1  18
ATOM     18  C   UNL     1       4.941   7.215  17.191  0.00  0.00    +0.000 C 
BRANCH  18  19
ATOM     19  C   UNL     1       5.710   6.045  17.815  0.00  0.00    +0.000 C 
BRANCH  19  20
ATOM     20  O   UNL     1       7.096   6.411  17.832  0.00  0.00    +0.000 OA
ATOM     21  H   UNL     1       7.527   5.804  18.465  0.00  0.00    +0.000 HD
ENDBRANCH  19  20
BRANCH  19  22
ATOM     22  C   UNL     1       5.459   4.763  16.982  0.00  0.00    +0.000 C 
BRANCH  22  23
ATOM     23  N   UNL     1       4.615   3.703  17.533  0.00  0.00    +0.000 NA
ATOM     24  C   UNL     1       3.206   3.700  17.125  0.00  0.00    +0.000 C 
ATOM     25  C   UNL     1       2.496   2.417  17.672  0.00  0.00    +0.000 C 
ATOM     26  C   UNL     1       2.557   2.438  19.190  0.00  0.00    +0.000 A 
ATOM     27  C   UNL     1       1.513   1.959  19.970  0.00  0.00    +0.000 A 
ATOM     28  C   UNL     1       1.131   2.721  21.066  0.00  0.00    +0.000 A 
ATOM     29  C   UNL     1       1.802   3.917  21.345  0.00  0.00    +0.000 A 
ATOM     30  C   UNL     1       3.009   4.212  20.704  0.00  0.00    +0.000 A 
ATOM     31  C   UNL     1       3.469   3.362  19.709  0.00  0.00    +0.000 A 
ATOM     32  C   UNL     1       4.780   3.491  18.976  0.00  0.00    +0.000 C 
ENDBRANCH  22  23
ENDBRANCH  19  22
ENDBRANCH  18  19
ENDBRANCH   1  18
TORSDOF 7
ENDMDL
MODEL 5
REMARK VINA RESULT:      -8.1      6.258      7.735
REMARK  Name = 
REMARK  7 active torsions:
REMARK  status: ('A' for Active; 'I' for Inactive)
REMARK    1  A    between atoms: O_1  and  C_2
REMARK    2  A    between atoms: C_2  and  C_3
REMARK    3  A    between atoms: C_2  and  C_21
REMARK    4  A    between atoms: C_3  and  O_4
REMARK    5  A    between atoms: O_4  and  C_5
REMARK    6  A    between atoms: C_9  and  C_10
REMARK    7  A    between atoms: C_21  and  N_22
REMARK                            x       y       z     vdW  Elec       q    Type
REMARK                         _______ _______ _______ _____ _____    ______ ____
ROOT
ATOM      1  O   UNL     1       8.763   8.686  18.492  0.00  0.00    +0.000 OA
ENDROOT
BRANCH   1   2
ATOM      2  C   UNL     1       9.089   9.975  18.829  0.00  0.00    +0.000 A 
ATOM      3  C   UNL     1       9.393  10.839  17.785  0.00  0.00    +0.000 A 
ATOM      4  C   UNL     1       9.726  12.164  18.054  0.00  0.00    +0.000 A 
ATOM      5  C   UNL     1       9.716  12.643  19.369  0.00  0.00    +0.000 A 
ATOM      6  C   UNL     1       9.363  11.805  20.443  0.00  0.00    +0.000 A 
ATOM      7  C   UNL     1       9.117  10.453  20.138  0.00  0.00    +0.000 A 
BRANCH   6   8
ATOM      8  C   UNL     1       9.060  12.326  21.805  0.00  0.00    +0.000 A 
ATOM      9  C   UNL     1       9.282  13.650  22.162  0.00  0.00    +0.000 A 
ATOM     10  N   UNL     1       8.861  14.236  23.307  0.00  0.00    +0.000 NA
ATOM     11  C   UNL     1       8.026  13.529  24.088  0.00  0.00    +0.000 A 
ATOM     12  C   UNL     1       7.418  14.154  25.167  0.00  0.00    +0.000 A 
ATOM     13  C   UNL     1       6.373  13.547  25.861  0.00  0.00    +0.000 A 
ATOM     14  C   UNL     1       5.968  12.258  25.508  0.00  0.00    +0.000 A 
ATOM     15  C   UNL     1       6.656  11.560  24.520  0.00  0.00    +0.000 A 
ATOM     16  C   UNL     1       7.689  12.191  23.803  0.00  0.00    +0.000 A 
ATOM     17  C   UNL     1       8.334  11.563  22.735  0.00  0.00    +0.000 A 
ENDBRANCH   6   8
ENDBRANCH   1   2
BRANCH   1  18
ATOM     18  C   UNL     1       7.549   8.549  17.725  0.00  0.00    +0.000 C 
BRANCH  18  19
ATOM     19  C   UNL     1       7.285   7.054  17.507  0.00  0.00    +0.000 C 
BRANCH  19  20
ATOM     20  O   UNL     1       7.912   6.690  16.271  0.00  0.00    +0.000 OA
ATOM     21  H   UNL     1       8.698   7.264  16.188  0.00  0.00    +0.000 HD
ENDBRANCH  19  20
BRANCH  19  22
ATOM     22  C   UNL     1       5.756   6.802  17.479  0.00  0.00    +0.000 C 
BRANCH  22  23
ATOM     23  N   UNL     1       5.168   5.857  18.427  0.00  0.00    +0.000 NA
ATOM     24  C   UNL     1       5.433   4.433  18.193  0.00  0.00    +0.000 C 
ATOM     25  C   UNL     1       4.871   3.585  19.382  0.00  0.00    +0.000 C 
ATOM     26  C   UNL     1       3.367   3.787  19.454  0.00  0.00    +0.000 A 
ATOM     27  C   UNL     1       2.508   2.757  19.811  0.00  0.00    +0.000 A 
ATOM     28  C   UNL     1       1.349   2.602  19.062  0.00  0.00    +0.000 A 
ATOM     29  C   UNL     1       1.090   3.475  17.999  0.00  0.00    +0.000 A 
ATOM     30  C   UNL     1       1.834   4.649  17.856  0.00  0.00    +0.000 A 
ATOM     31  C   UNL     1       2.904   4.876  18.710  0.00  0.00    +0.000 A 
ATOM     32  C   UNL     1       3.758   6.119  18.741  0.00  0.00    +0.000 C 
ENDBRANCH  22  23
ENDBRANCH  19  22
ENDBRANCH  18  19
ENDBRANCH   1  18
TORSDOF 7
ENDMDL
MODEL 6
REMARK VINA RESULT:      -8.1      2.985      4.878
REMARK  Name = 
REMARK  7 active torsions:
REMARK  status: ('A' for Active; 'I' for Inactive)
REMARK    1  A    between atoms: O_1  and  C_2
REMARK    2  A    between atoms: C_2  and  C_3
REMARK    3  A    between atoms: C_2  and  C_21
REMARK    4  A    between atoms: C_3  and  O_4
REMARK    5  A    between atoms: O_4  and  C_5
REMARK    6  A    between atoms: C_9  and  C_10
REMARK    7  A    between atoms: C_21  and  N_22
REMARK                            x       y       z     vdW  Elec       q    Type
REMARK                         _______ _______ _______ _____ _____    ______ ____
ROOT
ATOM      1  O   UNL     1      -0.750  10.264  17.796  0.00  0.00    +0.000 OA
ENDROOT
BRANCH   1   2
ATOM      2  C   UNL     1      -2.022  10.656  17.472  0.00  0.00    +0.000 A 
ATOM      3  C   UNL     1      -2.457  10.373  16.183  0.00  0.00    +0.000 A 
ATOM      4  C   UNL     1      -3.743  10.737  15.788  0.00  0.00    +0.000 A 
ATOM      5  C   UNL     1      -4.614  11.350  16.695  0.00  0.00    +0.000 A 
ATOM      6  C   UNL     1      -4.221  11.603  18.021  0.00  0.00    +0.000 A 
ATOM      7  C   UNL     1      -2.887  11.299  18.356  0.00  0.00    +0.000 A 
BRANCH   6   8
ATOM      8  C   UNL     1      -5.187  11.981  19.090  0.00  0.00    +0.000 A 
ATOM      9  C   UNL     1      -6.475  11.464  19.147  0.00  0.00    +0.000 A 
ATOM     10  N   UNL     1      -7.336  11.611  20.179  0.00  0.00    +0.000 NA
ATOM     11  C   UNL     1      -6.856  12.164  21.306  0.00  0.00    +0.000 A 
ATOM     12  C   UNL     1      -7.641  12.160  22.450  0.00  0.00    +0.000 A 
ATOM     13  C   UNL     1      -7.112  12.499  23.693  0.00  0.00    +0.000 A 
ATOM     14  C   UNL     1      -5.781  12.913  23.787  0.00  0.00    +0.000 A 
ATOM     15  C   UNL     1      -5.016  13.057  22.633  0.00  0.00    +0.000 A 
ATOM     16  C   UNL     1      -5.548  12.683  21.386  0.00  0.00    +0.000 A 
ATOM     17  C   UNL     1      -4.780  12.712  20.219  0.00  0.00    +0.000 A 
ENDBRANCH   6   8
ENDBRANCH   1   2
BRANCH   1  18
ATOM     18  C   UNL     1      -0.591   9.772  19.142  0.00  0.00    +0.000 C 
BRANCH  18  19
ATOM     19  C   UNL     1       0.909   9.674  19.445  0.00  0.00    +0.000 C 
BRANCH  19  20
ATOM     20  O   UNL     1       1.347  10.981  19.837  0.00  0.00    +0.000 OA
ATOM     21  H   UNL     1       0.804  11.612  19.326  0.00  0.00    +0.000 HD
ENDBRANCH  19  20
BRANCH  19  22
ATOM     22  C   UNL     1       1.654   9.164  18.186  0.00  0.00    +0.000 C 
BRANCH  22  23
ATOM     23  N   UNL     1       2.681   8.133  18.328  0.00  0.00    +0.000 NA
ATOM     24  C   UNL     1       3.433   7.777  17.119  0.00  0.00    +0.000 C 
ATOM     25  C   UNL     1       4.589   6.787  17.484  0.00  0.00    +0.000 C 
ATOM     26  C   UNL     1       3.980   5.521  18.061  0.00  0.00    +0.000 A 
ATOM     27  C   UNL     1       4.528   4.269  17.815  0.00  0.00    +0.000 A 
ATOM     28  C   UNL     1       3.652   3.239  17.500  0.00  0.00    +0.000 A 
ATOM     29  C   UNL     1       2.276   3.491  17.449  0.00  0.00    +0.000 A 
ATOM     30  C   UNL     1       1.759   4.681  17.970  0.00  0.00    +0.000 A 
ATOM     31  C   UNL     1       2.638   5.653  18.428  0.00  0.00    +0.000 A 
ATOM     32  C   UNL     1       2.248   6.953  19.085  0.00  0.00    +0.000 C 
ENDBRANCH  22  23
ENDBRANCH  19  22
ENDBRANCH  18  19
ENDBRANCH   1  18
TORSDOF 7
ENDMDL
MODEL 7
REMARK VINA RESULT:      -8.1      6.761      8.350
REMARK  Name = 
REMARK  7 active torsions:
REMARK  status: ('A' for Active; 'I' for Inactive)
REMARK    1  A    between atoms: O_1  and  C_2
REMARK    2  A    between atoms: C_2  and  C_3
REMARK    3  A    between atoms: C_2  and  C_21
REMARK    4  A    between atoms: C_3  and  O_4
REMARK    5  A    between atoms: O_4  and  C_5
REMARK    6  A    between atoms: C_9  and  C_10
REMARK    7  A    between atoms: C_21  and  N_22
REMARK                            x       y       z     vdW  Elec       q    Type
REMARK                         _______ _______ _______ _____ _____    ______ ____
ROOT
ATOM      1  O   UNL     1       8.772   8.666  18.624  0.00  0.00    +0.000 OA
ENDROOT
BRANCH   1   2
ATOM      2  C   UNL     1       9.113   9.953  18.950  0.00  0.00    +0.000 A 
ATOM      3  C   UNL     1       9.607  10.750  17.926  0.00  0.00    +0.000 A 
ATOM      4  C   UNL     1       9.967  12.071  18.186  0.00  0.00    +0.000 A 
ATOM      5  C   UNL     1       9.796  12.612  19.464  0.00  0.00    +0.000 A 
ATOM      6  C   UNL     1       9.251  11.845  20.510  0.00  0.00    +0.000 A 
ATOM      7  C   UNL     1       8.980  10.492  20.229  0.00  0.00    +0.000 A 
BRANCH   6   8
ATOM      8  C   UNL     1       8.784  12.445  21.791  0.00  0.00    +0.000 A 
ATOM      9  C   UNL     1       8.373  11.672  22.869  0.00  0.00    +0.000 A 
ATOM     10  N   UNL     1       8.119  12.133  24.115  0.00  0.00    +0.000 NA
ATOM     11  C   UNL     1       8.442  13.411  24.375  0.00  0.00    +0.000 A 
ATOM     12  C   UNL     1       8.380  13.872  25.682  0.00  0.00    +0.000 A 
ATOM     13  C   UNL     1       8.925  15.103  26.043  0.00  0.00    +0.000 A 
ATOM     14  C   UNL     1       9.489  15.922  25.061  0.00  0.00    +0.000 A 
ATOM     15  C   UNL     1       9.437  15.539  23.724  0.00  0.00    +0.000 A 
ATOM     16  C   UNL     1       8.914  14.282  23.372  0.00  0.00    +0.000 A 
ATOM     17  C   UNL     1       8.938  13.817  22.055  0.00  0.00    +0.000 A 
ENDBRANCH   6   8
ENDBRANCH   1   2
BRANCH   1  18
ATOM     18  C   UNL     1       7.673   8.547  17.696  0.00  0.00    +0.000 C 
BRANCH  18  19
ATOM     19  C   UNL     1       7.322   7.061  17.555  0.00  0.00    +0.000 C 
BRANCH  19  20
ATOM     20  O   UNL     1       7.824   6.626  16.286  0.00  0.00    +0.000 OA
ATOM     21  H   UNL     1       8.328   5.809  16.461  0.00  0.00    +0.000 HD
ENDBRANCH  19  20
BRANCH  19  22
ATOM     22  C   UNL     1       5.786   6.884  17.665  0.00  0.00    +0.000 C 
BRANCH  22  23
ATOM     23  N   UNL     1       5.234   5.557  17.934  0.00  0.00    +0.000 NA
ATOM     24  C   UNL     1       4.190   5.077  17.022  0.00  0.00    +0.000 C 
ATOM     25  C   UNL     1       3.834   3.591  17.357  0.00  0.00    +0.000 C 
ATOM     26  C   UNL     1       3.297   3.528  18.777  0.00  0.00    +0.000 A 
ATOM     27  C   UNL     1       2.280   2.654  19.135  0.00  0.00    +0.000 A 
ATOM     28  C   UNL     1       1.263   3.151  19.940  0.00  0.00    +0.000 A 
ATOM     29  C   UNL     1       1.302   4.486  20.358  0.00  0.00    +0.000 A 
ATOM     30  C   UNL     1       2.470   5.238  20.204  0.00  0.00    +0.000 A 
ATOM     31  C   UNL     1       3.546   4.679  19.529  0.00  0.00    +0.000 A 
ATOM     32  C   UNL     1       4.898   5.320  19.344  0.00  0.00    +0.000 C 
ENDBRANCH  22  23
ENDBRANCH  19  22
ENDBRANCH  18  19
ENDBRANCH   1  18
TORSDOF 7
ENDMDL
MODEL 8
REMARK VINA RESULT:      -8.0      5.915      8.973
REMARK  Name = 
REMARK  7 active torsions:
REMARK  status: ('A' for Active; 'I' for Inactive)
REMARK    1  A    between atoms: O_1  and  C_2
REMARK    2  A    between atoms: C_2  and  C_3
REMARK    3  A    between atoms: C_2  and  C_21
REMARK    4  A    between atoms: C_3  and  O_4
REMARK    5  A    between atoms: O_4  and  C_5
REMARK    6  A    between atoms: C_9  and  C_10
REMARK    7  A    between atoms: C_21  and  N_22
REMARK                            x       y       z     vdW  Elec       q    Type
REMARK                         _______ _______ _______ _____ _____    ______ ____
ROOT
ATOM      1  O   UNL     1       7.186   7.386  16.283  0.00  0.00    +0.000 OA
ENDROOT
BRANCH   1   2
ATOM      2  C   UNL     1       6.544   6.211  15.990  0.00  0.00    +0.000 A 
ATOM      3  C   UNL     1       7.140   5.390  15.041  0.00  0.00    +0.000 A 
ATOM      4  C   UNL     1       6.544   4.177  14.700  0.00  0.00    +0.000 A 
ATOM      5  C   UNL     1       5.371   3.761  15.337  0.00  0.00    +0.000 A 
ATOM      6  C   UNL     1       4.772   4.547  16.339  0.00  0.00    +0.000 A 
ATOM      7  C   UNL     1       5.355   5.803  16.594  0.00  0.00    +0.000 A 
BRANCH   6   8
ATOM      8  C   UNL     1       3.704   4.028  17.239  0.00  0.00    +0.000 A 
ATOM      9  C   UNL     1       3.194   2.742  17.125  0.00  0.00    +0.000 A 
ATOM     10  N   UNL     1       2.368   2.142  18.013  0.00  0.00    +0.000 NA
ATOM     11  C   UNL     1       2.151   2.779  19.176  0.00  0.00    +0.000 A 
ATOM     12  C   UNL     1       1.472   2.120  20.191  0.00  0.00    +0.000 A 
ATOM     13  C   UNL     1       1.426   2.635  21.485  0.00  0.00    +0.000 A 
ATOM     14  C   UNL     1       2.021   3.869  21.758  0.00  0.00    +0.000 A 
ATOM     15  C   UNL     1       2.587   4.611  20.724  0.00  0.00    +0.000 A 
ATOM     16  C   UNL     1       2.656   4.070  19.428  0.00  0.00    +0.000 A 
ATOM     17  C   UNL     1       3.308   4.736  18.387  0.00  0.00    +0.000 A 
ENDBRANCH   6   8
ENDBRANCH   1   2
BRANCH   1  18
ATOM     18  C   UNL     1       7.026   7.842  17.642  0.00  0.00    +0.000 C 
BRANCH  18  19
ATOM     19  C   UNL     1       8.420   8.025  18.255  0.00  0.00    +0.000 C 
BRANCH  19  20
ATOM     20  O   UNL     1       8.582   7.006  19.250  0.00  0.00    +0.000 OA
ATOM     21  H   UNL     1       9.356   6.479  18.971  0.00  0.00    +0.000 HD
ENDBRANCH  19  20
BRANCH  19  22
ATOM     22  C   UNL     1       8.533   9.448  18.857  0.00  0.00    +0.000 C 
BRANCH  22  23
ATOM     23  N   UNL     1       9.347  10.454  18.175  0.00  0.00    +0.000 NA
ATOM     24  C   UNL     1      10.481  11.006  18.924  0.00  0.00    +0.000 C 
ATOM     25  C   UNL     1      11.330  11.936  17.995  0.00  0.00    +0.000 C 
ATOM     26  C   UNL     1      10.455  13.087  17.530  0.00  0.00    +0.000 A 
ATOM     27  C   UNL     1      10.963  14.368  17.358  0.00  0.00    +0.000 A 
ATOM     28  C   UNL     1      10.206  15.427  17.842  0.00  0.00    +0.000 A 
ATOM     29  C   UNL     1       8.980  15.172  18.466  0.00  0.00    +0.000 A 
ATOM     30  C   UNL     1       8.389  13.909  18.369  0.00  0.00    +0.000 A 
ATOM     31  C   UNL     1       9.089  12.885  17.746  0.00  0.00    +0.000 A 
ATOM     32  C   UNL     1       8.570  11.493  17.489  0.00  0.00    +0.000 C 
ENDBRANCH  22  23
ENDBRANCH  19  22
ENDBRANCH  18  19
ENDBRANCH   1  18
TORSDOF 7
ENDMDL
MODEL 9
REMARK VINA RESULT:      -8.0      1.783      2.370
REMARK  Name = 
REMARK  7 active torsions:
REMARK  status: ('A' for Active; 'I' for Inactive)
REMARK    1  A    between atoms: O_1  and  C_2
REMARK    2  A    between atoms: C_2  and  C_3
REMARK    3  A    between atoms: C_2  and  C_21
REMARK    4  A    between atoms: C_3  and  O_4
REMARK    5  A    between atoms: O_4  and  C_5
REMARK    6  A    between atoms: C_9  and  C_10
REMARK    7  A    between atoms: C_21  and  N_22
REMARK                            x       y       z     vdW  Elec       q    Type
REMARK                         _______ _______ _______ _____ _____    ______ ____
ROOT
ATOM      1  O   UNL     1       2.576   5.308  19.728  0.00  0.00    +0.000 OA
ENDROOT
BRANCH   1   2
ATOM      2  C   UNL     1       2.316   6.620  19.431  0.00  0.00    +0.000 A 
ATOM      3  C   UNL     1       2.690   7.064  18.169  0.00  0.00    +0.000 A 
ATOM      4  C   UNL     1       2.449   8.386  17.798  0.00  0.00    +0.000 A 
ATOM      5  C   UNL     1       1.795   9.258  18.674  0.00  0.00    +0.000 A 
ATOM      6  C   UNL     1       1.359   8.824  19.939  0.00  0.00    +0.000 A 
ATOM      7  C   UNL     1       1.697   7.508  20.310  0.00  0.00    +0.000 A 
BRANCH   6   8
ATOM      8  C   UNL     1       0.418   9.614  20.782  0.00  0.00    +0.000 A 
ATOM      9  C   UNL     1       0.571   9.733  22.157  0.00  0.00    +0.000 A 
ATOM     10  N   UNL     1      -0.124  10.575  22.955  0.00  0.00    +0.000 NA
ATOM     11  C   UNL     1      -0.911  11.483  22.353  0.00  0.00    +0.000 A 
ATOM     12  C   UNL     1      -1.490  12.488  23.114  0.00  0.00    +0.000 A 
ATOM     13  C   UNL     1      -2.113  13.582  22.517  0.00  0.00    +0.000 A 
ATOM     14  C   UNL     1      -2.215  13.642  21.125  0.00  0.00    +0.000 A 
ATOM     15  C   UNL     1      -1.764  12.578  20.349  0.00  0.00    +0.000 A 
ATOM     16  C   UNL     1      -1.109  11.493  20.957  0.00  0.00    +0.000 A 
ATOM     17  C   UNL     1      -0.549  10.456  20.207  0.00  0.00    +0.000 A 
ENDBRANCH   6   8
ENDBRANCH   1   2
BRANCH   1  18
ATOM     18  C   UNL     1       1.981   4.353  18.825  0.00  0.00    +0.000 C 
BRANCH  18  19
ATOM     19  C   UNL     1       3.043   3.934  17.801  0.00  0.00    +0.000 C 
BRANCH  19  20
ATOM     20  O   UNL     1       2.411   3.039  16.878  0.00  0.00    +0.000 OA
ATOM     21  H   UNL     1       2.269   3.553  16.059  0.00  0.00    +0.000 HD
ENDBRANCH  19  20
BRANCH  19  22
ATOM     22  C   UNL     1       4.230   3.264  18.538  0.00  0.00    +0.000 C 
BRANCH  22  23
ATOM     23  N   UNL     1       5.525   3.943  18.580  0.00  0.00    +0.000 NA
ATOM     24  C   UNL     1       5.769   4.831  19.721  0.00  0.00    +0.000 C 
ATOM     25  C   UNL     1       7.249   5.341  19.691  0.00  0.00    +0.000 C 
ATOM     26  C   UNL     1       7.463   6.132  18.412  0.00  0.00    +0.000 A 
ATOM     27  C   UNL     1       8.281   7.253  18.375  0.00  0.00    +0.000 A 
ATOM     28  C   UNL     1       7.812   8.365  17.689  0.00  0.00    +0.000 A 
ATOM     29  C   UNL     1       6.560   8.315  17.064  0.00  0.00    +0.000 A 
ATOM     30  C   UNL     1       5.907   7.091  16.895  0.00  0.00    +0.000 A 
ATOM     31  C   UNL     1       6.461   5.949  17.456  0.00  0.00    +0.000 A 
ATOM     32  C   UNL     1       5.929   4.546  17.304  0.00  0.00    +0.000 C 
ENDBRANCH  22  23
ENDBRANCH  19  22
ENDBRANCH  18  19
ENDBRANCH   1  18
TORSDOF 7
ENDMDL
