MODEL 1
REMARK VINA RESULT:      -7.2      0.000      0.000
REMARK  Name = 
REMARK  7 active torsions:
REMARK  status: ('A' for Active; 'I' for Inactive)
REMARK    1  A    between atoms: C_1  and  C_2
REMARK    2  A    between atoms: C_2  and  C_3
REMARK    3  A    between atoms: C_3  and  C_4
REMARK    4  A    between atoms: C_12  and  C_13
REMARK    5  A    between atoms: C_13  and  O_15
REMARK    6  A    between atoms: C_16  and  C_17
REMARK    7  A    between atoms: C_17  and  C_18
REMARK                            x       y       z     vdW  Elec       q    Type
REMARK                         _______ _______ _______ _____ _____    ______ ____
ROOT
ATOM      1  C   UNL     1       2.268   5.525  19.641  0.00  0.00    +0.000 A 
ATOM      2  N   UNL     1       3.017   6.317  18.831  0.00  0.00    +0.000 NA
ATOM      3  C   UNL     1       3.759   5.809  17.849  0.00  0.00    +0.000 A 
ATOM      4  C   UNL     1       4.490   6.708  17.082  0.00  0.00    +0.000 A 
ATOM      5  C   UNL     1       5.305   6.293  16.035  0.00  0.00    +0.000 A 
ATOM      6  C   UNL     1       5.375   4.946  15.733  0.00  0.00    +0.000 A 
ATOM      7  C   UNL     1       4.625   4.033  16.480  0.00  0.00    +0.000 A 
ATOM      8  C   UNL     1       3.803   4.441  17.579  0.00  0.00    +0.000 A 
ATOM      9  C   UNL     1       3.013   3.608  18.451  0.00  0.00    +0.000 A 
ATOM     10  C   UNL     1       2.235   4.136  19.513  0.00  0.00    +0.000 A 
ENDROOT
BRANCH   9  11
ATOM     11  C   UNL     1       2.988   2.156  18.168  0.00  0.00    +0.000 C 
ATOM     12  O   UNL     1       3.726   1.306  18.618  0.00  0.00    +0.000 OA
BRANCH  11  13
ATOM     13  O   UNL     1       1.934   1.875  17.375  0.00  0.00    +0.000 OA
ATOM     14  H   UNL     1       1.154   2.213  17.859  0.00  0.00    +0.000 HD
ENDBRANCH  11  13
ENDBRANCH   9  11
BRANCH  10  15
ATOM     15  C   UNL     1       1.478   3.258  20.487  0.00  0.00    +0.000 C 
ATOM     16  C   UNL     1       2.251   2.831  21.729  0.00  0.00    +0.000 C 
ENDBRANCH  10  15
BRANCH   1  17
ATOM     17  C   UNL     1       1.514   6.321  20.678  0.00  0.00    +0.000 C 
BRANCH  17  19
ATOM     18  C   UNL     1       0.907   8.648  21.507  0.00  0.00    +0.000 C 
ATOM     19  C   UNL     1       1.710   7.834  20.504  0.00  0.00    +0.000 C 
ENDBRANCH  17  19
ENDBRANCH   1  17
TORSDOF 5
ENDMDL
MODEL 2
REMARK VINA RESULT:      -7.1      1.499      1.995
REMARK  Name = 
REMARK  7 active torsions:
REMARK  status: ('A' for Active; 'I' for Inactive)
REMARK    1  A    between atoms: C_1  and  C_2
REMARK    2  A    between atoms: C_2  and  C_3
REMARK    3  A    between atoms: C_3  and  C_4
REMARK    4  A    between atoms: C_12  and  C_13
REMARK    5  A    between atoms: C_13  and  O_15
REMARK    6  A    between atoms: C_16  and  C_17
REMARK    7  A    between atoms: C_17  and  C_18
REMARK                            x       y       z     vdW  Elec       q    Type
REMARK                         _______ _______ _______ _____ _____    ______ ____
ROOT
ATOM      1  C   UNL     1       3.146   6.325  18.498  0.00  0.00    +0.000 A 
ATOM      2  N   UNL     1       3.845   6.614  17.370  0.00  0.00    +0.000 NA
ATOM      3  C   UNL     1       4.589   5.697  16.755  0.00  0.00    +0.000 A 
ATOM      4  C   UNL     1       5.267   6.100  15.611  0.00  0.00    +0.000 A 
ATOM      5  C   UNL     1       6.078   5.232  14.890  0.00  0.00    +0.000 A 
ATOM      6  C   UNL     1       6.199   3.921  15.310  0.00  0.00    +0.000 A 
ATOM      7  C   UNL     1       5.502   3.495  16.445  0.00  0.00    +0.000 A 
ATOM      8  C   UNL     1       4.685   4.383  17.215  0.00  0.00    +0.000 A 
ATOM      9  C   UNL     1       3.947   4.090  18.418  0.00  0.00    +0.000 A 
ATOM     10  C   UNL     1       3.168   5.064  19.094  0.00  0.00    +0.000 A 
ENDROOT
BRANCH   9  11
ATOM     11  C   UNL     1       3.977   2.695  18.913  0.00  0.00    +0.000 C 
ATOM     12  O   UNL     1       3.222   1.795  18.618  0.00  0.00    +0.000 OA
BRANCH  11  13
ATOM     13  O   UNL     1       5.055   2.527  19.705  0.00  0.00    +0.000 OA
ATOM     14  H   UNL     1       5.011   1.596  20.000  0.00  0.00    +0.000 HD
ENDBRANCH  11  13
ENDBRANCH   9  11
BRANCH  10  15
ATOM     15  C   UNL     1       2.468   4.784  20.406  0.00  0.00    +0.000 C 
ATOM     16  C   UNL     1       1.050   4.237  20.296  0.00  0.00    +0.000 C 
ENDBRANCH  10  15
BRANCH   1  17
ATOM     17  C   UNL     1       2.379   7.519  19.015  0.00  0.00    +0.000 C 
BRANCH  17  19
ATOM     18  C   UNL     1       1.050   9.510  18.157  0.00  0.00    +0.000 C 
ATOM     19  C   UNL     1       2.288   8.644  17.975  0.00  0.00    +0.000 C 
ENDBRANCH  17  19
ENDBRANCH   1  17
TORSDOF 5
ENDMDL
MODEL 3
REMARK VINA RESULT:      -7.0      0.761      1.165
REMARK  Name = 
REMARK  7 active torsions:
REMARK  status: ('A' for Active; 'I' for Inactive)
REMARK    1  A    between atoms: C_1  and  C_2
REMARK    2  A    between atoms: C_2  and  C_3
REMARK    3  A    between atoms: C_3  and  C_4
REMARK    4  A    between atoms: C_12  and  C_13
REMARK    5  A    between atoms: C_13  and  O_15
REMARK    6  A    between atoms: C_16  and  C_17
REMARK    7  A    between atoms: C_17  and  C_18
REMARK                            x       y       z     vdW  Elec       q    Type
REMARK                         _______ _______ _______ _____ _____    ______ ____
ROOT
ATOM      1  C   UNL     1       2.568   5.696  19.869  0.00  0.00    +0.000 A 
ATOM      2  N   UNL     1       3.075   6.432  18.846  0.00  0.00    +0.000 NA
ATOM      3  C   UNL     1       3.877   5.895  17.930  0.00  0.00    +0.000 A 
ATOM      4  C   UNL     1       4.343   6.738  16.927  0.00  0.00    +0.000 A 
ATOM      5  C   UNL     1       5.191   6.291  15.922  0.00  0.00    +0.000 A 
ATOM      6  C   UNL     1       5.569   4.961  15.904  0.00  0.00    +0.000 A 
ATOM      7  C   UNL     1       5.088   4.096  16.891  0.00  0.00    +0.000 A 
ATOM      8  C   UNL     1       4.236   4.547  17.950  0.00  0.00    +0.000 A 
ATOM      9  C   UNL     1       3.701   3.778  19.046  0.00  0.00    +0.000 A 
ATOM     10  C   UNL     1       2.861   4.343  20.039  0.00  0.00    +0.000 A 
ENDROOT
BRANCH   9  11
ATOM     11  C   UNL     1       4.011   2.331  19.078  0.00  0.00    +0.000 C 
ATOM     12  O   UNL     1       3.422   1.440  18.506  0.00  0.00    +0.000 OA
BRANCH  11  13
ATOM     13  O   UNL     1       5.138   2.133  19.792  0.00  0.00    +0.000 OA
ATOM     14  H   UNL     1       5.431   1.229  19.559  0.00  0.00    +0.000 HD
ENDBRANCH  11  13
ENDBRANCH   9  11
BRANCH  10  15
ATOM     15  C   UNL     1       2.374   3.562  21.241  0.00  0.00    +0.000 C 
ATOM     16  C   UNL     1       1.052   2.827  21.060  0.00  0.00    +0.000 C 
ENDBRANCH  10  15
BRANCH   1  17
ATOM     17  C   UNL     1       1.687   6.518  20.779  0.00  0.00    +0.000 C 
BRANCH  17  19
ATOM     18  C   UNL     1       0.774   8.836  21.290  0.00  0.00    +0.000 C 
ATOM     19  C   UNL     1       1.681   8.004  20.396  0.00  0.00    +0.000 C 
ENDBRANCH  17  19
ENDBRANCH   1  17
TORSDOF 5
ENDMDL
MODEL 4
REMARK VINA RESULT:      -6.8      1.387      1.651
REMARK  Name = 
REMARK  7 active torsions:
REMARK  status: ('A' for Active; 'I' for Inactive)
REMARK    1  A    between atoms: C_1  and  C_2
REMARK    2  A    between atoms: C_2  and  C_3
REMARK    3  A    between atoms: C_3  and  C_4
REMARK    4  A    between atoms: C_12  and  C_13
REMARK    5  A    between atoms: C_13  and  O_15
REMARK    6  A    between atoms: C_16  and  C_17
REMARK    7  A    between atoms: C_17  and  C_18
REMARK                            x       y       z     vdW  Elec       q    Type
REMARK                         _______ _______ _______ _____ _____    ______ ____
ROOT
ATOM      1  C   UNL     1       2.956   6.223  18.303  0.00  0.00    +0.000 A 
ATOM      2  N   UNL     1       3.901   6.557  17.386  0.00  0.00    +0.000 NA
ATOM      3  C   UNL     1       4.611   5.630  16.746  0.00  0.00    +0.000 A 
ATOM      4  C   UNL     1       5.555   6.081  15.831  0.00  0.00    +0.000 A 
ATOM      5  C   UNL     1       6.359   5.207  15.109  0.00  0.00    +0.000 A 
ATOM      6  C   UNL     1       6.202   3.845  15.291  0.00  0.00    +0.000 A 
ATOM      7  C   UNL     1       5.239   3.378  16.190  0.00  0.00    +0.000 A 
ATOM      8  C   UNL     1       4.422   4.265  16.961  0.00  0.00    +0.000 A 
ATOM      9  C   UNL     1       3.424   3.922  17.944  0.00  0.00    +0.000 A 
ATOM     10  C   UNL     1       2.675   4.901  18.646  0.00  0.00    +0.000 A 
ENDROOT
BRANCH   9  11
ATOM     11  C   UNL     1       3.152   2.485  18.165  0.00  0.00    +0.000 C 
ATOM     12  O   UNL     1       3.689   1.750  18.965  0.00  0.00    +0.000 OA
BRANCH  11  13
ATOM     13  O   UNL     1       2.122   2.101  17.385  0.00  0.00    +0.000 OA
ATOM     14  H   UNL     1       2.490   2.062  16.479  0.00  0.00    +0.000 HD
ENDBRANCH  11  13
ENDBRANCH   9  11
BRANCH  10  15
ATOM     15  C   UNL     1       1.694   4.547  19.743  0.00  0.00    +0.000 C 
ATOM     16  C   UNL     1       2.276   4.467  21.149  0.00  0.00    +0.000 C 
ENDBRANCH  10  15
BRANCH   1  17
ATOM     17  C   UNL     1       2.283   7.438  18.895  0.00  0.00    +0.000 C 
BRANCH  17  19
ATOM     18  C   UNL     1       1.248   9.709  18.404  0.00  0.00    +0.000 C 
ATOM     19  C   UNL     1       2.044   8.537  17.850  0.00  0.00    +0.000 C 
ENDBRANCH  17  19
ENDBRANCH   1  17
TORSDOF 5
ENDMDL
MODEL 5
REMARK VINA RESULT:      -6.7      2.810      4.616
REMARK  Name = 
REMARK  7 active torsions:
REMARK  status: ('A' for Active; 'I' for Inactive)
REMARK    1  A    between atoms: C_1  and  C_2
REMARK    2  A    between atoms: C_2  and  C_3
REMARK    3  A    between atoms: C_3  and  C_4
REMARK    4  A    between atoms: C_12  and  C_13
REMARK    5  A    between atoms: C_13  and  O_15
REMARK    6  A    between atoms: C_16  and  C_17
REMARK    7  A    between atoms: C_17  and  C_18
REMARK                            x       y       z     vdW  Elec       q    Type
REMARK                         _______ _______ _______ _____ _____    ______ ____
ROOT
ATOM      1  C   UNL     1       6.979   5.924  17.287  0.00  0.00    +0.000 A 
ATOM      2  N   UNL     1       7.451   5.891  16.013  0.00  0.00    +0.000 NA
ATOM      3  C   UNL     1       6.901   5.110  15.085  0.00  0.00    +0.000 A 
ATOM      4  C   UNL     1       7.464   5.150  13.815  0.00  0.00    +0.000 A 
ATOM      5  C   UNL     1       6.980   4.374  12.769  0.00  0.00    +0.000 A 
ATOM      6  C   UNL     1       5.890   3.552  12.991  0.00  0.00    +0.000 A 
ATOM      7  C   UNL     1       5.298   3.522  14.257  0.00  0.00    +0.000 A 
ATOM      8  C   UNL     1       5.802   4.293  15.352  0.00  0.00    +0.000 A 
ATOM      9  C   UNL     1       5.317   4.328  16.709  0.00  0.00    +0.000 A 
ATOM     10  C   UNL     1       5.906   5.140  17.712  0.00  0.00    +0.000 A 
ENDROOT
BRANCH   9  11
ATOM     11  C   UNL     1       4.119   3.518  17.025  0.00  0.00    +0.000 C 
ATOM     12  O   UNL     1       2.960   3.813  16.832  0.00  0.00    +0.000 OA
BRANCH  11  13
ATOM     13  O   UNL     1       4.507   2.317  17.500  0.00  0.00    +0.000 OA
ATOM     14  H   UNL     1       5.230   2.030  16.907  0.00  0.00    +0.000 HD
ENDBRANCH  11  13
ENDBRANCH   9  11
BRANCH  10  15
ATOM     15  C   UNL     1       5.458   5.110  19.157  0.00  0.00    +0.000 C 
ATOM     16  C   UNL     1       4.122   5.782  19.450  0.00  0.00    +0.000 C 
ENDBRANCH  10  15
BRANCH   1  17
ATOM     17  C   UNL     1       7.758   6.879  18.158  0.00  0.00    +0.000 C 
BRANCH  17  19
ATOM     18  C   UNL     1       8.595   9.265  18.434  0.00  0.00    +0.000 C 
ATOM     19  C   UNL     1       7.767   8.306  17.592  0.00  0.00    +0.000 C 
ENDBRANCH  17  19
ENDBRANCH   1  17
TORSDOF 5
ENDMDL
MODEL 6
REMARK VINA RESULT:      -6.7      1.976      4.334
REMARK  Name = 
REMARK  7 active torsions:
REMARK  status: ('A' for Active; 'I' for Inactive)
REMARK    1  A    between atoms: C_1  and  C_2
REMARK    2  A    between atoms: C_2  and  C_3
REMARK    3  A    between atoms: C_3  and  C_4
REMARK    4  A    between atoms: C_12  and  C_13
REMARK    5  A    between atoms: C_13  and  O_15
REMARK    6  A    between atoms: C_16  and  C_17
REMARK    7  A    between atoms: C_17  and  C_18
REMARK                            x       y       z     vdW  Elec       q    Type
REMARK                         _______ _______ _______ _____ _____    ______ ____
ROOT
ATOM      1  C   UNL     1       2.978   6.930  18.327  0.00  0.00    +0.000 A 
ATOM      2  N   UNL     1       2.056   6.326  19.121  0.00  0.00    +0.000 NA
ATOM      3  C   UNL     1       2.280   5.133  19.668  0.00  0.00    +0.000 A 
ATOM      4  C   UNL     1       1.267   4.604  20.460  0.00  0.00    +0.000 A 
ATOM      5  C   UNL     1       1.386   3.364  21.077  0.00  0.00    +0.000 A 
ATOM      6  C   UNL     1       2.554   2.642  20.916  0.00  0.00    +0.000 A 
ATOM      7  C   UNL     1       3.590   3.174  20.142  0.00  0.00    +0.000 A 
ATOM      8  C   UNL     1       3.474   4.437  19.478  0.00  0.00    +0.000 A 
ATOM      9  C   UNL     1       4.441   5.082  18.625  0.00  0.00    +0.000 A 
ATOM     10  C   UNL     1       4.206   6.343  18.020  0.00  0.00    +0.000 A 
ENDROOT
BRANCH   9  11
ATOM     11  C   UNL     1       5.743   4.404  18.438  0.00  0.00    +0.000 C 
ATOM     12  O   UNL     1       6.742   4.534  19.111  0.00  0.00    +0.000 OA
BRANCH  11  13
ATOM     13  O   UNL     1       5.643   3.519  17.426  0.00  0.00    +0.000 OA
ATOM     14  H   UNL     1       4.703   3.543  17.159  0.00  0.00    +0.000 HD
ENDBRANCH  11  13
ENDBRANCH   9  11
BRANCH  10  15
ATOM     15  C   UNL     1       5.180   6.980  17.052  0.00  0.00    +0.000 C 
ATOM     16  C   UNL     1       5.098   6.488  15.612  0.00  0.00    +0.000 C 
ENDBRANCH  10  15
BRANCH   1  17
ATOM     17  C   UNL     1       2.504   8.271  17.822  0.00  0.00    +0.000 C 
BRANCH  17  19
ATOM     18  C   UNL     1       0.562   9.878  18.159  0.00  0.00    +0.000 C 
ATOM     19  C   UNL     1       1.591   8.982  18.831  0.00  0.00    +0.000 C 
ENDBRANCH  17  19
ENDBRANCH   1  17
TORSDOF 5
ENDMDL
MODEL 7
REMARK VINA RESULT:      -6.7      2.234      4.223
REMARK  Name = 
REMARK  7 active torsions:
REMARK  status: ('A' for Active; 'I' for Inactive)
REMARK    1  A    between atoms: C_1  and  C_2
REMARK    2  A    between atoms: C_2  and  C_3
REMARK    3  A    between atoms: C_3  and  C_4
REMARK    4  A    between atoms: C_12  and  C_13
REMARK    5  A    between atoms: C_13  and  O_15
REMARK    6  A    between atoms: C_16  and  C_17
REMARK    7  A    between atoms: C_17  and  C_18
REMARK                            x       y       z     vdW  Elec       q    Type
REMARK                         _______ _______ _______ _____ _____    ______ ____
ROOT
ATOM      1  C   UNL     1       3.436   6.673  17.660  0.00  0.00    +0.000 A 
ATOM      2  N   UNL     1       2.420   5.913  18.143  0.00  0.00    +0.000 NA
ATOM      3  C   UNL     1       2.494   4.584  18.171  0.00  0.00    +0.000 A 
ATOM      4  C   UNL     1       1.395   3.902  18.682  0.00  0.00    +0.000 A 
ATOM      5  C   UNL     1       1.356   2.515  18.755  0.00  0.00    +0.000 A 
ATOM      6  C   UNL     1       2.452   1.789  18.326  0.00  0.00    +0.000 A 
ATOM      7  C   UNL     1       3.574   2.463  17.833  0.00  0.00    +0.000 A 
ATOM      8  C   UNL     1       3.619   3.889  17.726  0.00  0.00    +0.000 A 
ATOM      9  C   UNL     1       4.688   4.706  17.205  0.00  0.00    +0.000 A 
ATOM     10  C   UNL     1       4.612   6.121  17.151  0.00  0.00    +0.000 A 
ENDROOT
BRANCH   9  11
ATOM     11  C   UNL     1       5.923   4.015  16.771  0.00  0.00    +0.000 C 
ATOM     12  O   UNL     1       6.196   3.631  15.655  0.00  0.00    +0.000 OA
BRANCH  11  13
ATOM     13  O   UNL     1       6.780   3.942  17.809  0.00  0.00    +0.000 OA
ATOM     14  H   UNL     1       7.429   3.256  17.555  0.00  0.00    +0.000 HD
ENDBRANCH  11  13
ENDBRANCH   9  11
BRANCH  10  15
ATOM     15  C   UNL     1       5.692   6.974  16.522  0.00  0.00    +0.000 C 
ATOM     16  C   UNL     1       6.826   7.396  17.449  0.00  0.00    +0.000 C 
ENDBRANCH  10  15
BRANCH   1  17
ATOM     17  C   UNL     1       3.126   8.149  17.729  0.00  0.00    +0.000 C 
BRANCH  17  19
ATOM     18  C   UNL     1       1.115   9.664  18.087  0.00  0.00    +0.000 C 
ATOM     19  C   UNL     1       1.879   8.442  18.574  0.00  0.00    +0.000 C 
ENDBRANCH  17  19
ENDBRANCH   1  17
TORSDOF 5
ENDMDL
MODEL 8
REMARK VINA RESULT:      -6.7      2.651      5.834
REMARK  Name = 
REMARK  7 active torsions:
REMARK  status: ('A' for Active; 'I' for Inactive)
REMARK    1  A    between atoms: C_1  and  C_2
REMARK    2  A    between atoms: C_2  and  C_3
REMARK    3  A    between atoms: C_3  and  C_4
REMARK    4  A    between atoms: C_12  and  C_13
REMARK    5  A    between atoms: C_13  and  O_15
REMARK    6  A    between atoms: C_16  and  C_17
REMARK    7  A    between atoms: C_17  and  C_18
REMARK                            x       y       z     vdW  Elec       q    Type
REMARK                         _______ _______ _______ _____ _____    ______ ____
ROOT
ATOM      1  C   UNL     1       4.772   4.374  16.654  0.00  0.00    +0.000 A 
ATOM      2  N   UNL     1       4.110   3.236  16.989  0.00  0.00    +0.000 NA
ATOM      3  C   UNL     1       3.066   3.253  17.815  0.00  0.00    +0.000 A 
ATOM      4  C   UNL     1       2.464   2.031  18.094  0.00  0.00    +0.000 A 
ATOM      5  C   UNL     1       1.373   1.925  18.947  0.00  0.00    +0.000 A 
ATOM      6  C   UNL     1       0.854   3.071  19.521  0.00  0.00    +0.000 A 
ATOM      7  C   UNL     1       1.434   4.309  19.229  0.00  0.00    +0.000 A 
ATOM      8  C   UNL     1       2.576   4.433  18.374  0.00  0.00    +0.000 A 
ATOM      9  C   UNL     1       3.292   5.633  18.021  0.00  0.00    +0.000 A 
ATOM     10  C   UNL     1       4.418   5.626  17.157  0.00  0.00    +0.000 A 
ENDROOT
BRANCH   9  11
ATOM     11  C   UNL     1       2.775   6.916  18.548  0.00  0.00    +0.000 C 
ATOM     12  O   UNL     1       2.127   7.748  17.952  0.00  0.00    +0.000 OA
BRANCH  11  13
ATOM     13  O   UNL     1       3.059   7.003  19.863  0.00  0.00    +0.000 OA
ATOM     14  H   UNL     1       3.236   7.951  20.023  0.00  0.00    +0.000 HD
ENDBRANCH  11  13
ENDBRANCH   9  11
BRANCH  10  15
ATOM     15  C   UNL     1       5.227   6.869  16.858  0.00  0.00    +0.000 C 
ATOM     16  C   UNL     1       6.599   6.940  17.517  0.00  0.00    +0.000 C 
ENDBRANCH  10  15
BRANCH   1  17
ATOM     17  C   UNL     1       5.917   4.109  15.706  0.00  0.00    +0.000 C 
BRANCH  17  19
ATOM     18  C   UNL     1       6.148   3.616  13.222  0.00  0.00    +0.000 C 
ATOM     19  C   UNL     1       5.607   4.570  14.276  0.00  0.00    +0.000 C 
ENDBRANCH  17  19
ENDBRANCH   1  17
TORSDOF 5
ENDMDL
MODEL 9
REMARK VINA RESULT:      -6.5      1.840      4.240
REMARK  Name = 
REMARK  7 active torsions:
REMARK  status: ('A' for Active; 'I' for Inactive)
REMARK    1  A    between atoms: C_1  and  C_2
REMARK    2  A    between atoms: C_2  and  C_3
REMARK    3  A    between atoms: C_3  and  C_4
REMARK    4  A    between atoms: C_12  and  C_13
REMARK    5  A    between atoms: C_13  and  O_15
REMARK    6  A    between atoms: C_16  and  C_17
REMARK    7  A    between atoms: C_17  and  C_18
REMARK                            x       y       z     vdW  Elec       q    Type
REMARK                         _______ _______ _______ _____ _____    ______ ____
ROOT
ATOM      1  C   UNL     1       3.099   6.953  18.216  0.00  0.00    +0.000 A 
ATOM      2  N   UNL     1       2.194   6.453  19.097  0.00  0.00    +0.000 NA
ATOM      3  C   UNL     1       2.209   5.173  19.464  0.00  0.00    +0.000 A 
ATOM      4  C   UNL     1       1.236   4.766  20.368  0.00  0.00    +0.000 A 
ATOM      5  C   UNL     1       1.149   3.453  20.817  0.00  0.00    +0.000 A 
ATOM      6  C   UNL     1       2.073   2.528  20.368  0.00  0.00    +0.000 A 
ATOM      7  C   UNL     1       3.073   2.930  19.478  0.00  0.00    +0.000 A 
ATOM      8  C   UNL     1       3.159   4.271  18.984  0.00  0.00    +0.000 A 
ATOM      9  C   UNL     1       4.108   4.809  18.042  0.00  0.00    +0.000 A 
ATOM     10  C   UNL     1       4.090   6.165  17.628  0.00  0.00    +0.000 A 
ENDROOT
BRANCH   9  11
ATOM     11  C   UNL     1       5.167   3.901  17.547  0.00  0.00    +0.000 C 
ATOM     12  O   UNL     1       5.191   3.305  16.493  0.00  0.00    +0.000 OA
BRANCH  11  13
ATOM     13  O   UNL     1       6.189   3.889  18.427  0.00  0.00    +0.000 OA
ATOM     14  H   UNL     1       6.663   3.050  18.255  0.00  0.00    +0.000 HD
ENDBRANCH  11  13
ENDBRANCH   9  11
BRANCH  10  15
ATOM     15  C   UNL     1       5.025   6.711  16.570  0.00  0.00    +0.000 C 
ATOM     16  C   UNL     1       6.382   7.189  17.071  0.00  0.00    +0.000 C 
ENDBRANCH  10  15
BRANCH   1  17
ATOM     17  C   UNL     1       2.886   8.424  17.952  0.00  0.00    +0.000 C 
BRANCH  17  19
ATOM     18  C   UNL     1       1.080  10.101  18.582  0.00  0.00    +0.000 C 
ATOM     19  C   UNL     1       1.397   8.790  17.878  0.00  0.00    +0.000 C 
ENDBRANCH  17  19
ENDBRANCH   1  17
TORSDOF 5
ENDMDL
