MODEL 1
REMARK VINA RESULT:      -8.0      0.000      0.000
REMARK  Name = 
REMARK  14 active torsions:
REMARK  status: ('A' for Active; 'I' for Inactive)
REMARK    1  A    between atoms: N_7  and  O_8
REMARK    2  A    between atoms: O_8  and  C_9
REMARK    3  A    between atoms: C_10  and  O_11
REMARK    4  A    between atoms: O_11  and  C_12
REMARK    5  A    between atoms: C_12  and  C_14
REMARK    6  A    between atoms: C_14  and  S_15
REMARK    7  A    between atoms: S_15  and  C_16
REMARK    8  A    between atoms: C_25  and  C_26
REMARK    9  A    between atoms: C_25  and  O_27
REMARK   10  A    between atoms: C_28  and  C_29
REMARK   11  A    between atoms: C_29  and  C_30
REMARK   12  A    between atoms: C_30  and  C_31
REMARK   13  A    between atoms: C_31  and  C_32
REMARK   14  A    between atoms: C_32  and  C_33
REMARK                            x       y       z     vdW  Elec       q    Type
REMARK                         _______ _______ _______ _____ _____    ______ ____
ROOT
ATOM      1  C   UNL     1       4.469   1.950  20.063  0.00  0.00    +0.000 C 
ATOM      2  C   UNL     1       4.036   3.199  19.967  0.00  0.00    +0.000 C 
ATOM      3  C   UNL     1       4.424   4.233  19.041  0.00  0.00    +0.000 C 
ATOM      4  C   UNL     1       3.683   5.330  19.173  0.00  0.00    +0.000 C 
ATOM      5  C   UNL     1       2.793   5.079  20.320  0.00  0.00    +0.000 C 
ATOM      6  O   UNL     1       2.017   5.914  20.773  0.00  0.00    +0.000 OA
ATOM      7  N   UNL     1       3.080   3.806  20.740  0.00  0.00    +0.000 N 
ATOM      8  C   UNL     1       3.834   6.592  18.429  0.00  0.00    +0.000 C 
ATOM      9  C   UNL     1       4.930   6.460  17.305  0.00  0.00    +0.000 C 
ATOM     10  C   UNL     1       4.461   7.050  15.959  0.00  0.00    +0.000 C 
ATOM     11  C   UNL     1       5.540   5.008  17.103  0.00  0.00    +0.000 C 
ATOM     12  O   UNL     1       5.485   4.090  18.213  0.00  0.00    +0.000 OA
ENDROOT
BRANCH   7  13
ATOM     13  O   UNL     1       2.454   3.086  21.770  0.00  0.00    +0.000 OA
ATOM     14  C   UNL     1       1.136   2.696  21.385  0.00  0.00    +0.000 C 
ENDBRANCH   7  13
BRANCH   9  15
ATOM     15  O   UNL     1       6.048   7.308  17.685  0.00  0.00    +0.000 OA
ATOM     16  H   UNL     1       6.754   7.201  17.018  0.00  0.00    +0.000 HD
ENDBRANCH   9  15
BRANCH   8  17
ATOM     17  O   UNL     1       2.549   6.957  17.882  0.00  0.00    +0.000 OA
BRANCH  17  18
ATOM     18  C   UNL     1       2.201   8.279  18.023  0.00  0.00    +0.000 C 
ATOM     19  O   UNL     1       2.494   9.158  17.228  0.00  0.00    +0.000 OA
BRANCH  18  20
ATOM     20  C   UNL     1       1.396   8.472  19.299  0.00  0.00    +0.000 C 
BRANCH  20  21
ATOM     21  S   UNL     1       1.079  10.247  19.575  0.00  0.00    +0.000 S 
BRANCH  21  22
ATOM     22  C   UNL     1      -0.441  10.457  18.796  0.00  0.00    +0.000 A 
ATOM     23  N   UNL     1      -1.520  11.024  19.277  0.00  0.00    +0.000 NA
ATOM     24  C   UNL     1      -2.420  10.998  18.234  0.00  0.00    +0.000 A 
ATOM     25  C   UNL     1      -3.728  11.502  18.163  0.00  0.00    +0.000 A 
ATOM     26  C   UNL     1      -4.452  11.340  16.974  0.00  0.00    +0.000 A 
ATOM     27  C   UNL     1      -3.885  10.691  15.874  0.00  0.00    +0.000 A 
ATOM     28  C   UNL     1      -2.577  10.193  15.917  0.00  0.00    +0.000 A 
ATOM     29  C   UNL     1      -1.878  10.371  17.115  0.00  0.00    +0.000 A 
ATOM     30  N   UNL     1      -0.605  10.038  17.507  0.00  0.00    +0.000 N 
ATOM     31  H   UNL     1       0.102   9.589  16.945  0.00  0.00    +0.000 HD
ENDBRANCH  21  22
ENDBRANCH  20  21
ENDBRANCH  18  20
ENDBRANCH  17  18
ENDBRANCH   8  17
BRANCH  11  32
ATOM     32  C   UNL     1       5.024   4.255  15.865  0.00  0.00    +0.000 C 
BRANCH  32  33
ATOM     33  C   UNL     1       6.151   3.665  15.018  0.00  0.00    +0.000 C 
BRANCH  33  34
ATOM     34  C   UNL     1       6.873   4.822  14.343  0.00  0.00    +0.000 C 
BRANCH  34  35
ATOM     35  C   UNL     1       7.053   4.598  12.853  0.00  0.00    +0.000 C 
ATOM     36  C   UNL     1       6.221   3.409  12.413  0.00  0.00    +0.000 C 
ENDBRANCH  34  35
ENDBRANCH  33  34
ENDBRANCH  32  33
ENDBRANCH  11  32
TORSDOF 11
ENDMDL
MODEL 2
REMARK VINA RESULT:      -7.6      2.195      2.711
REMARK  Name = 
REMARK  14 active torsions:
REMARK  status: ('A' for Active; 'I' for Inactive)
REMARK    1  A    between atoms: N_7  and  O_8
REMARK    2  A    between atoms: O_8  and  C_9
REMARK    3  A    between atoms: C_10  and  O_11
REMARK    4  A    between atoms: O_11  and  C_12
REMARK    5  A    between atoms: C_12  and  C_14
REMARK    6  A    between atoms: C_14  and  S_15
REMARK    7  A    between atoms: S_15  and  C_16
REMARK    8  A    between atoms: C_25  and  C_26
REMARK    9  A    between atoms: C_25  and  O_27
REMARK   10  A    between atoms: C_28  and  C_29
REMARK   11  A    between atoms: C_29  and  C_30
REMARK   12  A    between atoms: C_30  and  C_31
REMARK   13  A    between atoms: C_31  and  C_32
REMARK   14  A    between atoms: C_32  and  C_33
REMARK                            x       y       z     vdW  Elec       q    Type
REMARK                         _______ _______ _______ _____ _____    ______ ____
ROOT
ATOM      1  C   UNL     1       3.616   1.273  18.487  0.00  0.00    +0.000 C 
ATOM      2  C   UNL     1       3.369   2.551  18.735  0.00  0.00    +0.000 C 
ATOM      3  C   UNL     1       4.021   3.726  18.215  0.00  0.00    +0.000 C 
ATOM      4  C   UNL     1       3.420   4.848  18.601  0.00  0.00    +0.000 C 
ATOM      5  C   UNL     1       2.346   4.432  19.519  0.00  0.00    +0.000 C 
ATOM      6  O   UNL     1       1.628   5.221  20.126  0.00  0.00    +0.000 OA
ATOM      7  N   UNL     1       2.398   3.063  19.556  0.00  0.00    +0.000 N 
ATOM      8  C   UNL     1       3.843   6.226  18.299  0.00  0.00    +0.000 C 
ATOM      9  C   UNL     1       5.066   6.238  17.305  0.00  0.00    +0.000 C 
ATOM     10  C   UNL     1       4.882   7.261  16.165  0.00  0.00    +0.000 C 
ATOM     11  C   UNL     1       5.502   4.824  16.730  0.00  0.00    +0.000 C 
ATOM     12  O   UNL     1       5.165   3.649  17.494  0.00  0.00    +0.000 OA
ENDROOT
BRANCH   7  13
ATOM     13  O   UNL     1       1.538   2.194  20.247  0.00  0.00    +0.000 OA
ATOM     14  C   UNL     1       1.608   2.426  21.654  0.00  0.00    +0.000 C 
ENDBRANCH   7  13
BRANCH   9  15
ATOM     15  O   UNL     1       6.217   6.739  18.038  0.00  0.00    +0.000 OA
ATOM     16  H   UNL     1       5.988   7.615  18.406  0.00  0.00    +0.000 HD
ENDBRANCH   9  15
BRANCH   8  17
ATOM     17  O   UNL     1       2.712   6.944  17.763  0.00  0.00    +0.000 OA
BRANCH  17  18
ATOM     18  C   UNL     1       2.219   7.948  18.562  0.00  0.00    +0.000 C 
ATOM     19  O   UNL     1       2.361   7.999  19.774  0.00  0.00    +0.000 OA
BRANCH  18  20
ATOM     20  C   UNL     1       1.492   8.980  17.714  0.00  0.00    +0.000 C 
BRANCH  20  21
ATOM     21  S   UNL     1       2.031  10.660  18.174  0.00  0.00    +0.000 S 
BRANCH  21  22
ATOM     22  C   UNL     1       0.913  11.057  19.421  0.00  0.00    +0.000 A 
ATOM     23  N   UNL     1      -0.047  11.949  19.387  0.00  0.00    +0.000 NA
ATOM     24  C   UNL     1      -0.685  11.817  20.601  0.00  0.00    +0.000 A 
ATOM     25  C   UNL     1      -1.811  12.491  21.102  0.00  0.00    +0.000 A 
ATOM     26  C   UNL     1      -2.268  12.178  22.389  0.00  0.00    +0.000 A 
ATOM     27  C   UNL     1      -1.620  11.214  23.164  0.00  0.00    +0.000 A 
ATOM     28  C   UNL     1      -0.504  10.520  22.680  0.00  0.00    +0.000 A 
ATOM     29  C   UNL     1      -0.071  10.850  21.392  0.00  0.00    +0.000 A 
ATOM     30  N   UNL     1       0.949  10.378  20.604  0.00  0.00    +0.000 N 
ATOM     31  H   UNL     1       1.600   9.643  20.835  0.00  0.00    +0.000 HD
ENDBRANCH  21  22
ENDBRANCH  20  21
ENDBRANCH  18  20
ENDBRANCH  17  18
ENDBRANCH   8  17
BRANCH  11  32
ATOM     32  C   UNL     1       5.080   4.557  15.276  0.00  0.00    +0.000 C 
BRANCH  32  33
ATOM     33  C   UNL     1       5.965   3.522  14.582  0.00  0.00    +0.000 C 
BRANCH  33  34
ATOM     34  C   UNL     1       6.162   3.976  13.143  0.00  0.00    +0.000 C 
BRANCH  34  35
ATOM     35  C   UNL     1       5.218   3.275  12.184  0.00  0.00    +0.000 C 
ATOM     36  C   UNL     1       5.922   2.088  11.554  0.00  0.00    +0.000 C 
ENDBRANCH  34  35
ENDBRANCH  33  34
ENDBRANCH  32  33
ENDBRANCH  11  32
TORSDOF 11
ENDMDL
MODEL 3
REMARK VINA RESULT:      -7.6      1.234      1.714
REMARK  Name = 
REMARK  14 active torsions:
REMARK  status: ('A' for Active; 'I' for Inactive)
REMARK    1  A    between atoms: N_7  and  O_8
REMARK    2  A    between atoms: O_8  and  C_9
REMARK    3  A    between atoms: C_10  and  O_11
REMARK    4  A    between atoms: O_11  and  C_12
REMARK    5  A    between atoms: C_12  and  C_14
REMARK    6  A    between atoms: C_14  and  S_15
REMARK    7  A    between atoms: S_15  and  C_16
REMARK    8  A    between atoms: C_25  and  C_26
REMARK    9  A    between atoms: C_25  and  O_27
REMARK   10  A    between atoms: C_28  and  C_29
REMARK   11  A    between atoms: C_29  and  C_30
REMARK   12  A    between atoms: C_30  and  C_31
REMARK   13  A    between atoms: C_31  and  C_32
REMARK   14  A    between atoms: C_32  and  C_33
REMARK                            x       y       z     vdW  Elec       q    Type
REMARK                         _______ _______ _______ _____ _____    ______ ____
ROOT
ATOM      1  C   UNL     1       3.906   1.217  18.177  0.00  0.00    +0.000 C 
ATOM      2  C   UNL     1       3.614   2.474  18.481  0.00  0.00    +0.000 C 
ATOM      3  C   UNL     1       4.226   3.693  18.016  0.00  0.00    +0.000 C 
ATOM      4  C   UNL     1       3.585   4.775  18.449  0.00  0.00    +0.000 C 
ATOM      5  C   UNL     1       2.524   4.282  19.343  0.00  0.00    +0.000 C 
ATOM      6  O   UNL     1       1.777   5.018  19.981  0.00  0.00    +0.000 OA
ATOM      7  N   UNL     1       2.623   2.916  19.320  0.00  0.00    +0.000 N 
ATOM      8  C   UNL     1       3.961   6.179  18.210  0.00  0.00    +0.000 C 
ATOM      9  C   UNL     1       5.186   6.278  17.223  0.00  0.00    +0.000 C 
ATOM     10  C   UNL     1       4.969   7.343  16.129  0.00  0.00    +0.000 C 
ATOM     11  C   UNL     1       5.673   4.906  16.588  0.00  0.00    +0.000 C 
ATOM     12  O   UNL     1       5.374   3.687  17.298  0.00  0.00    +0.000 OA
ENDROOT
BRANCH   7  13
ATOM     13  O   UNL     1       1.792   1.987  19.967  0.00  0.00    +0.000 OA
ATOM     14  C   UNL     1       0.522   1.908  19.320  0.00  0.00    +0.000 C 
ENDBRANCH   7  13
BRANCH   9  15
ATOM     15  O   UNL     1       6.317   6.785  17.983  0.00  0.00    +0.000 OA
ATOM     16  H   UNL     1       6.433   7.730  17.764  0.00  0.00    +0.000 HD
ENDBRANCH   9  15
BRANCH   8  17
ATOM     17  O   UNL     1       2.807   6.881  17.702  0.00  0.00    +0.000 OA
BRANCH  17  18
ATOM     18  C   UNL     1       2.339   7.899  18.497  0.00  0.00    +0.000 C 
ATOM     19  O   UNL     1       2.294   7.858  19.717  0.00  0.00    +0.000 OA
BRANCH  18  20
ATOM     20  C   UNL     1       1.906   9.076  17.636  0.00  0.00    +0.000 C 
BRANCH  20  21
ATOM     21  S   UNL     1       1.531  10.516  18.690  0.00  0.00    +0.000 S 
BRANCH  21  22
ATOM     22  C   UNL     1      -0.169  10.679  18.470  0.00  0.00    +0.000 A 
ATOM     23  N   UNL     1      -0.953   9.964  17.701  0.00  0.00    +0.000 NA
ATOM     24  C   UNL     1      -2.217  10.452  17.946  0.00  0.00    +0.000 A 
ATOM     25  C   UNL     1      -3.456  10.038  17.431  0.00  0.00    +0.000 A 
ATOM     26  C   UNL     1      -4.616  10.712  17.836  0.00  0.00    +0.000 A 
ATOM     27  C   UNL     1      -4.548  11.775  18.738  0.00  0.00    +0.000 A 
ATOM     28  C   UNL     1      -3.325  12.197  19.276  0.00  0.00    +0.000 A 
ATOM     29  C   UNL     1      -2.185  11.505  18.856  0.00  0.00    +0.000 A 
ATOM     30  N   UNL     1      -0.854  11.624  19.176  0.00  0.00    +0.000 N 
ATOM     31  H   UNL     1      -0.447  12.271  19.833  0.00  0.00    +0.000 HD
ENDBRANCH  21  22
ENDBRANCH  20  21
ENDBRANCH  18  20
ENDBRANCH  17  18
ENDBRANCH   8  17
BRANCH  11  32
ATOM     32  C   UNL     1       5.264   4.690  15.122  0.00  0.00    +0.000 C 
BRANCH  32  33
ATOM     33  C   UNL     1       6.225   3.771  14.368  0.00  0.00    +0.000 C 
BRANCH  33  34
ATOM     34  C   UNL     1       6.103   4.096  12.886  0.00  0.00    +0.000 C 
BRANCH  34  35
ATOM     35  C   UNL     1       5.613   2.909  12.076  0.00  0.00    +0.000 C 
ATOM     36  C   UNL     1       4.327   3.277  11.360  0.00  0.00    +0.000 C 
ENDBRANCH  34  35
ENDBRANCH  33  34
ENDBRANCH  32  33
ENDBRANCH  11  32
TORSDOF 11
ENDMDL
MODEL 4
REMARK VINA RESULT:      -7.6      0.869      1.394
REMARK  Name = 
REMARK  14 active torsions:
REMARK  status: ('A' for Active; 'I' for Inactive)
REMARK    1  A    between atoms: N_7  and  O_8
REMARK    2  A    between atoms: O_8  and  C_9
REMARK    3  A    between atoms: C_10  and  O_11
REMARK    4  A    between atoms: O_11  and  C_12
REMARK    5  A    between atoms: C_12  and  C_14
REMARK    6  A    between atoms: C_14  and  S_15
REMARK    7  A    between atoms: S_15  and  C_16
REMARK    8  A    between atoms: C_25  and  C_26
REMARK    9  A    between atoms: C_25  and  O_27
REMARK   10  A    between atoms: C_28  and  C_29
REMARK   11  A    between atoms: C_29  and  C_30
REMARK   12  A    between atoms: C_30  and  C_31
REMARK   13  A    between atoms: C_31  and  C_32
REMARK   14  A    between atoms: C_32  and  C_33
REMARK                            x       y       z     vdW  Elec       q    Type
REMARK                         _______ _______ _______ _____ _____    ______ ____
ROOT
ATOM      1  C   UNL     1       3.684   1.368  18.464  0.00  0.00    +0.000 C 
ATOM      2  C   UNL     1       3.417   2.649  18.677  0.00  0.00    +0.000 C 
ATOM      3  C   UNL     1       4.055   3.819  18.129  0.00  0.00    +0.000 C 
ATOM      4  C   UNL     1       3.435   4.942  18.482  0.00  0.00    +0.000 C 
ATOM      5  C   UNL     1       2.363   4.535  19.406  0.00  0.00    +0.000 C 
ATOM      6  O   UNL     1       1.631   5.329  19.988  0.00  0.00    +0.000 OA
ATOM      7  N   UNL     1       2.435   3.169  19.480  0.00  0.00    +0.000 N 
ATOM      8  C   UNL     1       3.840   6.317  18.145  0.00  0.00    +0.000 C 
ATOM      9  C   UNL     1       5.068   6.321  17.157  0.00  0.00    +0.000 C 
ATOM     10  C   UNL     1       4.875   7.311  15.989  0.00  0.00    +0.000 C 
ATOM     11  C   UNL     1       5.528   4.899  16.622  0.00  0.00    +0.000 C 
ATOM     12  O   UNL     1       5.204   3.739  17.416  0.00  0.00    +0.000 OA
ENDROOT
BRANCH   7  13
ATOM     13  O   UNL     1       1.584   2.306  20.189  0.00  0.00    +0.000 OA
ATOM     14  C   UNL     1       1.684   2.540  21.594  0.00  0.00    +0.000 C 
ENDBRANCH   7  13
BRANCH   9  15
ATOM     15  O   UNL     1       6.208   6.858  17.882  0.00  0.00    +0.000 OA
ATOM     16  H   UNL     1       6.483   7.689  17.447  0.00  0.00    +0.000 HD
ENDBRANCH   9  15
BRANCH   8  17
ATOM     17  O   UNL     1       2.702   7.005  17.585  0.00  0.00    +0.000 OA
BRANCH  17  18
ATOM     18  C   UNL     1       2.490   8.278  18.058  0.00  0.00    +0.000 C 
ATOM     19  O   UNL     1       2.963   9.287  17.558  0.00  0.00    +0.000 OA
BRANCH  18  20
ATOM     20  C   UNL     1       1.578   8.238  19.273  0.00  0.00    +0.000 C 
BRANCH  20  21
ATOM     21  S   UNL     1       1.107   9.932  19.757  0.00  0.00    +0.000 S 
BRANCH  21  22
ATOM     22  C   UNL     1      -0.289  10.198  18.787  0.00  0.00    +0.000 A 
ATOM     23  N   UNL     1      -0.539   9.727  17.590  0.00  0.00    +0.000 NA
ATOM     24  C   UNL     1      -1.809  10.176  17.300  0.00  0.00    +0.000 A 
ATOM     25  C   UNL     1      -2.606   9.946  16.167  0.00  0.00    +0.000 A 
ATOM     26  C   UNL     1      -3.878  10.531  16.106  0.00  0.00    +0.000 A 
ATOM     27  C   UNL     1      -4.352  11.327  17.151  0.00  0.00    +0.000 A 
ATOM     28  C   UNL     1      -3.579  11.559  18.296  0.00  0.00    +0.000 A 
ATOM     29  C   UNL     1      -2.316  10.962  18.332  0.00  0.00    +0.000 A 
ATOM     30  N   UNL     1      -1.317  10.954  19.274  0.00  0.00    +0.000 N 
ATOM     31  H   UNL     1      -1.336  11.399  20.178  0.00  0.00    +0.000 HD
ENDBRANCH  21  22
ENDBRANCH  20  21
ENDBRANCH  18  20
ENDBRANCH  17  18
ENDBRANCH   8  17
BRANCH  11  32
ATOM     32  C   UNL     1       5.116   4.587  15.173  0.00  0.00    +0.000 C 
BRANCH  32  33
ATOM     33  C   UNL     1       6.029   3.558  14.507  0.00  0.00    +0.000 C 
BRANCH  33  34
ATOM     34  C   UNL     1       6.172   3.951  13.043  0.00  0.00    +0.000 C 
BRANCH  34  35
ATOM     35  C   UNL     1       5.134   3.280  12.164  0.00  0.00    +0.000 C 
ATOM     36  C   UNL     1       5.741   2.060  11.497  0.00  0.00    +0.000 C 
ENDBRANCH  34  35
ENDBRANCH  33  34
ENDBRANCH  32  33
ENDBRANCH  11  32
TORSDOF 11
ENDMDL
MODEL 5
REMARK VINA RESULT:      -7.5      2.490      3.141
REMARK  Name = 
REMARK  14 active torsions:
REMARK  status: ('A' for Active; 'I' for Inactive)
REMARK    1  A    between atoms: N_7  and  O_8
REMARK    2  A    between atoms: O_8  and  C_9
REMARK    3  A    between atoms: C_10  and  O_11
REMARK    4  A    between atoms: O_11  and  C_12
REMARK    5  A    between atoms: C_12  and  C_14
REMARK    6  A    between atoms: C_14  and  S_15
REMARK    7  A    between atoms: S_15  and  C_16
REMARK    8  A    between atoms: C_25  and  C_26
REMARK    9  A    between atoms: C_25  and  O_27
REMARK   10  A    between atoms: C_28  and  C_29
REMARK   11  A    between atoms: C_29  and  C_30
REMARK   12  A    between atoms: C_30  and  C_31
REMARK   13  A    between atoms: C_31  and  C_32
REMARK   14  A    between atoms: C_32  and  C_33
REMARK                            x       y       z     vdW  Elec       q    Type
REMARK                         _______ _______ _______ _____ _____    ______ ____
ROOT
ATOM      1  C   UNL     1       3.666   1.332  18.710  0.00  0.00    +0.000 C 
ATOM      2  C   UNL     1       3.358   2.610  18.879  0.00  0.00    +0.000 C 
ATOM      3  C   UNL     1       3.969   3.781  18.302  0.00  0.00    +0.000 C 
ATOM      4  C   UNL     1       3.311   4.895  18.610  0.00  0.00    +0.000 C 
ATOM      5  C   UNL     1       2.238   4.485  19.532  0.00  0.00    +0.000 C 
ATOM      6  O   UNL     1       1.474   5.275  20.078  0.00  0.00    +0.000 OA
ATOM      7  N   UNL     1       2.349   3.125  19.651  0.00  0.00    +0.000 N 
ATOM      8  C   UNL     1       3.679   6.271  18.235  0.00  0.00    +0.000 C 
ATOM      9  C   UNL     1       4.921   6.281  17.264  0.00  0.00    +0.000 C 
ATOM     10  C   UNL     1       4.715   7.226  16.063  0.00  0.00    +0.000 C 
ATOM     11  C   UNL     1       5.430   4.857  16.782  0.00  0.00    +0.000 C 
ATOM     12  O   UNL     1       5.130   3.714  17.607  0.00  0.00    +0.000 OA
ENDROOT
BRANCH   7  13
ATOM     13  O   UNL     1       1.515   2.259  20.375  0.00  0.00    +0.000 OA
ATOM     14  C   UNL     1       1.610   2.520  21.776  0.00  0.00    +0.000 C 
ENDBRANCH   7  13
BRANCH   9  15
ATOM     15  O   UNL     1       6.034   6.875  17.987  0.00  0.00    +0.000 OA
ATOM     16  H   UNL     1       6.151   6.384  18.824  0.00  0.00    +0.000 HD
ENDBRANCH   9  15
BRANCH   8  17
ATOM     17  O   UNL     1       2.529   6.905  17.638  0.00  0.00    +0.000 OA
BRANCH  17  18
ATOM     18  C   UNL     1       2.312   8.209  18.015  0.00  0.00    +0.000 C 
ATOM     19  O   UNL     1       2.284   9.156  17.244  0.00  0.00    +0.000 OA
BRANCH  18  20
ATOM     20  C   UNL     1       2.100   8.287  19.519  0.00  0.00    +0.000 C 
BRANCH  20  21
ATOM     21  S   UNL     1       0.547   9.170  19.886  0.00  0.00    +0.000 S 
BRANCH  21  22
ATOM     22  C   UNL     1       1.072  10.809  19.906  0.00  0.00    +0.000 A 
ATOM     23  N   UNL     1       1.217  11.595  20.945  0.00  0.00    +0.000 NA
ATOM     24  C   UNL     1       1.726  12.765  20.425  0.00  0.00    +0.000 A 
ATOM     25  C   UNL     1       2.113  13.945  21.079  0.00  0.00    +0.000 A 
ATOM     26  C   UNL     1       2.599  15.014  20.314  0.00  0.00    +0.000 A 
ATOM     27  C   UNL     1       2.700  14.913  18.925  0.00  0.00    +0.000 A 
ATOM     28  C   UNL     1       2.333  13.740  18.252  0.00  0.00    +0.000 A 
ATOM     29  C   UNL     1       1.854  12.689  19.040  0.00  0.00    +0.000 A 
ATOM     30  N   UNL     1       1.429  11.419  18.739  0.00  0.00    +0.000 N 
ATOM     31  H   UNL     1       1.406  10.991  17.826  0.00  0.00    +0.000 HD
ENDBRANCH  21  22
ENDBRANCH  20  21
ENDBRANCH  18  20
ENDBRANCH  17  18
ENDBRANCH   8  17
BRANCH  11  32
ATOM     32  C   UNL     1       5.050   4.487  15.338  0.00  0.00    +0.000 C 
BRANCH  32  33
ATOM     33  C   UNL     1       6.181   3.783  14.589  0.00  0.00    +0.000 C 
BRANCH  33  34
ATOM     34  C   UNL     1       6.098   4.206  13.129  0.00  0.00    +0.000 C 
BRANCH  34  35
ATOM     35  C   UNL     1       5.803   3.036  12.208  0.00  0.00    +0.000 C 
ATOM     36  C   UNL     1       4.452   3.236  11.548  0.00  0.00    +0.000 C 
ENDBRANCH  34  35
ENDBRANCH  33  34
ENDBRANCH  32  33
ENDBRANCH  11  32
TORSDOF 11
ENDMDL
MODEL 6
REMARK VINA RESULT:      -7.4      2.558      3.365
REMARK  Name = 
REMARK  14 active torsions:
REMARK  status: ('A' for Active; 'I' for Inactive)
REMARK    1  A    between atoms: N_7  and  O_8
REMARK    2  A    between atoms: O_8  and  C_9
REMARK    3  A    between atoms: C_10  and  O_11
REMARK    4  A    between atoms: O_11  and  C_12
REMARK    5  A    between atoms: C_12  and  C_14
REMARK    6  A    between atoms: C_14  and  S_15
REMARK    7  A    between atoms: S_15  and  C_16
REMARK    8  A    between atoms: C_25  and  C_26
REMARK    9  A    between atoms: C_25  and  O_27
REMARK   10  A    between atoms: C_28  and  C_29
REMARK   11  A    between atoms: C_29  and  C_30
REMARK   12  A    between atoms: C_30  and  C_31
REMARK   13  A    between atoms: C_31  and  C_32
REMARK   14  A    between atoms: C_32  and  C_33
REMARK                            x       y       z     vdW  Elec       q    Type
REMARK                         _______ _______ _______ _____ _____    ______ ____
ROOT
ATOM      1  C   UNL     1       3.641   1.248  18.565  0.00  0.00    +0.000 C 
ATOM      2  C   UNL     1       3.399   2.523  18.833  0.00  0.00    +0.000 C 
ATOM      3  C   UNL     1       4.012   3.705  18.282  0.00  0.00    +0.000 C 
ATOM      4  C   UNL     1       3.425   4.821  18.705  0.00  0.00    +0.000 C 
ATOM      5  C   UNL     1       2.407   4.393  19.681  0.00  0.00    +0.000 C 
ATOM      6  O   UNL     1       1.718   5.174  20.330  0.00  0.00    +0.000 OA
ATOM      7  N   UNL     1       2.471   3.025  19.709  0.00  0.00    +0.000 N 
ATOM      8  C   UNL     1       3.820   6.203  18.386  0.00  0.00    +0.000 C 
ATOM      9  C   UNL     1       4.986   6.229  17.326  0.00  0.00    +0.000 C 
ATOM     10  C   UNL     1       4.730   7.255  16.202  0.00  0.00    +0.000 C 
ATOM     11  C   UNL     1       5.399   4.820  16.721  0.00  0.00    +0.000 C 
ATOM     12  O   UNL     1       5.114   3.640  17.498  0.00  0.00    +0.000 OA
ENDROOT
BRANCH   7  13
ATOM     13  O   UNL     1       1.658   2.146  20.442  0.00  0.00    +0.000 OA
ATOM     14  C   UNL     1       1.718   2.447  21.837  0.00  0.00    +0.000 C 
ENDBRANCH   7  13
BRANCH   9  15
ATOM     15  O   UNL     1       6.172   6.736  17.996  0.00  0.00    +0.000 OA
ATOM     16  H   UNL     1       6.527   6.026  18.567  0.00  0.00    +0.000 HD
ENDBRANCH   9  15
BRANCH   8  17
ATOM     17  O   UNL     1       2.655   6.915  17.918  0.00  0.00    +0.000 OA
BRANCH  17  18
ATOM     18  C   UNL     1       2.254   7.970  18.702  0.00  0.00    +0.000 C 
ATOM     19  O   UNL     1       2.190   7.938  19.921  0.00  0.00    +0.000 OA
BRANCH  18  20
ATOM     20  C   UNL     1       1.920   9.170  17.830  0.00  0.00    +0.000 C 
BRANCH  20  21
ATOM     21  S   UNL     1       0.555  10.123  18.576  0.00  0.00    +0.000 S 
BRANCH  21  22
ATOM     22  C   UNL     1       1.197  11.720  18.567  0.00  0.00    +0.000 A 
ATOM     23  N   UNL     1       2.406  12.099  18.235  0.00  0.00    +0.000 NA
ATOM     24  C   UNL     1       2.376  13.473  18.331  0.00  0.00    +0.000 A 
ATOM     25  C   UNL     1       3.381  14.415  18.055  0.00  0.00    +0.000 A 
ATOM     26  C   UNL     1       3.101  15.776  18.242  0.00  0.00    +0.000 A 
ATOM     27  C   UNL     1       1.847  16.194  18.692  0.00  0.00    +0.000 A 
ATOM     28  C   UNL     1       0.826  15.273  18.960  0.00  0.00    +0.000 A 
ATOM     29  C   UNL     1       1.131  13.923  18.763  0.00  0.00    +0.000 A 
ATOM     30  N   UNL     1       0.395  12.772  18.902  0.00  0.00    +0.000 N 
ATOM     31  H   UNL     1      -0.573  12.705  19.176  0.00  0.00    +0.000 HD
ENDBRANCH  21  22
ENDBRANCH  20  21
ENDBRANCH  18  20
ENDBRANCH  17  18
ENDBRANCH   8  17
BRANCH  11  32
ATOM     32  C   UNL     1       4.898   4.556  15.291  0.00  0.00    +0.000 C 
BRANCH  32  33
ATOM     33  C   UNL     1       6.037   4.337  14.296  0.00  0.00    +0.000 C 
BRANCH  33  34
ATOM     34  C   UNL     1       5.441   3.693  13.051  0.00  0.00    +0.000 C 
BRANCH  34  35
ATOM     35  C   UNL     1       6.479   2.935  12.245  0.00  0.00    +0.000 C 
ATOM     36  C   UNL     1       5.796   1.870  11.407  0.00  0.00    +0.000 C 
ENDBRANCH  34  35
ENDBRANCH  33  34
ENDBRANCH  32  33
ENDBRANCH  11  32
TORSDOF 11
ENDMDL
MODEL 7
REMARK VINA RESULT:      -7.0      3.897     10.565
REMARK  Name = 
REMARK  14 active torsions:
REMARK  status: ('A' for Active; 'I' for Inactive)
REMARK    1  A    between atoms: N_7  and  O_8
REMARK    2  A    between atoms: O_8  and  C_9
REMARK    3  A    between atoms: C_10  and  O_11
REMARK    4  A    between atoms: O_11  and  C_12
REMARK    5  A    between atoms: C_12  and  C_14
REMARK    6  A    between atoms: C_14  and  S_15
REMARK    7  A    between atoms: S_15  and  C_16
REMARK    8  A    between atoms: C_25  and  C_26
REMARK    9  A    between atoms: C_25  and  O_27
REMARK   10  A    between atoms: C_28  and  C_29
REMARK   11  A    between atoms: C_29  and  C_30
REMARK   12  A    between atoms: C_30  and  C_31
REMARK   13  A    between atoms: C_31  and  C_32
REMARK   14  A    between atoms: C_32  and  C_33
REMARK                            x       y       z     vdW  Elec       q    Type
REMARK                         _______ _______ _______ _____ _____    ______ ____
ROOT
ATOM      1  C   UNL     1      -5.365  11.627  17.502  0.00  0.00    +0.000 C 
ATOM      2  C   UNL     1      -4.099  11.418  17.835  0.00  0.00    +0.000 C 
ATOM      3  C   UNL     1      -3.338  11.972  18.926  0.00  0.00    +0.000 C 
ATOM      4  C   UNL     1      -2.123  11.437  19.016  0.00  0.00    +0.000 C 
ATOM      5  C   UNL     1      -1.999  10.529  17.862  0.00  0.00    +0.000 C 
ATOM      6  O   UNL     1      -0.972   9.916  17.588  0.00  0.00    +0.000 OA
ATOM      7  N   UNL     1      -3.202  10.592  17.209  0.00  0.00    +0.000 N 
ATOM      8  C   UNL     1      -1.066  11.799  19.975  0.00  0.00    +0.000 C 
ATOM      9  C   UNL     1      -1.593  12.844  21.031  0.00  0.00    +0.000 C 
ATOM     10  C   UNL     1      -1.189  12.471  22.473  0.00  0.00    +0.000 C 
ATOM     11  C   UNL     1      -3.141  13.186  20.949  0.00  0.00    +0.000 C 
ATOM     12  O   UNL     1      -3.815  12.983  19.690  0.00  0.00    +0.000 OA
ENDROOT
BRANCH   7  13
ATOM     13  O   UNL     1      -3.599   9.860  16.078  0.00  0.00    +0.000 OA
ATOM     14  C   UNL     1      -3.013  10.401  14.894  0.00  0.00    +0.000 C 
ENDBRANCH   7  13
BRANCH   9  15
ATOM     15  O   UNL     1      -0.898  14.097  20.788  0.00  0.00    +0.000 OA
ATOM     16  H   UNL     1      -0.799  14.209  19.822  0.00  0.00    +0.000 HD
ENDBRANCH   9  15
BRANCH   8  17
ATOM     17  O   UNL     1      -0.591  10.593  20.608  0.00  0.00    +0.000 OA
BRANCH  17  18
ATOM     18  C   UNL     1       0.764  10.377  20.523  0.00  0.00    +0.000 C 
ATOM     19  O   UNL     1       1.601  11.264  20.444  0.00  0.00    +0.000 OA
BRANCH  18  20
ATOM     20  C   UNL     1       1.057   8.885  20.557  0.00  0.00    +0.000 C 
BRANCH  20  21
ATOM     21  S   UNL     1       2.082   8.418  19.123  0.00  0.00    +0.000 S 
BRANCH  21  22
ATOM     22  C   UNL     1       2.076   6.700  19.232  0.00  0.00    +0.000 A 
ATOM     23  N   UNL     1       1.882   5.962  20.298  0.00  0.00    +0.000 NA
ATOM     24  C   UNL     1       1.904   4.666  19.830  0.00  0.00    +0.000 A 
ATOM     25  C   UNL     1       1.711   3.459  20.520  0.00  0.00    +0.000 A 
ATOM     26  C   UNL     1       1.793   2.254  19.809  0.00  0.00    +0.000 A 
ATOM     27  C   UNL     1       2.059   2.248  18.438  0.00  0.00    +0.000 A 
ATOM     28  C   UNL     1       2.240   3.441  17.727  0.00  0.00    +0.000 A 
ATOM     29  C   UNL     1       2.151   4.628  18.460  0.00  0.00    +0.000 A 
ATOM     30  N   UNL     1       2.253   5.950  18.106  0.00  0.00    +0.000 N 
ATOM     31  H   UNL     1       2.405   6.317  17.178  0.00  0.00    +0.000 HD
ENDBRANCH  21  22
ENDBRANCH  20  21
ENDBRANCH  18  20
ENDBRANCH  17  18
ENDBRANCH   8  17
BRANCH  11  32
ATOM     32  C   UNL     1      -4.008  12.533  22.039  0.00  0.00    +0.000 C 
BRANCH  32  33
ATOM     33  C   UNL     1      -5.290  13.315  22.324  0.00  0.00    +0.000 C 
BRANCH  33  34
ATOM     34  C   UNL     1      -5.310  13.639  23.811  0.00  0.00    +0.000 C 
BRANCH  34  35
ATOM     35  C   UNL     1      -4.026  13.226  24.506  0.00  0.00    +0.000 C 
ATOM     36  C   UNL     1      -3.265  14.462  24.947  0.00  0.00    +0.000 C 
ENDBRANCH  34  35
ENDBRANCH  33  34
ENDBRANCH  32  33
ENDBRANCH  11  32
TORSDOF 11
ENDMDL
MODEL 8
REMARK VINA RESULT:      -7.0      2.772      3.640
REMARK  Name = 
REMARK  14 active torsions:
REMARK  status: ('A' for Active; 'I' for Inactive)
REMARK    1  A    between atoms: N_7  and  O_8
REMARK    2  A    between atoms: O_8  and  C_9
REMARK    3  A    between atoms: C_10  and  O_11
REMARK    4  A    between atoms: O_11  and  C_12
REMARK    5  A    between atoms: C_12  and  C_14
REMARK    6  A    between atoms: C_14  and  S_15
REMARK    7  A    between atoms: S_15  and  C_16
REMARK    8  A    between atoms: C_25  and  C_26
REMARK    9  A    between atoms: C_25  and  O_27
REMARK   10  A    between atoms: C_28  and  C_29
REMARK   11  A    between atoms: C_29  and  C_30
REMARK   12  A    between atoms: C_30  and  C_31
REMARK   13  A    between atoms: C_31  and  C_32
REMARK   14  A    between atoms: C_32  and  C_33
REMARK                            x       y       z     vdW  Elec       q    Type
REMARK                         _______ _______ _______ _____ _____    ______ ____
ROOT
ATOM      1  C   UNL     1       3.851   1.220  18.313  0.00  0.00    +0.000 C 
ATOM      2  C   UNL     1       3.585   2.482  18.617  0.00  0.00    +0.000 C 
ATOM      3  C   UNL     1       4.191   3.690  18.115  0.00  0.00    +0.000 C 
ATOM      4  C   UNL     1       3.580   4.783  18.565  0.00  0.00    +0.000 C 
ATOM      5  C   UNL     1       2.553   4.309  19.508  0.00  0.00    +0.000 C 
ATOM      6  O   UNL     1       1.842   5.059  20.170  0.00  0.00    +0.000 OA
ATOM      7  N   UNL     1       2.637   2.942  19.493  0.00  0.00    +0.000 N 
ATOM      8  C   UNL     1       3.960   6.180  18.297  0.00  0.00    +0.000 C 
ATOM      9  C   UNL     1       5.142   6.257  17.258  0.00  0.00    +0.000 C 
ATOM     10  C   UNL     1       4.890   7.315  16.164  0.00  0.00    +0.000 C 
ATOM     11  C   UNL     1       5.587   4.875  16.615  0.00  0.00    +0.000 C 
ATOM     12  O   UNL     1       5.306   3.666  17.348  0.00  0.00    +0.000 OA
ENDROOT
BRANCH   7  13
ATOM     13  O   UNL     1       1.825   2.029  20.184  0.00  0.00    +0.000 OA
ATOM     14  C   UNL     1       0.527   1.957  19.592  0.00  0.00    +0.000 C 
ENDBRANCH   7  13
BRANCH   9  15
ATOM     15  O   UNL     1       6.310   6.759  17.964  0.00  0.00    +0.000 OA
ATOM     16  H   UNL     1       6.005   7.229  18.764  0.00  0.00    +0.000 HD
ENDBRANCH   9  15
BRANCH   8  17
ATOM     17  O   UNL     1       2.793   6.890  17.832  0.00  0.00    +0.000 OA
BRANCH  17  18
ATOM     18  C   UNL     1       2.383   7.935  18.626  0.00  0.00    +0.000 C 
ATOM     19  O   UNL     1       2.102   7.833  19.810  0.00  0.00    +0.000 OA
BRANCH  18  20
ATOM     20  C   UNL     1       2.348   9.222  17.817  0.00  0.00    +0.000 C 
BRANCH  20  21
ATOM     21  S   UNL     1       0.894  10.217  18.289  0.00  0.00    +0.000 S 
BRANCH  21  22
ATOM     22  C   UNL     1       1.616  11.730  18.677  0.00  0.00    +0.000 A 
ATOM     23  N   UNL     1       1.763  12.271  19.862  0.00  0.00    +0.000 NA
ATOM     24  C   UNL     1       2.460  13.436  19.626  0.00  0.00    +0.000 A 
ATOM     25  C   UNL     1       2.930  14.401  20.531  0.00  0.00    +0.000 A 
ATOM     26  C   UNL     1       3.614  15.518  20.034  0.00  0.00    +0.000 A 
ATOM     27  C   UNL     1       3.829  15.674  18.663  0.00  0.00    +0.000 A 
ATOM     28  C   UNL     1       3.381  14.718  17.742  0.00  0.00    +0.000 A 
ATOM     29  C   UNL     1       2.704  13.613  18.266  0.00  0.00    +0.000 A 
ATOM     30  N   UNL     1       2.152  12.498  17.685  0.00  0.00    +0.000 N 
ATOM     31  H   UNL     1       2.159  12.263  16.704  0.00  0.00    +0.000 HD
ENDBRANCH  21  22
ENDBRANCH  20  21
ENDBRANCH  18  20
ENDBRANCH  17  18
ENDBRANCH   8  17
BRANCH  11  32
ATOM     32  C   UNL     1       5.113   4.650  15.169  0.00  0.00    +0.000 C 
BRANCH  32  33
ATOM     33  C   UNL     1       6.235   4.176  14.245  0.00  0.00    +0.000 C 
BRANCH  33  34
ATOM     34  C   UNL     1       5.595   3.726  12.940  0.00  0.00    +0.000 C 
BRANCH  34  35
ATOM     35  C   UNL     1       6.548   2.914  12.083  0.00  0.00    +0.000 C 
ATOM     36  C   UNL     1       5.778   1.836  11.345  0.00  0.00    +0.000 C 
ENDBRANCH  34  35
ENDBRANCH  33  34
ENDBRANCH  32  33
ENDBRANCH  11  32
TORSDOF 11
ENDMDL
MODEL 9
REMARK VINA RESULT:      -7.0      0.962      1.117
REMARK  Name = 
REMARK  14 active torsions:
REMARK  status: ('A' for Active; 'I' for Inactive)
REMARK    1  A    between atoms: N_7  and  O_8
REMARK    2  A    between atoms: O_8  and  C_9
REMARK    3  A    between atoms: C_10  and  O_11
REMARK    4  A    between atoms: O_11  and  C_12
REMARK    5  A    between atoms: C_12  and  C_14
REMARK    6  A    between atoms: C_14  and  S_15
REMARK    7  A    between atoms: S_15  and  C_16
REMARK    8  A    between atoms: C_25  and  C_26
REMARK    9  A    between atoms: C_25  and  O_27
REMARK   10  A    between atoms: C_28  and  C_29
REMARK   11  A    between atoms: C_29  and  C_30
REMARK   12  A    between atoms: C_30  and  C_31
REMARK   13  A    between atoms: C_31  and  C_32
REMARK   14  A    between atoms: C_32  and  C_33
REMARK                            x       y       z     vdW  Elec       q    Type
REMARK                         _______ _______ _______ _____ _____    ______ ____
ROOT
ATOM      1  C   UNL     1       3.401   1.495  18.853  0.00  0.00    +0.000 C 
ATOM      2  C   UNL     1       3.209   2.805  18.918  0.00  0.00    +0.000 C 
ATOM      3  C   UNL     1       3.919   3.868  18.252  0.00  0.00    +0.000 C 
ATOM      4  C   UNL     1       3.364   5.057  18.468  0.00  0.00    +0.000 C 
ATOM      5  C   UNL     1       2.261   4.819  19.416  0.00  0.00    +0.000 C 
ATOM      6  O   UNL     1       1.572   5.714  19.894  0.00  0.00    +0.000 OA
ATOM      7  N   UNL     1       2.252   3.467  19.642  0.00  0.00    +0.000 N 
ATOM      8  C   UNL     1       3.852   6.360  17.986  0.00  0.00    +0.000 C 
ATOM      9  C   UNL     1       5.087   6.182  17.023  0.00  0.00    +0.000 C 
ATOM     10  C   UNL     1       4.962   7.044  15.749  0.00  0.00    +0.000 C 
ATOM     11  C   UNL     1       5.466   4.685  16.658  0.00  0.00    +0.000 C 
ATOM     12  O   UNL     1       5.067   3.642  17.570  0.00  0.00    +0.000 OA
ENDROOT
BRANCH   7  13
ATOM     13  O   UNL     1       1.346   2.740  20.430  0.00  0.00    +0.000 OA
ATOM     14  C   UNL     1       1.730   2.774  21.805  0.00  0.00    +0.000 C 
ENDBRANCH   7  13
BRANCH   9  15
ATOM     15  O   UNL     1       6.250   6.731  17.701  0.00  0.00    +0.000 OA
ATOM     16  H   UNL     1       6.556   6.076  18.360  0.00  0.00    +0.000 HD
ENDBRANCH   9  15
BRANCH   8  17
ATOM     17  O   UNL     1       2.761   7.045  17.336  0.00  0.00    +0.000 OA
BRANCH  17  18
ATOM     18  C   UNL     1       2.586   8.358  17.703  0.00  0.00    +0.000 C 
ATOM     19  O   UNL     1       3.498   9.150  17.887  0.00  0.00    +0.000 OA
BRANCH  18  20
ATOM     20  C   UNL     1       1.104   8.671  17.828  0.00  0.00    +0.000 C 
BRANCH  20  21
ATOM     21  S   UNL     1       0.856  10.075  18.966  0.00  0.00    +0.000 S 
BRANCH  21  22
ATOM     22  C   UNL     1      -0.769  10.525  18.619  0.00  0.00    +0.000 A 
ATOM     23  N   UNL     1      -1.629  11.110  19.415  0.00  0.00    +0.000 NA
ATOM     24  C   UNL     1      -2.745  11.311  18.632  0.00  0.00    +0.000 A 
ATOM     25  C   UNL     1      -3.964  11.932  18.947  0.00  0.00    +0.000 A 
ATOM     26  C   UNL     1      -4.960  12.003  17.964  0.00  0.00    +0.000 A 
ATOM     27  C   UNL     1      -4.749  11.469  16.691  0.00  0.00    +0.000 A 
ATOM     28  C   UNL     1      -3.536  10.857  16.350  0.00  0.00    +0.000 A 
ATOM     29  C   UNL     1      -2.560  10.802  17.348  0.00  0.00    +0.000 A 
ATOM     30  N   UNL     1      -1.279  10.308  17.372  0.00  0.00    +0.000 N 
ATOM     31  H   UNL     1      -0.783   9.882  16.604  0.00  0.00    +0.000 HD
ENDBRANCH  21  22
ENDBRANCH  20  21
ENDBRANCH  18  20
ENDBRANCH  17  18
ENDBRANCH   8  17
BRANCH  11  32
ATOM     32  C   UNL     1       5.050   4.237  15.246  0.00  0.00    +0.000 C 
BRANCH  32  33
ATOM     33  C   UNL     1       6.037   4.684  14.168  0.00  0.00    +0.000 C 
BRANCH  33  34
ATOM     34  C   UNL     1       6.317   3.483  13.275  0.00  0.00    +0.000 C 
BRANCH  34  35
ATOM     35  C   UNL     1       5.461   3.487  12.022  0.00  0.00    +0.000 C 
ATOM     36  C   UNL     1       5.385   2.084  11.452  0.00  0.00    +0.000 C 
ENDBRANCH  34  35
ENDBRANCH  33  34
ENDBRANCH  32  33
ENDBRANCH  11  32
TORSDOF 11
ENDMDL
