MODEL 1
REMARK VINA RESULT:      -6.6      0.000      0.000
REMARK  Name = 
REMARK  5 active torsions:
REMARK  status: ('A' for Active; 'I' for Inactive)
REMARK    1  A    between atoms: C_2  and  C_3
REMARK    2  A    between atoms: C_2  and  C_4
REMARK    3  A    between atoms: C_7  and  C_8
REMARK    4  A    between atoms: C_13  and  C_14
REMARK    5  A    between atoms: C_13  and  C_15
REMARK                            x       y       z     vdW  Elec       q    Type
REMARK                         _______ _______ _______ _____ _____    ______ ____
ROOT
ATOM      1  C   UNL     1       5.450   5.848  17.504  0.00  0.00    +0.000 C 
ATOM      2  C   UNL     1       5.014   7.271  17.200  0.00  0.00    +0.000 C 
ATOM      3  C   UNL     1       3.483   7.185  17.291  0.00  0.00    +0.000 C 
ATOM      4  C   UNL     1       3.180   6.159  18.420  0.00  0.00    +0.000 C 
ATOM      5  C   UNL     1       2.545   6.880  19.627  0.00  0.00    +0.000 C 
ATOM      6  O   UNL     1       2.202   5.187  17.976  0.00  0.00    +0.000 OA
ATOM      7  C   UNL     1       1.955   4.130  18.820  0.00  0.00    +0.000 C 
ATOM      8  O   UNL     1       0.841   3.632  18.922  0.00  0.00    +0.000 OA
ATOM      9  C   UNL     1       3.186   3.547  19.446  0.00  0.00    +0.000 C 
ATOM     10  C   UNL     1       3.185   2.722  20.520  0.00  0.00    +0.000 C 
ATOM     11  C   UNL     1       4.378   1.885  20.933  0.00  0.00    +0.000 C 
ATOM     12  C   UNL     1       2.009   2.519  21.439  0.00  0.00    +0.000 C 
ATOM     13  C   UNL     1       4.414   3.930  18.689  0.00  0.00    +0.000 C 
ATOM     14  C   UNL     1       4.527   5.449  18.671  0.00  0.00    +0.000 C 
ENDROOT
BRANCH   1  16
ATOM     15  C   UNL     1       7.687   6.325  18.603  0.00  0.00    +0.000 C 
ATOM     16  C   UNL     1       6.936   5.635  17.725  0.00  0.00    +0.000 C 
ATOM     17  C   UNL     1       7.547   4.504  16.940  0.00  0.00    +0.000 C 
ENDBRANCH   1  16
TORSDOF 1
ENDMDL
MODEL 2
REMARK VINA RESULT:      -6.6      2.748      5.523
REMARK  Name = 
REMARK  5 active torsions:
REMARK  status: ('A' for Active; 'I' for Inactive)
REMARK    1  A    between atoms: C_2  and  C_3
REMARK    2  A    between atoms: C_2  and  C_4
REMARK    3  A    between atoms: C_7  and  C_8
REMARK    4  A    between atoms: C_13  and  C_14
REMARK    5  A    between atoms: C_13  and  C_15
REMARK                            x       y       z     vdW  Elec       q    Type
REMARK                         _______ _______ _______ _____ _____    ______ ____
ROOT
ATOM      1  C   UNL     1       3.361   4.046  18.394  0.00  0.00    +0.000 C 
ATOM      2  C   UNL     1       3.456   5.037  19.540  0.00  0.00    +0.000 C 
ATOM      3  C   UNL     1       4.937   5.444  19.516  0.00  0.00    +0.000 C 
ATOM      4  C   UNL     1       5.352   5.453  18.017  0.00  0.00    +0.000 C 
ATOM      5  C   UNL     1       5.637   6.898  17.560  0.00  0.00    +0.000 C 
ATOM      6  O   UNL     1       6.589   4.724  17.828  0.00  0.00    +0.000 OA
ATOM      7  C   UNL     1       6.994   4.520  16.530  0.00  0.00    +0.000 C 
ATOM      8  O   UNL     1       8.176   4.514  16.214  0.00  0.00    +0.000 OA
ATOM      9  C   UNL     1       5.883   4.134  15.598  0.00  0.00    +0.000 C 
ATOM     10  C   UNL     1       5.965   4.176  14.247  0.00  0.00    +0.000 C 
ATOM     11  C   UNL     1       4.982   3.482  13.327  0.00  0.00    +0.000 C 
ATOM     12  C   UNL     1       7.036   4.906  13.479  0.00  0.00    +0.000 C 
ATOM     13  C   UNL     1       4.698   3.624  16.347  0.00  0.00    +0.000 C 
ATOM     14  C   UNL     1       4.208   4.712  17.293  0.00  0.00    +0.000 C 
ENDROOT
BRANCH   1  16
ATOM     15  C   UNL     1       1.119   4.357  17.244  0.00  0.00    +0.000 C 
ATOM     16  C   UNL     1       1.961   3.619  17.992  0.00  0.00    +0.000 C 
ATOM     17  C   UNL     1       1.566   2.228  18.415  0.00  0.00    +0.000 C 
ENDBRANCH   1  16
TORSDOF 1
ENDMDL
MODEL 3
REMARK VINA RESULT:      -6.5      3.443      6.046
REMARK  Name = 
REMARK  5 active torsions:
REMARK  status: ('A' for Active; 'I' for Inactive)
REMARK    1  A    between atoms: C_2  and  C_3
REMARK    2  A    between atoms: C_2  and  C_4
REMARK    3  A    between atoms: C_7  and  C_8
REMARK    4  A    between atoms: C_13  and  C_14
REMARK    5  A    between atoms: C_13  and  C_15
REMARK                            x       y       z     vdW  Elec       q    Type
REMARK                         _______ _______ _______ _____ _____    ______ ____
ROOT
ATOM      1  C   UNL     1       4.630   3.945  17.480  0.00  0.00    +0.000 C 
ATOM      2  C   UNL     1       4.395   5.208  18.289  0.00  0.00    +0.000 C 
ATOM      3  C   UNL     1       5.483   6.157  17.764  0.00  0.00    +0.000 C 
ATOM      4  C   UNL     1       5.638   5.833  16.251  0.00  0.00    +0.000 C 
ATOM      5  C   UNL     1       5.133   7.021  15.407  0.00  0.00    +0.000 C 
ATOM      6  O   UNL     1       7.034   5.663  15.907  0.00  0.00    +0.000 OA
ATOM      7  C   UNL     1       7.307   5.222  14.634  0.00  0.00    +0.000 C 
ATOM      8  O   UNL     1       8.294   5.600  14.017  0.00  0.00    +0.000 OA
ATOM      9  C   UNL     1       6.402   4.124  14.160  0.00  0.00    +0.000 C 
ATOM     10  C   UNL     1       6.270   3.740  12.868  0.00  0.00    +0.000 C 
ATOM     11  C   UNL     1       5.623   2.438  12.444  0.00  0.00    +0.000 C 
ATOM     12  C   UNL     1       6.748   4.543  11.686  0.00  0.00    +0.000 C 
ATOM     13  C   UNL     1       5.717   3.454  15.304  0.00  0.00    +0.000 C 
ATOM     14  C   UNL     1       4.899   4.490  16.064  0.00  0.00    +0.000 C 
ENDROOT
BRANCH   1  16
ATOM     15  C   UNL     1       3.788   1.607  17.995  0.00  0.00    +0.000 C 
ATOM     16  C   UNL     1       3.564   2.871  17.589  0.00  0.00    +0.000 C 
ATOM     17  C   UNL     1       2.159   3.326  17.291  0.00  0.00    +0.000 C 
ENDBRANCH   1  16
TORSDOF 1
ENDMDL
MODEL 4
REMARK VINA RESULT:      -6.4      1.834      4.840
REMARK  Name = 
REMARK  5 active torsions:
REMARK  status: ('A' for Active; 'I' for Inactive)
REMARK    1  A    between atoms: C_2  and  C_3
REMARK    2  A    between atoms: C_2  and  C_4
REMARK    3  A    between atoms: C_7  and  C_8
REMARK    4  A    between atoms: C_13  and  C_14
REMARK    5  A    between atoms: C_13  and  C_15
REMARK                            x       y       z     vdW  Elec       q    Type
REMARK                         _______ _______ _______ _____ _____    ______ ____
ROOT
ATOM      1  C   UNL     1       2.332   6.385  17.914  0.00  0.00    +0.000 C 
ATOM      2  C   UNL     1       1.259   5.347  18.190  0.00  0.00    +0.000 C 
ATOM      3  C   UNL     1       1.836   4.080  17.540  0.00  0.00    +0.000 C 
ATOM      4  C   UNL     1       3.375   4.155  17.753  0.00  0.00    +0.000 C 
ATOM      5  C   UNL     1       3.822   3.051  18.733  0.00  0.00    +0.000 C 
ATOM      6  O   UNL     1       4.074   3.894  16.512  0.00  0.00    +0.000 OA
ATOM      7  C   UNL     1       5.436   4.079  16.520  0.00  0.00    +0.000 C 
ATOM      8  O   UNL     1       6.188   3.372  15.861  0.00  0.00    +0.000 OA
ATOM      9  C   UNL     1       5.881   5.312  17.249  0.00  0.00    +0.000 C 
ATOM     10  C   UNL     1       7.152   5.549  17.652  0.00  0.00    +0.000 C 
ATOM     11  C   UNL     1       7.653   6.913  18.080  0.00  0.00    +0.000 C 
ATOM     12  C   UNL     1       8.234   4.503  17.725  0.00  0.00    +0.000 C 
ATOM     13  C   UNL     1       4.759   6.282  17.410  0.00  0.00    +0.000 C 
ATOM     14  C   UNL     1       3.636   5.612  18.190  0.00  0.00    +0.000 C 
ENDROOT
BRANCH   1  16
ATOM     15  C   UNL     1       2.137   8.913  18.024  0.00  0.00    +0.000 C 
ATOM     16  C   UNL     1       2.180   7.714  18.633  0.00  0.00    +0.000 C 
ATOM     17  C   UNL     1       1.982   7.620  20.123  0.00  0.00    +0.000 C 
ENDBRANCH   1  16
TORSDOF 1
ENDMDL
MODEL 5
REMARK VINA RESULT:      -6.2      1.249      1.505
REMARK  Name = 
REMARK  5 active torsions:
REMARK  status: ('A' for Active; 'I' for Inactive)
REMARK    1  A    between atoms: C_2  and  C_3
REMARK    2  A    between atoms: C_2  and  C_4
REMARK    3  A    between atoms: C_7  and  C_8
REMARK    4  A    between atoms: C_13  and  C_14
REMARK    5  A    between atoms: C_13  and  C_15
REMARK                            x       y       z     vdW  Elec       q    Type
REMARK                         _______ _______ _______ _____ _____    ______ ____
ROOT
ATOM      1  C   UNL     1       5.206   6.019  16.888  0.00  0.00    +0.000 C 
ATOM      2  C   UNL     1       4.930   7.465  17.262  0.00  0.00    +0.000 C 
ATOM      3  C   UNL     1       3.417   7.465  17.529  0.00  0.00    +0.000 C 
ATOM      4  C   UNL     1       3.097   6.083  18.168  0.00  0.00    +0.000 C 
ATOM      5  C   UNL     1       2.683   6.270  19.642  0.00  0.00    +0.000 C 
ATOM      6  O   UNL     1       1.963   5.468  17.510  0.00  0.00    +0.000 OA
ATOM      7  C   UNL     1       1.666   4.175  17.871  0.00  0.00    +0.000 C 
ATOM      8  O   UNL     1       0.514   3.766  17.920  0.00  0.00    +0.000 OA
ATOM      9  C   UNL     1       2.868   3.290  18.018  0.00  0.00    +0.000 C 
ATOM     10  C   UNL     1       2.867   2.090  18.646  0.00  0.00    +0.000 C 
ATOM     11  C   UNL     1       3.976   1.070  18.503  0.00  0.00    +0.000 C 
ATOM     12  C   UNL     1       1.771   1.607  19.560  0.00  0.00    +0.000 C 
ATOM     13  C   UNL     1       4.054   3.864  17.317  0.00  0.00    +0.000 C 
ATOM     14  C   UNL     1       4.360   5.234  17.909  0.00  0.00    +0.000 C 
ENDROOT
BRANCH   1  16
ATOM     15  C   UNL     1       7.191   4.879  15.793  0.00  0.00    +0.000 C 
ATOM     16  C   UNL     1       6.667   5.621  16.786  0.00  0.00    +0.000 C 
ATOM     17  C   UNL     1       7.565   6.193  17.851  0.00  0.00    +0.000 C 
ENDBRANCH   1  16
TORSDOF 1
ENDMDL
MODEL 6
REMARK VINA RESULT:      -6.0      2.059      4.943
REMARK  Name = 
REMARK  5 active torsions:
REMARK  status: ('A' for Active; 'I' for Inactive)
REMARK    1  A    between atoms: C_2  and  C_3
REMARK    2  A    between atoms: C_2  and  C_4
REMARK    3  A    between atoms: C_7  and  C_8
REMARK    4  A    between atoms: C_13  and  C_14
REMARK    5  A    between atoms: C_13  and  C_15
REMARK                            x       y       z     vdW  Elec       q    Type
REMARK                         _______ _______ _______ _____ _____    ______ ____
ROOT
ATOM      1  C   UNL     1       2.175   4.683  20.090  0.00  0.00    +0.000 C 
ATOM      2  C   UNL     1       1.327   5.854  20.551  0.00  0.00    +0.000 C 
ATOM      3  C   UNL     1       2.164   7.070  20.124  0.00  0.00    +0.000 C 
ATOM      4  C   UNL     1       2.849   6.667  18.787  0.00  0.00    +0.000 C 
ATOM      5  C   UNL     1       2.266   7.500  17.627  0.00  0.00    +0.000 C 
ATOM      6  O   UNL     1       4.264   6.973  18.827  0.00  0.00    +0.000 OA
ATOM      7  C   UNL     1       5.023   6.529  17.770  0.00  0.00    +0.000 C 
ATOM      8  O   UNL     1       5.975   7.169  17.344  0.00  0.00    +0.000 OA
ATOM      9  C   UNL     1       4.691   5.137  17.322  0.00  0.00    +0.000 C 
ATOM     10  C   UNL     1       5.071   4.599  16.139  0.00  0.00    +0.000 C 
ATOM     11  C   UNL     1       5.023   3.115  15.841  0.00  0.00    +0.000 C 
ATOM     12  C   UNL     1       5.596   5.392  14.970  0.00  0.00    +0.000 C 
ATOM     13  C   UNL     1       3.949   4.389  18.379  0.00  0.00    +0.000 C 
ATOM     14  C   UNL     1       2.661   5.137  18.700  0.00  0.00    +0.000 C 
ENDROOT
BRANCH   1  16
ATOM     15  C   UNL     1       0.930   2.699  19.112  0.00  0.00    +0.000 C 
ATOM     16  C   UNL     1       1.520   3.315  20.153  0.00  0.00    +0.000 C 
ATOM     17  C   UNL     1       1.639   2.606  21.477  0.00  0.00    +0.000 C 
ENDBRANCH   1  16
TORSDOF 1
ENDMDL
MODEL 7
REMARK VINA RESULT:      -6.0      1.909      5.067
REMARK  Name = 
REMARK  5 active torsions:
REMARK  status: ('A' for Active; 'I' for Inactive)
REMARK    1  A    between atoms: C_2  and  C_3
REMARK    2  A    between atoms: C_2  and  C_4
REMARK    3  A    between atoms: C_7  and  C_8
REMARK    4  A    between atoms: C_13  and  C_14
REMARK    5  A    between atoms: C_13  and  C_15
REMARK                            x       y       z     vdW  Elec       q    Type
REMARK                         _______ _______ _______ _____ _____    ______ ____
ROOT
ATOM      1  C   UNL     1       1.993   4.173  19.357  0.00  0.00    +0.000 C 
ATOM      2  C   UNL     1       1.182   2.923  19.062  0.00  0.00    +0.000 C 
ATOM      3  C   UNL     1       1.761   2.452  17.719  0.00  0.00    +0.000 C 
ATOM      4  C   UNL     1       3.278   2.794  17.765  0.00  0.00    +0.000 C 
ATOM      5  C   UNL     1       4.107   1.494  17.819  0.00  0.00    +0.000 C 
ATOM      6  O   UNL     1       3.683   3.475  16.554  0.00  0.00    +0.000 OA
ATOM      7  C   UNL     1       4.964   3.973  16.524  0.00  0.00    +0.000 C 
ATOM      8  O   UNL     1       5.627   3.990  15.495  0.00  0.00    +0.000 OA
ATOM      9  C   UNL     1       5.390   4.642  17.798  0.00  0.00    +0.000 C 
ATOM     10  C   UNL     1       6.672   4.933  18.121  0.00  0.00    +0.000 C 
ATOM     11  C   UNL     1       7.058   5.889  19.231  0.00  0.00    +0.000 C 
ATOM     12  C   UNL     1       7.879   4.358  17.427  0.00  0.00    +0.000 C 
ATOM     13  C   UNL     1       4.212   5.015  18.634  0.00  0.00    +0.000 C 
ATOM     14  C   UNL     1       3.422   3.755  18.964  0.00  0.00    +0.000 C 
ENDROOT
BRANCH   1  16
ATOM     15  C   UNL     1       1.420   6.022  20.998  0.00  0.00    +0.000 C 
ATOM     16  C   UNL     1       1.828   4.765  20.745  0.00  0.00    +0.000 C 
ATOM     17  C   UNL     1       2.072   3.810  21.885  0.00  0.00    +0.000 C 
ENDBRANCH   1  16
TORSDOF 1
ENDMDL
MODEL 8
REMARK VINA RESULT:      -6.0      8.785     11.571
REMARK  Name = 
REMARK  5 active torsions:
REMARK  status: ('A' for Active; 'I' for Inactive)
REMARK    1  A    between atoms: C_2  and  C_3
REMARK    2  A    between atoms: C_2  and  C_4
REMARK    3  A    between atoms: C_7  and  C_8
REMARK    4  A    between atoms: C_13  and  C_14
REMARK    5  A    between atoms: C_13  and  C_15
REMARK                            x       y       z     vdW  Elec       q    Type
REMARK                         _______ _______ _______ _____ _____    ______ ____
ROOT
ATOM      1  C   UNL     1      10.110  11.826  18.117  0.00  0.00    +0.000 C 
ATOM      2  C   UNL     1      11.608  11.599  18.019  0.00  0.00    +0.000 C 
ATOM      3  C   UNL     1      12.126  12.960  17.528  0.00  0.00    +0.000 C 
ATOM      4  C   UNL     1      11.217  14.030  18.198  0.00  0.00    +0.000 C 
ATOM      5  C   UNL     1      12.032  14.840  19.226  0.00  0.00    +0.000 C 
ATOM      6  O   UNL     1      10.749  14.986  17.216  0.00  0.00    +0.000 OA
ATOM      7  C   UNL     1       9.812  15.898  17.641  0.00  0.00    +0.000 C 
ATOM      8  O   UNL     1       9.788  17.045  17.215  0.00  0.00    +0.000 OA
ATOM      9  C   UNL     1       8.742  15.314  18.514  0.00  0.00    +0.000 C 
ATOM     10  C   UNL     1       7.902  16.039  19.290  0.00  0.00    +0.000 C 
ATOM     11  C   UNL     1       6.632  15.481  19.898  0.00  0.00    +0.000 C 
ATOM     12  C   UNL     1       8.108  17.488  19.647  0.00  0.00    +0.000 C 
ATOM     13  C   UNL     1       8.669  13.831  18.364  0.00  0.00    +0.000 C 
ATOM     14  C   UNL     1      10.016  13.230  18.745  0.00  0.00    +0.000 C 
ENDROOT
BRANCH   1  16
ATOM     15  C   UNL     1       8.623   9.770  18.164  0.00  0.00    +0.000 C 
ATOM     16  C   UNL     1       9.310  10.734  18.804  0.00  0.00    +0.000 C 
ATOM     17  C   UNL     1       9.394  10.724  20.308  0.00  0.00    +0.000 C 
ENDBRANCH   1  16
TORSDOF 1
ENDMDL
MODEL 9
REMARK VINA RESULT:      -6.0      1.307      1.587
REMARK  Name = 
REMARK  5 active torsions:
REMARK  status: ('A' for Active; 'I' for Inactive)
REMARK    1  A    between atoms: C_2  and  C_3
REMARK    2  A    between atoms: C_2  and  C_4
REMARK    3  A    between atoms: C_7  and  C_8
REMARK    4  A    between atoms: C_13  and  C_14
REMARK    5  A    between atoms: C_13  and  C_15
REMARK                            x       y       z     vdW  Elec       q    Type
REMARK                         _______ _______ _______ _____ _____    ______ ____
ROOT
ATOM      1  C   UNL     1       6.421   6.035  17.759  0.00  0.00    +0.000 C 
ATOM      2  C   UNL     1       5.960   7.290  17.039  0.00  0.00    +0.000 C 
ATOM      3  C   UNL     1       4.639   6.846  16.393  0.00  0.00    +0.000 C 
ATOM      4  C   UNL     1       3.987   5.850  17.394  0.00  0.00    +0.000 C 
ATOM      5  C   UNL     1       2.711   6.472  17.997  0.00  0.00    +0.000 C 
ATOM      6  O   UNL     1       3.560   4.647  16.711  0.00  0.00    +0.000 OA
ATOM      7  C   UNL     1       3.107   3.616  17.500  0.00  0.00    +0.000 C 
ATOM      8  O   UNL     1       2.204   2.874  17.137  0.00  0.00    +0.000 OA
ATOM      9  C   UNL     1       3.927   3.385  18.734  0.00  0.00    +0.000 C 
ATOM     10  C   UNL     1       3.523   2.652  19.799  0.00  0.00    +0.000 C 
ATOM     11  C   UNL     1       4.463   2.153  20.876  0.00  0.00    +0.000 C 
ATOM     12  C   UNL     1       2.099   2.232  20.055  0.00  0.00    +0.000 C 
ATOM     13  C   UNL     1       5.280   4.003  18.611  0.00  0.00    +0.000 C 
ATOM     14  C   UNL     1       5.118   5.500  18.385  0.00  0.00    +0.000 C 
ENDROOT
BRANCH   1  16
ATOM     15  C   UNL     1       8.046   5.245  19.541  0.00  0.00    +0.000 C 
ATOM     16  C   UNL     1       7.597   6.198  18.704  0.00  0.00    +0.000 C 
ATOM     17  C   UNL     1       8.331   7.509  18.596  0.00  0.00    +0.000 C 
ENDBRANCH   1  16
TORSDOF 1
ENDMDL
