MODEL 1
REMARK VINA RESULT:      -8.1      0.000      0.000
REMARK  Name = 
REMARK  6 active torsions:
REMARK  status: ('A' for Active; 'I' for Inactive)
REMARK    1  A    between atoms: C_2  and  O_3
REMARK    2  A    between atoms: C_2  and  C_4
REMARK    3  A    between atoms: C_4  and  N_5
REMARK    4  A    between atoms: C_11  and  C_12
REMARK    5  A    between atoms: C_12  and  C_14
REMARK    6  A    between atoms: C_18  and  N_19
REMARK                            x       y       z     vdW  Elec       q    Type
REMARK                         _______ _______ _______ _____ _____    ______ ____
ROOT
ATOM      1  N   UNL     1       1.241   9.851  19.619  0.00  0.00    +0.000 N 
ATOM      2  C   UNL     1       1.047   8.917  20.597  0.00  0.00    +0.000 C 
ATOM      3  O   UNL     1       0.524   9.041  21.685  0.00  0.00    +0.000 OA
ATOM      4  C   UNL     1       1.612   7.667  20.094  0.00  0.00    +0.000 A 
ATOM      5  C   UNL     1       1.699   6.431  20.699  0.00  0.00    +0.000 A 
ATOM      6  C   UNL     1       2.312   5.407  19.970  0.00  0.00    +0.000 A 
ATOM      7  C   UNL     1       2.783   5.629  18.652  0.00  0.00    +0.000 A 
ATOM      8  C   UNL     1       2.694   6.905  18.070  0.00  0.00    +0.000 A 
ATOM      9  C   UNL     1       2.102   7.902  18.822  0.00  0.00    +0.000 A 
ATOM     10  C   UNL     1       1.822   9.305  18.511  0.00  0.00    +0.000 C 
ATOM     11  O   UNL     1       1.959   9.837  17.428  0.00  0.00    +0.000 OA
ENDROOT
BRANCH   7  12
ATOM     12  C   UNL     1       3.417   4.535  17.864  0.00  0.00    +0.000 C 
ATOM     13  O   UNL     1       2.740   3.554  17.562  0.00  0.00    +0.000 OA
BRANCH  12  14
ATOM     14  C   UNL     1       4.839   4.599  17.430  0.00  0.00    +0.000 A 
ATOM     15  C   UNL     1       5.835   4.657  18.413  0.00  0.00    +0.000 A 
ATOM     16  C   UNL     1       7.187   4.693  18.049  0.00  0.00    +0.000 A 
ATOM     17  C   UNL     1       7.549   4.675  16.702  0.00  0.00    +0.000 A 
ATOM     18  C   UNL     1       6.550   4.641  15.720  0.00  0.00    +0.000 A 
ATOM     19  C   UNL     1       5.194   4.623  16.076  0.00  0.00    +0.000 A 
BRANCH  18  20
ATOM     20  N   UNL     1       6.920   4.604  14.301  0.00  0.00    +0.000 N 
ATOM     21  O   UNL     1       6.348   3.779  13.576  0.00  0.00    +0.000 OA
ATOM     22  O   UNL     1       7.771   5.416  13.911  0.00  0.00    +0.000 OA
ENDBRANCH  18  20
ENDBRANCH  12  14
ENDBRANCH   7  12
BRANCH   1  23
ATOM     23  C   UNL     1       0.842  11.242  19.754  0.00  0.00    +0.000 C 
BRANCH  23  25
ATOM     24  O   UNL     1      -1.223  11.486  18.517  0.00  0.00    +0.000 OA
ATOM     25  C   UNL     1      -0.655  11.461  19.602  0.00  0.00    +0.000 C 
BRANCH  25  26
ATOM     26  O   UNL     1      -1.356  11.474  20.762  0.00  0.00    +0.000 OA
ATOM     27  H   UNL     1      -0.995  12.080  21.443  0.00  0.00    +0.000 HD
ENDBRANCH  25  26
ENDBRANCH  23  25
ENDBRANCH   1  23
TORSDOF 6
ENDMDL
MODEL 2
REMARK VINA RESULT:      -8.1      3.121      5.316
REMARK  Name = 
REMARK  6 active torsions:
REMARK  status: ('A' for Active; 'I' for Inactive)
REMARK    1  A    between atoms: C_2  and  O_3
REMARK    2  A    between atoms: C_2  and  C_4
REMARK    3  A    between atoms: C_4  and  N_5
REMARK    4  A    between atoms: C_11  and  C_12
REMARK    5  A    between atoms: C_12  and  C_14
REMARK    6  A    between atoms: C_18  and  N_19
REMARK                            x       y       z     vdW  Elec       q    Type
REMARK                         _______ _______ _______ _____ _____    ______ ____
ROOT
ATOM      1  N   UNL     1       2.364   5.031  19.621  0.00  0.00    +0.000 N 
ATOM      2  C   UNL     1       2.647   6.259  19.092  0.00  0.00    +0.000 C 
ATOM      3  O   UNL     1       2.100   7.324  19.286  0.00  0.00    +0.000 OA
ATOM      4  C   UNL     1       3.785   6.070  18.194  0.00  0.00    +0.000 A 
ATOM      5  C   UNL     1       4.440   6.983  17.396  0.00  0.00    +0.000 A 
ATOM      6  C   UNL     1       5.502   6.505  16.622  0.00  0.00    +0.000 A 
ATOM      7  C   UNL     1       5.906   5.148  16.692  0.00  0.00    +0.000 A 
ATOM      8  C   UNL     1       5.205   4.238  17.503  0.00  0.00    +0.000 A 
ATOM      9  C   UNL     1       4.148   4.735  18.241  0.00  0.00    +0.000 A 
ATOM     10  C   UNL     1       3.248   4.084  19.195  0.00  0.00    +0.000 C 
ATOM     11  O   UNL     1       3.359   2.952  19.621  0.00  0.00    +0.000 OA
ENDROOT
BRANCH   7  12
ATOM     12  C   UNL     1       7.050   4.640  15.886  0.00  0.00    +0.000 C 
ATOM     13  O   UNL     1       8.070   4.277  16.468  0.00  0.00    +0.000 OA
BRANCH  12  14
ATOM     14  C   UNL     1       6.991   4.554  14.401  0.00  0.00    +0.000 A 
ATOM     15  C   UNL     1       7.838   5.380  13.651  0.00  0.00    +0.000 A 
ATOM     16  C   UNL     1       7.833   5.314  12.252  0.00  0.00    +0.000 A 
ATOM     17  C   UNL     1       6.980   4.426  11.597  0.00  0.00    +0.000 A 
ATOM     18  C   UNL     1       6.117   3.618  12.348  0.00  0.00    +0.000 A 
ATOM     19  C   UNL     1       6.103   3.691  13.749  0.00  0.00    +0.000 A 
BRANCH  18  20
ATOM     20  N   UNL     1       5.228   2.667  11.670  0.00  0.00    +0.000 N 
ATOM     21  O   UNL     1       4.108   3.067  11.326  0.00  0.00    +0.000 OA
ATOM     22  O   UNL     1       5.664   1.525  11.466  0.00  0.00    +0.000 OA
ENDBRANCH  18  20
ENDBRANCH  12  14
ENDBRANCH   7  12
BRANCH   1  23
ATOM     23  C   UNL     1       1.266   4.795  20.545  0.00  0.00    +0.000 C 
BRANCH  23  25
ATOM     24  O   UNL     1       1.817   3.144  22.225  0.00  0.00    +0.000 OA
ATOM     25  C   UNL     1       1.278   3.403  21.157  0.00  0.00    +0.000 C 
BRANCH  25  26
ATOM     26  O   UNL     1       0.513   2.486  20.516  0.00  0.00    +0.000 OA
ATOM     27  H   UNL     1       0.325   1.680  21.043  0.00  0.00    +0.000 HD
ENDBRANCH  25  26
ENDBRANCH  23  25
ENDBRANCH   1  23
TORSDOF 6
ENDMDL
MODEL 3
REMARK VINA RESULT:      -8.0      0.930      1.085
REMARK  Name = 
REMARK  6 active torsions:
REMARK  status: ('A' for Active; 'I' for Inactive)
REMARK    1  A    between atoms: C_2  and  O_3
REMARK    2  A    between atoms: C_2  and  C_4
REMARK    3  A    between atoms: C_4  and  N_5
REMARK    4  A    between atoms: C_11  and  C_12
REMARK    5  A    between atoms: C_12  and  C_14
REMARK    6  A    between atoms: C_18  and  N_19
REMARK                            x       y       z     vdW  Elec       q    Type
REMARK                         _______ _______ _______ _____ _____    ______ ____
ROOT
ATOM      1  N   UNL     1       1.086   9.952  19.601  0.00  0.00    +0.000 N 
ATOM      2  C   UNL     1       0.864   9.058  20.610  0.00  0.00    +0.000 C 
ATOM      3  O   UNL     1       0.298   9.221  21.671  0.00  0.00    +0.000 OA
ATOM      4  C   UNL     1       1.462   7.795  20.183  0.00  0.00    +0.000 A 
ATOM      5  C   UNL     1       1.540   6.588  20.843  0.00  0.00    +0.000 A 
ATOM      6  C   UNL     1       2.193   5.542  20.183  0.00  0.00    +0.000 A 
ATOM      7  C   UNL     1       2.713   5.714  18.875  0.00  0.00    +0.000 A 
ATOM      8  C   UNL     1       2.632   6.963  18.236  0.00  0.00    +0.000 A 
ATOM      9  C   UNL     1       1.999   7.983  18.921  0.00  0.00    +0.000 A 
ATOM     10  C   UNL     1       1.715   9.368  18.541  0.00  0.00    +0.000 C 
ATOM     11  O   UNL     1       1.888   9.855  17.442  0.00  0.00    +0.000 OA
ENDROOT
BRANCH   7  12
ATOM     12  C   UNL     1       3.389   4.596  18.160  0.00  0.00    +0.000 C 
ATOM     13  O   UNL     1       2.751   3.572  17.924  0.00  0.00    +0.000 OA
BRANCH  12  14
ATOM     14  C   UNL     1       4.808   4.686  17.720  0.00  0.00    +0.000 A 
ATOM     15  C   UNL     1       5.803   4.813  18.698  0.00  0.00    +0.000 A 
ATOM     16  C   UNL     1       7.153   4.876  18.330  0.00  0.00    +0.000 A 
ATOM     17  C   UNL     1       7.513   4.817  16.984  0.00  0.00    +0.000 A 
ATOM     18  C   UNL     1       6.515   4.715  16.006  0.00  0.00    +0.000 A 
ATOM     19  C   UNL     1       5.160   4.669  16.366  0.00  0.00    +0.000 A 
BRANCH  18  20
ATOM     20  N   UNL     1       6.884   4.633  14.588  0.00  0.00    +0.000 N 
ATOM     21  O   UNL     1       6.302   3.796  13.887  0.00  0.00    +0.000 OA
ATOM     22  O   UNL     1       7.745   5.424  14.176  0.00  0.00    +0.000 OA
ENDBRANCH  18  20
ENDBRANCH  12  14
ENDBRANCH   7  12
BRANCH   1  23
ATOM     23  C   UNL     1       0.665  11.343  19.660  0.00  0.00    +0.000 C 
BRANCH  23  25
ATOM     24  O   UNL     1       2.225  12.677  20.941  0.00  0.00    +0.000 OA
ATOM     25  C   UNL     1       1.160  12.074  20.899  0.00  0.00    +0.000 C 
BRANCH  25  26
ATOM     26  O   UNL     1       0.270  12.149  21.918  0.00  0.00    +0.000 OA
ATOM     27  H   UNL     1      -0.613  12.484  21.656  0.00  0.00    +0.000 HD
ENDBRANCH  25  26
ENDBRANCH  23  25
ENDBRANCH   1  23
TORSDOF 6
ENDMDL
MODEL 4
REMARK VINA RESULT:      -8.0      1.263      1.682
REMARK  Name = 
REMARK  6 active torsions:
REMARK  status: ('A' for Active; 'I' for Inactive)
REMARK    1  A    between atoms: C_2  and  O_3
REMARK    2  A    between atoms: C_2  and  C_4
REMARK    3  A    between atoms: C_4  and  N_5
REMARK    4  A    between atoms: C_11  and  C_12
REMARK    5  A    between atoms: C_12  and  C_14
REMARK    6  A    between atoms: C_18  and  N_19
REMARK                            x       y       z     vdW  Elec       q    Type
REMARK                         _______ _______ _______ _____ _____    ______ ____
ROOT
ATOM      1  N   UNL     1       1.081  10.289  19.198  0.00  0.00    +0.000 N 
ATOM      2  C   UNL     1       0.755   9.539  20.293  0.00  0.00    +0.000 C 
ATOM      3  O   UNL     1       0.093   9.843  21.263  0.00  0.00    +0.000 OA
ATOM      4  C   UNL     1       1.376   8.231  20.098  0.00  0.00    +0.000 A 
ATOM      5  C   UNL     1       1.377   7.123  20.919  0.00  0.00    +0.000 A 
ATOM      6  C   UNL     1       2.077   5.999  20.471  0.00  0.00    +0.000 A 
ATOM      7  C   UNL     1       2.719   5.993  19.207  0.00  0.00    +0.000 A 
ATOM      8  C   UNL     1       2.714   7.145  18.401  0.00  0.00    +0.000 A 
ATOM      9  C   UNL     1       2.031   8.248  18.880  0.00  0.00    +0.000 A 
ATOM     10  C   UNL     1       1.801   9.568  18.291  0.00  0.00    +0.000 C 
ATOM     11  O   UNL     1       2.083   9.903  17.158  0.00  0.00    +0.000 OA
ENDROOT
BRANCH   7  12
ATOM     12  C   UNL     1       3.447   4.790  18.717  0.00  0.00    +0.000 C 
ATOM     13  O   UNL     1       2.869   3.705  18.722  0.00  0.00    +0.000 OA
BRANCH  12  14
ATOM     14  C   UNL     1       4.846   4.865  18.216  0.00  0.00    +0.000 A 
ATOM     15  C   UNL     1       5.875   5.085  19.142  0.00  0.00    +0.000 A 
ATOM     16  C   UNL     1       7.209   5.137  18.718  0.00  0.00    +0.000 A 
ATOM     17  C   UNL     1       7.520   4.975  17.368  0.00  0.00    +0.000 A 
ATOM     18  C   UNL     1       6.488   4.781  16.441  0.00  0.00    +0.000 A 
ATOM     19  C   UNL     1       5.148   4.744  16.855  0.00  0.00    +0.000 A 
BRANCH  18  20
ATOM     20  N   UNL     1       6.805   4.591  15.021  0.00  0.00    +0.000 N 
ATOM     21  O   UNL     1       7.602   5.381  14.496  0.00  0.00    +0.000 OA
ATOM     22  O   UNL     1       6.269   3.637  14.438  0.00  0.00    +0.000 OA
ENDBRANCH  18  20
ENDBRANCH  12  14
ENDBRANCH   7  12
BRANCH   1  23
ATOM     23  C   UNL     1       0.674  11.675  19.030  0.00  0.00    +0.000 C 
BRANCH  23  25
ATOM     24  O   UNL     1       2.473  13.123  19.749  0.00  0.00    +0.000 OA
ATOM     25  C   UNL     1       1.839  12.629  18.825  0.00  0.00    +0.000 C 
BRANCH  25  26
ATOM     26  O   UNL     1       2.239  12.782  17.539  0.00  0.00    +0.000 OA
ATOM     27  H   UNL     1       2.877  13.514  17.400  0.00  0.00    +0.000 HD
ENDBRANCH  25  26
ENDBRANCH  23  25
ENDBRANCH   1  23
TORSDOF 6
ENDMDL
MODEL 5
REMARK VINA RESULT:      -7.9      0.998      1.358
REMARK  Name = 
REMARK  6 active torsions:
REMARK  status: ('A' for Active; 'I' for Inactive)
REMARK    1  A    between atoms: C_2  and  O_3
REMARK    2  A    between atoms: C_2  and  C_4
REMARK    3  A    between atoms: C_4  and  N_5
REMARK    4  A    between atoms: C_11  and  C_12
REMARK    5  A    between atoms: C_12  and  C_14
REMARK    6  A    between atoms: C_18  and  N_19
REMARK                            x       y       z     vdW  Elec       q    Type
REMARK                         _______ _______ _______ _____ _____    ______ ____
ROOT
ATOM      1  N   UNL     1       1.467   9.078  19.474  0.00  0.00    +0.000 N 
ATOM      2  C   UNL     1       1.317   8.162  20.476  0.00  0.00    +0.000 C 
ATOM      3  O   UNL     1       0.786   8.289  21.560  0.00  0.00    +0.000 OA
ATOM      4  C   UNL     1       1.943   6.928  20.006  0.00  0.00    +0.000 A 
ATOM      5  C   UNL     1       2.090   5.715  20.643  0.00  0.00    +0.000 A 
ATOM      6  C   UNL     1       2.754   4.704  19.942  0.00  0.00    +0.000 A 
ATOM      7  C   UNL     1       3.216   4.914  18.619  0.00  0.00    +0.000 A 
ATOM      8  C   UNL     1       3.066   6.169  18.003  0.00  0.00    +0.000 A 
ATOM      9  C   UNL     1       2.423   7.155  18.728  0.00  0.00    +0.000 A 
ATOM     10  C   UNL     1       2.075   8.533  18.381  0.00  0.00    +0.000 C 
ATOM     11  O   UNL     1       2.189   9.043  17.284  0.00  0.00    +0.000 OA
ENDROOT
BRANCH   7  12
ATOM     12  C   UNL     1       3.904   3.832  17.860  0.00  0.00    +0.000 C 
ATOM     13  O   UNL     1       3.509   2.675  17.989  0.00  0.00    +0.000 OA
BRANCH  12  14
ATOM     14  C   UNL     1       5.048   4.113  16.951  0.00  0.00    +0.000 A 
ATOM     15  C   UNL     1       6.248   4.570  17.509  0.00  0.00    +0.000 A 
ATOM     16  C   UNL     1       7.358   4.822  16.692  0.00  0.00    +0.000 A 
ATOM     17  C   UNL     1       7.271   4.623  15.315  0.00  0.00    +0.000 A 
ATOM     18  C   UNL     1       6.062   4.190  14.755  0.00  0.00    +0.000 A 
ATOM     19  C   UNL     1       4.941   3.952  15.564  0.00  0.00    +0.000 A 
BRANCH  18  20
ATOM     20  N   UNL     1       5.965   3.960  13.309  0.00  0.00    +0.000 N 
ATOM     21  O   UNL     1       7.006   4.026  12.642  0.00  0.00    +0.000 OA
ATOM     22  O   UNL     1       4.846   3.694  12.847  0.00  0.00    +0.000 OA
ENDBRANCH  18  20
ENDBRANCH  12  14
ENDBRANCH   7  12
BRANCH   1  23
ATOM     23  C   UNL     1       0.999  10.452  19.572  0.00  0.00    +0.000 C 
BRANCH  23  25
ATOM     24  O   UNL     1      -1.338  11.057  19.719  0.00  0.00    +0.000 OA
ATOM     25  C   UNL     1      -0.408  10.654  19.032  0.00  0.00    +0.000 C 
BRANCH  25  26
ATOM     26  O   UNL     1      -0.538  10.506  17.691  0.00  0.00    +0.000 OA
ATOM     27  H   UNL     1       0.079   9.854  17.297  0.00  0.00    +0.000 HD
ENDBRANCH  25  26
ENDBRANCH  23  25
ENDBRANCH   1  23
TORSDOF 6
ENDMDL
MODEL 6
REMARK VINA RESULT:      -7.9      1.845      2.138
REMARK  Name = 
REMARK  6 active torsions:
REMARK  status: ('A' for Active; 'I' for Inactive)
REMARK    1  A    between atoms: C_2  and  O_3
REMARK    2  A    between atoms: C_2  and  C_4
REMARK    3  A    between atoms: C_4  and  N_5
REMARK    4  A    between atoms: C_11  and  C_12
REMARK    5  A    between atoms: C_12  and  C_14
REMARK    6  A    between atoms: C_18  and  N_19
REMARK                            x       y       z     vdW  Elec       q    Type
REMARK                         _______ _______ _______ _____ _____    ______ ____
ROOT
ATOM      1  N   UNL     1       1.127  10.080  19.811  0.00  0.00    +0.000 N 
ATOM      2  C   UNL     1       0.956   9.128  20.776  0.00  0.00    +0.000 C 
ATOM      3  O   UNL     1       0.478   9.236  21.886  0.00  0.00    +0.000 OA
ATOM      4  C   UNL     1       1.479   7.881  20.223  0.00  0.00    +0.000 A 
ATOM      5  C   UNL     1       1.569   6.630  20.797  0.00  0.00    +0.000 A 
ATOM      6  C   UNL     1       2.137   5.614  20.022  0.00  0.00    +0.000 A 
ATOM      7  C   UNL     1       2.559   5.857  18.691  0.00  0.00    +0.000 A 
ATOM      8  C   UNL     1       2.469   7.148  18.141  0.00  0.00    +0.000 A 
ATOM      9  C   UNL     1       1.923   8.137  18.938  0.00  0.00    +0.000 A 
ATOM     10  C   UNL     1       1.655   9.551  18.670  0.00  0.00    +0.000 C 
ATOM     11  O   UNL     1       1.759  10.105  17.594  0.00  0.00    +0.000 OA
ENDROOT
BRANCH   7  12
ATOM     12  C   UNL     1       3.143   4.772  17.856  0.00  0.00    +0.000 C 
ATOM     13  O   UNL     1       2.399   3.899  17.415  0.00  0.00    +0.000 OA
BRANCH  12  14
ATOM     14  C   UNL     1       4.596   4.719  17.536  0.00  0.00    +0.000 A 
ATOM     15  C   UNL     1       4.995   4.098  16.345  0.00  0.00    +0.000 A 
ATOM     16  C   UNL     1       6.349   4.048  15.993  0.00  0.00    +0.000 A 
ATOM     17  C   UNL     1       7.310   4.613  16.831  0.00  0.00    +0.000 A 
ATOM     18  C   UNL     1       6.912   5.211  18.033  0.00  0.00    +0.000 A 
ATOM     19  C   UNL     1       5.559   5.250  18.401  0.00  0.00    +0.000 A 
BRANCH  18  20
ATOM     20  N   UNL     1       7.913   5.824  18.913  0.00  0.00    +0.000 N 
ATOM     21  O   UNL     1       8.376   5.135  19.831  0.00  0.00    +0.000 OA
ATOM     22  O   UNL     1       8.249   6.992  18.669  0.00  0.00    +0.000 OA
ENDBRANCH  18  20
ENDBRANCH  12  14
ENDBRANCH   7  12
BRANCH   1  23
ATOM     23  C   UNL     1       0.757  11.475  19.992  0.00  0.00    +0.000 C 
BRANCH  23  25
ATOM     24  O   UNL     1      -1.333  11.823  18.825  0.00  0.00    +0.000 OA
ATOM     25  C   UNL     1      -0.740  11.723  19.892  0.00  0.00    +0.000 C 
BRANCH  25  26
ATOM     26  O   UNL     1      -1.412  11.672  21.067  0.00  0.00    +0.000 OA
ATOM     27  H   UNL     1      -1.622  10.764  21.372  0.00  0.00    +0.000 HD
ENDBRANCH  25  26
ENDBRANCH  23  25
ENDBRANCH   1  23
TORSDOF 6
ENDMDL
MODEL 7
REMARK VINA RESULT:      -7.9      3.349      5.031
REMARK  Name = 
REMARK  6 active torsions:
REMARK  status: ('A' for Active; 'I' for Inactive)
REMARK    1  A    between atoms: C_2  and  O_3
REMARK    2  A    between atoms: C_2  and  C_4
REMARK    3  A    between atoms: C_4  and  N_5
REMARK    4  A    between atoms: C_11  and  C_12
REMARK    5  A    between atoms: C_12  and  C_14
REMARK    6  A    between atoms: C_18  and  N_19
REMARK                            x       y       z     vdW  Elec       q    Type
REMARK                         _______ _______ _______ _____ _____    ______ ____
ROOT
ATOM      1  N   UNL     1      -0.258  10.845  20.783  0.00  0.00    +0.000 N 
ATOM      2  C   UNL     1       0.171  11.148  19.521  0.00  0.00    +0.000 C 
ATOM      3  O   UNL     1      -0.042  12.139  18.855  0.00  0.00    +0.000 OA
ATOM      4  C   UNL     1       0.974  10.012  19.073  0.00  0.00    +0.000 A 
ATOM      5  C   UNL     1       1.611   9.802  17.869  0.00  0.00    +0.000 A 
ATOM      6  C   UNL     1       2.304   8.597  17.717  0.00  0.00    +0.000 A 
ATOM      7  C   UNL     1       2.378   7.657  18.775  0.00  0.00    +0.000 A 
ATOM      8  C   UNL     1       1.702   7.893  19.985  0.00  0.00    +0.000 A 
ATOM      9  C   UNL     1       1.008   9.084  20.099  0.00  0.00    +0.000 A 
ATOM     10  C   UNL     1       0.243   9.650  21.210  0.00  0.00    +0.000 C 
ATOM     11  O   UNL     1       0.182   9.200  22.337  0.00  0.00    +0.000 OA
ENDROOT
BRANCH   7  12
ATOM     12  C   UNL     1       3.133   6.383  18.624  0.00  0.00    +0.000 C 
ATOM     13  O   UNL     1       4.305   6.429  18.256  0.00  0.00    +0.000 OA
BRANCH  12  14
ATOM     14  C   UNL     1       2.514   5.061  18.912  0.00  0.00    +0.000 A 
ATOM     15  C   UNL     1       1.798   4.423  17.891  0.00  0.00    +0.000 A 
ATOM     16  C   UNL     1       1.220   3.166  18.110  0.00  0.00    +0.000 A 
ATOM     17  C   UNL     1       1.351   2.544  19.352  0.00  0.00    +0.000 A 
ATOM     18  C   UNL     1       2.046   3.195  20.379  0.00  0.00    +0.000 A 
ATOM     19  C   UNL     1       2.612   4.461  20.173  0.00  0.00    +0.000 A 
BRANCH  18  20
ATOM     20  N   UNL     1       2.205   2.541  21.684  0.00  0.00    +0.000 N 
ATOM     21  O   UNL     1       3.331   2.124  21.988  0.00  0.00    +0.000 OA
ATOM     22  O   UNL     1       1.204   2.465  22.410  0.00  0.00    +0.000 OA
ENDBRANCH  18  20
ENDBRANCH  12  14
ENDBRANCH   7  12
BRANCH   1  23
ATOM     23  C   UNL     1      -1.117  11.719  21.565  0.00  0.00    +0.000 C 
BRANCH  23  25
ATOM     24  O   UNL     1      -0.650  13.164  23.447  0.00  0.00    +0.000 OA
ATOM     25  C   UNL     1      -0.359  12.804  22.314  0.00  0.00    +0.000 C 
BRANCH  25  26
ATOM     26  O   UNL     1       0.767  13.245  21.703  0.00  0.00    +0.000 OA
ATOM     27  H   UNL     1       0.981  14.185  21.885  0.00  0.00    +0.000 HD
ENDBRANCH  25  26
ENDBRANCH  23  25
ENDBRANCH   1  23
TORSDOF 6
ENDMDL
MODEL 8
REMARK VINA RESULT:      -7.8      1.992      3.236
REMARK  Name = 
REMARK  6 active torsions:
REMARK  status: ('A' for Active; 'I' for Inactive)
REMARK    1  A    between atoms: C_2  and  O_3
REMARK    2  A    between atoms: C_2  and  C_4
REMARK    3  A    between atoms: C_4  and  N_5
REMARK    4  A    between atoms: C_11  and  C_12
REMARK    5  A    between atoms: C_12  and  C_14
REMARK    6  A    between atoms: C_18  and  N_19
REMARK                            x       y       z     vdW  Elec       q    Type
REMARK                         _______ _______ _______ _____ _____    ______ ____
ROOT
ATOM      1  N   UNL     1       0.247  11.394  20.603  0.00  0.00    +0.000 N 
ATOM      2  C   UNL     1       0.715  11.252  19.328  0.00  0.00    +0.000 C 
ATOM      3  O   UNL     1       0.710  12.050  18.414  0.00  0.00    +0.000 OA
ATOM      4  C   UNL     1       1.252   9.896  19.232  0.00  0.00    +0.000 A 
ATOM      5  C   UNL     1       1.816   9.244  18.157  0.00  0.00    +0.000 A 
ATOM      6  C   UNL     1       2.235   7.925  18.360  0.00  0.00    +0.000 A 
ATOM      7  C   UNL     1       2.120   7.309  19.632  0.00  0.00    +0.000 A 
ATOM      8  C   UNL     1       1.524   7.996  20.704  0.00  0.00    +0.000 A 
ATOM      9  C   UNL     1       1.101   9.291  20.468  0.00  0.00    +0.000 A 
ATOM     10  C   UNL     1       0.487  10.280  21.354  0.00  0.00    +0.000 C 
ATOM     11  O   UNL     1       0.346  10.171  22.555  0.00  0.00    +0.000 OA
ENDROOT
BRANCH   7  12
ATOM     12  C   UNL     1       2.585   5.913  19.858  0.00  0.00    +0.000 C 
ATOM     13  O   UNL     1       2.231   5.329  20.880  0.00  0.00    +0.000 OA
BRANCH  12  14
ATOM     14  C   UNL     1       3.460   5.206  18.883  0.00  0.00    +0.000 A 
ATOM     15  C   UNL     1       2.856   4.421  17.892  0.00  0.00    +0.000 A 
ATOM     16  C   UNL     1       3.640   3.760  16.938  0.00  0.00    +0.000 A 
ATOM     17  C   UNL     1       5.029   3.875  16.974  0.00  0.00    +0.000 A 
ATOM     18  C   UNL     1       5.632   4.639  17.981  0.00  0.00    +0.000 A 
ATOM     19  C   UNL     1       4.855   5.291  18.950  0.00  0.00    +0.000 A 
BRANCH  18  20
ATOM     20  N   UNL     1       7.092   4.782  18.018  0.00  0.00    +0.000 N 
ATOM     21  O   UNL     1       7.708   4.699  16.947  0.00  0.00    +0.000 OA
ATOM     22  O   UNL     1       7.618   4.998  19.119  0.00  0.00    +0.000 OA
ENDBRANCH  18  20
ENDBRANCH  12  14
ENDBRANCH   7  12
BRANCH   1  23
ATOM     23  C   UNL     1      -0.398  12.604  21.086  0.00  0.00    +0.000 C 
BRANCH  23  25
ATOM     24  O   UNL     1      -2.804  12.468  21.299  0.00  0.00    +0.000 OA
ATOM     25  C   UNL     1      -1.834  12.758  20.610  0.00  0.00    +0.000 C 
BRANCH  25  26
ATOM     26  O   UNL     1      -1.982  13.390  19.420  0.00  0.00    +0.000 OA
ATOM     27  H   UNL     1      -1.280  14.044  19.222  0.00  0.00    +0.000 HD
ENDBRANCH  25  26
ENDBRANCH  23  25
ENDBRANCH   1  23
TORSDOF 6
ENDMDL
MODEL 9
REMARK VINA RESULT:      -7.8      1.997      8.640
REMARK  Name = 
REMARK  6 active torsions:
REMARK  status: ('A' for Active; 'I' for Inactive)
REMARK    1  A    between atoms: C_2  and  O_3
REMARK    2  A    between atoms: C_2  and  C_4
REMARK    3  A    between atoms: C_4  and  N_5
REMARK    4  A    between atoms: C_11  and  C_12
REMARK    5  A    between atoms: C_12  and  C_14
REMARK    6  A    between atoms: C_18  and  N_19
REMARK                            x       y       z     vdW  Elec       q    Type
REMARK                         _______ _______ _______ _____ _____    ______ ____
ROOT
ATOM      1  N   UNL     1       4.949   4.974  17.011  0.00  0.00    +0.000 N 
ATOM      2  C   UNL     1       4.377   4.573  18.185  0.00  0.00    +0.000 C 
ATOM      3  O   UNL     1       4.509   3.527  18.786  0.00  0.00    +0.000 OA
ATOM      4  C   UNL     1       3.523   5.674  18.627  0.00  0.00    +0.000 A 
ATOM      5  C   UNL     1       2.708   5.769  19.735  0.00  0.00    +0.000 A 
ATOM      6  C   UNL     1       1.987   6.956  19.895  0.00  0.00    +0.000 A 
ATOM      7  C   UNL     1       2.128   8.026  18.976  0.00  0.00    +0.000 A 
ATOM      8  C   UNL     1       2.955   7.892  17.847  0.00  0.00    +0.000 A 
ATOM      9  C   UNL     1       3.639   6.699  17.705  0.00  0.00    +0.000 A 
ATOM     10  C   UNL     1       4.591   6.250  16.688  0.00  0.00    +0.000 C 
ATOM     11  O   UNL     1       5.068   6.936  15.806  0.00  0.00    +0.000 OA
ENDROOT
BRANCH   7  12
ATOM     12  C   UNL     1       1.379   9.301  19.155  0.00  0.00    +0.000 C 
ATOM     13  O   UNL     1       1.306  10.083  18.210  0.00  0.00    +0.000 OA
BRANCH  12  14
ATOM     14  C   UNL     1       0.715   9.651  20.440  0.00  0.00    +0.000 A 
ATOM     15  C   UNL     1       1.138   9.003  21.608  0.00  0.00    +0.000 A 
ATOM     16  C   UNL     1       0.557   9.319  22.843  0.00  0.00    +0.000 A 
ATOM     17  C   UNL     1      -0.450  10.281  22.915  0.00  0.00    +0.000 A 
ATOM     18  C   UNL     1      -0.889  10.910  21.743  0.00  0.00    +0.000 A 
ATOM     19  C   UNL     1      -0.325  10.586  20.501  0.00  0.00    +0.000 A 
BRANCH  18  20
ATOM     20  N   UNL     1      -1.936  11.936  21.810  0.00  0.00    +0.000 N 
ATOM     21  O   UNL     1      -2.060  12.699  20.843  0.00  0.00    +0.000 OA
ATOM     22  O   UNL     1      -2.645  11.962  22.826  0.00  0.00    +0.000 OA
ENDBRANCH  18  20
ENDBRANCH  12  14
ENDBRANCH   7  12
BRANCH   1  23
ATOM     23  C   UNL     1       5.848   4.136  16.235  0.00  0.00    +0.000 C 
BRANCH  23  25
ATOM     24  O   UNL     1       8.112   4.239  17.082  0.00  0.00    +0.000 OA
ATOM     25  C   UNL     1       7.292   4.615  16.254  0.00  0.00    +0.000 C 
BRANCH  25  26
ATOM     26  O   UNL     1       7.662   5.373  15.194  0.00  0.00    +0.000 OA
ATOM     27  H   UNL     1       8.474   5.902  15.342  0.00  0.00    +0.000 HD
ENDBRANCH  25  26
ENDBRANCH  23  25
ENDBRANCH   1  23
TORSDOF 6
ENDMDL
