MODEL 1
REMARK VINA RESULT:      -7.9      0.000      0.000
REMARK  Name = 
REMARK  11 active torsions:
REMARK  status: ('A' for Active; 'I' for Inactive)
REMARK    1  A    between atoms: C_1  and  O_2
REMARK    2  A    between atoms: O_2  and  C_3
REMARK    3  A    between atoms: C_3  and  C_4
REMARK    4  A    between atoms: C_4  and  N_5
REMARK    5  A    between atoms: C_6  and  S_7
REMARK    6  A    between atoms: S_7  and  C_8
REMARK    7  A    between atoms: C_10  and  C_11
REMARK    8  A    between atoms: C_18  and  C_19
REMARK    9  A    between atoms: N_24  and  C_25
REMARK   10  A    between atoms: C_25  and  C_26
REMARK   11  A    between atoms: C_25  and  C_27
REMARK                            x       y       z     vdW  Elec       q    Type
REMARK                         _______ _______ _______ _____ _____    ______ ____
ROOT
ATOM      1  N   UNL     1      -2.067  12.445  20.850  0.00  0.00    +0.000 N 
ATOM      2  C   UNL     1      -3.384  12.833  20.758  0.00  0.00    +0.000 A 
ATOM      3  N   UNL     1      -3.913  12.500  19.609  0.00  0.00    +0.000 NA
ATOM      4  C   UNL     1      -2.936  11.808  18.937  0.00  0.00    +0.000 A 
ATOM      5  C   UNL     1      -1.758  11.736  19.680  0.00  0.00    +0.000 A 
ENDROOT
BRANCH   5   6
ATOM      6  C   UNL     1      -0.444  11.154  19.353  0.00  0.00    +0.000 A 
ATOM      7  C   UNL     1       0.574  11.915  18.780  0.00  0.00    +0.000 A 
ATOM      8  C   UNL     1       1.788  11.305  18.508  0.00  0.00    +0.000 A 
ATOM      9  N   UNL     1       2.077  10.024  18.829  0.00  0.00    +0.000 NA
ATOM     10  C   UNL     1       1.115   9.298  19.413  0.00  0.00    +0.000 A 
ATOM     11  N   UNL     1       1.361   8.028  19.950  0.00  0.00    +0.000 N 
ATOM     12  C   UNL     1      -0.157   9.818  19.636  0.00  0.00    +0.000 A 
ATOM     13  H   UNL     1       1.425   8.126  20.962  0.00  0.00    +0.000 HD
BRANCH  11  14
ATOM     14  C   UNL     1       2.477   7.263  19.405  0.00  0.00    +0.000 C 
ATOM     15  C   UNL     1       2.673   7.702  17.950  0.00  0.00    +0.000 C 
BRANCH  14  16
ATOM     16  C   UNL     1       2.138   5.778  19.478  0.00  0.00    +0.000 A 
ATOM     17  C   UNL     1       1.880   5.175  20.719  0.00  0.00    +0.000 A 
ATOM     18  C   UNL     1       1.574   3.815  20.802  0.00  0.00    +0.000 A 
ATOM     19  C   UNL     1       1.516   3.039  19.644  0.00  0.00    +0.000 A 
ATOM     20  C   UNL     1       1.761   3.621  18.404  0.00  0.00    +0.000 A 
ATOM     21  C   UNL     1       2.066   4.981  18.321  0.00  0.00    +0.000 A 
ENDBRANCH  14  16
ENDBRANCH  11  14
ENDBRANCH   5   6
BRANCH   4  22
ATOM     22  C   UNL     1      -3.170  11.275  17.603  0.00  0.00    +0.000 A 
ATOM     23  C   UNL     1      -4.337  11.640  16.912  0.00  0.00    +0.000 A 
ATOM     24  C   UNL     1      -4.564  11.174  15.615  0.00  0.00    +0.000 A 
ATOM     25  C   UNL     1      -3.625  10.347  15.010  0.00  0.00    +0.000 A 
ATOM     26  F   UNL     1      -3.835   9.912  13.762  0.00  0.00    +0.000 F 
ATOM     27  C   UNL     1      -2.470   9.966  15.680  0.00  0.00    +0.000 A 
ATOM     28  C   UNL     1      -2.252  10.413  16.984  0.00  0.00    +0.000 A 
ENDBRANCH   4  22
BRANCH   2  29
ATOM     29  S   UNL     1      -4.230  13.677  22.019  0.00  0.00    +0.000 S 
ATOM     30  C   UNL     1      -4.110  15.387  21.452  0.00  0.00    +0.000 C 
ENDBRANCH   2  29
BRANCH   1  31
ATOM     31  C   UNL     1      -1.156  12.745  21.944  0.00  0.00    +0.000 C 
BRANCH  31  32
ATOM     32  C   UNL     1      -1.142  11.681  23.038  0.00  0.00    +0.000 C 
BRANCH  32  34
ATOM     33  C   UNL     1      -0.220   9.527  23.183  0.00  0.00    +0.000 C 
ATOM     34  O   UNL     1       0.058  10.907  22.952  0.00  0.00    +0.000 OA
ENDBRANCH  32  34
ENDBRANCH  31  32
ENDBRANCH   1  31
TORSDOF 8
ENDMDL
MODEL 2
REMARK VINA RESULT:      -7.8      0.519      1.308
REMARK  Name = 
REMARK  11 active torsions:
REMARK  status: ('A' for Active; 'I' for Inactive)
REMARK    1  A    between atoms: C_1  and  O_2
REMARK    2  A    between atoms: O_2  and  C_3
REMARK    3  A    between atoms: C_3  and  C_4
REMARK    4  A    between atoms: C_4  and  N_5
REMARK    5  A    between atoms: C_6  and  S_7
REMARK    6  A    between atoms: S_7  and  C_8
REMARK    7  A    between atoms: C_10  and  C_11
REMARK    8  A    between atoms: C_18  and  C_19
REMARK    9  A    between atoms: N_24  and  C_25
REMARK   10  A    between atoms: C_25  and  C_26
REMARK   11  A    between atoms: C_25  and  C_27
REMARK                            x       y       z     vdW  Elec       q    Type
REMARK                         _______ _______ _______ _____ _____    ______ ____
ROOT
ATOM      1  N   UNL     1      -2.154  12.412  20.960  0.00  0.00    +0.000 N 
ATOM      2  C   UNL     1      -3.471  12.801  20.878  0.00  0.00    +0.000 A 
ATOM      3  N   UNL     1      -3.994  12.511  19.714  0.00  0.00    +0.000 NA
ATOM      4  C   UNL     1      -3.013  11.847  19.021  0.00  0.00    +0.000 A 
ATOM      5  C   UNL     1      -1.838  11.748  19.766  0.00  0.00    +0.000 A 
ENDROOT
BRANCH   5   6
ATOM      6  C   UNL     1      -0.522  11.182  19.422  0.00  0.00    +0.000 A 
ATOM      7  C   UNL     1       0.486  11.958  18.853  0.00  0.00    +0.000 A 
ATOM      8  C   UNL     1       1.703  11.362  18.565  0.00  0.00    +0.000 A 
ATOM      9  N   UNL     1       2.005  10.079  18.867  0.00  0.00    +0.000 NA
ATOM     10  C   UNL     1       1.052   9.338  19.447  0.00  0.00    +0.000 A 
ATOM     11  N   UNL     1       1.312   8.063  19.965  0.00  0.00    +0.000 N 
ATOM     12  C   UNL     1      -0.222   9.844  19.685  0.00  0.00    +0.000 A 
ATOM     13  H   UNL     1       1.381   8.147  20.978  0.00  0.00    +0.000 HD
BRANCH  11  14
ATOM     14  C   UNL     1       2.430   7.314  19.403  0.00  0.00    +0.000 C 
ATOM     15  C   UNL     1       2.584   7.740  17.939  0.00  0.00    +0.000 C 
BRANCH  14  16
ATOM     16  C   UNL     1       2.124   5.823  19.500  0.00  0.00    +0.000 A 
ATOM     17  C   UNL     1       1.978   5.057  18.332  0.00  0.00    +0.000 A 
ATOM     18  C   UNL     1       1.692   3.692  18.405  0.00  0.00    +0.000 A 
ATOM     19  C   UNL     1       1.552   3.072  19.647  0.00  0.00    +0.000 A 
ATOM     20  C   UNL     1       1.701   3.814  20.815  0.00  0.00    +0.000 A 
ATOM     21  C   UNL     1       1.988   5.178  20.742  0.00  0.00    +0.000 A 
ENDBRANCH  14  16
ENDBRANCH  11  14
ENDBRANCH   5   6
BRANCH   4  22
ATOM     22  C   UNL     1      -3.241  11.364  17.667  0.00  0.00    +0.000 A 
ATOM     23  C   UNL     1      -2.337  10.450  17.102  0.00  0.00    +0.000 A 
ATOM     24  C   UNL     1      -2.556   9.942  15.820  0.00  0.00    +0.000 A 
ATOM     25  C   UNL     1      -3.679  10.344  15.106  0.00  0.00    +0.000 A 
ATOM     26  F   UNL     1      -3.897   9.847  13.883  0.00  0.00    +0.000 F 
ATOM     27  C   UNL     1      -4.578  11.256  15.642  0.00  0.00    +0.000 A 
ATOM     28  C   UNL     1      -4.349  11.781  16.914  0.00  0.00    +0.000 A 
ENDBRANCH   4  22
BRANCH   2  29
ATOM     29  S   UNL     1      -4.324  13.595  22.166  0.00  0.00    +0.000 S 
ATOM     30  C   UNL     1      -6.020  13.052  21.864  0.00  0.00    +0.000 C 
ENDBRANCH   2  29
BRANCH   1  31
ATOM     31  C   UNL     1      -1.248  12.672  22.069  0.00  0.00    +0.000 C 
BRANCH  31  32
ATOM     32  C   UNL     1      -1.337  11.638  23.188  0.00  0.00    +0.000 C 
BRANCH  32  34
ATOM     33  C   UNL     1      -0.435   9.471  23.145  0.00  0.00    +0.000 C 
ATOM     34  O   UNL     1      -0.136  10.863  23.234  0.00  0.00    +0.000 OA
ENDBRANCH  32  34
ENDBRANCH  31  32
ENDBRANCH   1  31
TORSDOF 8
ENDMDL
MODEL 3
REMARK VINA RESULT:      -7.7      3.093      5.132
REMARK  Name = 
REMARK  11 active torsions:
REMARK  status: ('A' for Active; 'I' for Inactive)
REMARK    1  A    between atoms: C_1  and  O_2
REMARK    2  A    between atoms: O_2  and  C_3
REMARK    3  A    between atoms: C_3  and  C_4
REMARK    4  A    between atoms: C_4  and  N_5
REMARK    5  A    between atoms: C_6  and  S_7
REMARK    6  A    between atoms: S_7  and  C_8
REMARK    7  A    between atoms: C_10  and  C_11
REMARK    8  A    between atoms: C_18  and  C_19
REMARK    9  A    between atoms: N_24  and  C_25
REMARK   10  A    between atoms: C_25  and  C_26
REMARK   11  A    between atoms: C_25  and  C_27
REMARK                            x       y       z     vdW  Elec       q    Type
REMARK                         _______ _______ _______ _____ _____    ______ ____
ROOT
ATOM      1  N   UNL     1      -3.983  11.486  18.405  0.00  0.00    +0.000 N 
ATOM      2  C   UNL     1      -5.180  11.947  18.906  0.00  0.00    +0.000 A 
ATOM      3  N   UNL     1      -5.016  12.617  20.018  0.00  0.00    +0.000 NA
ATOM      4  C   UNL     1      -3.661  12.662  20.229  0.00  0.00    +0.000 A 
ATOM      5  C   UNL     1      -2.965  11.973  19.236  0.00  0.00    +0.000 A 
ENDROOT
BRANCH   5   6
ATOM      6  C   UNL     1      -1.525  11.704  19.076  0.00  0.00    +0.000 A 
ATOM      7  C   UNL     1      -0.612  12.724  18.811  0.00  0.00    +0.000 A 
ATOM      8  C   UNL     1       0.729  12.400  18.682  0.00  0.00    +0.000 A 
ATOM      9  N   UNL     1       1.225  11.156  18.867  0.00  0.00    +0.000 NA
ATOM     10  C   UNL     1       0.358  10.179  19.158  0.00  0.00    +0.000 A 
ATOM     11  N   UNL     1       0.778   8.901  19.547  0.00  0.00    +0.000 N 
ATOM     12  C   UNL     1      -1.013  10.413  19.216  0.00  0.00    +0.000 A 
ATOM     13  H   UNL     1       0.666   8.831  20.557  0.00  0.00    +0.000 HD
BRANCH  11  14
ATOM     14  C   UNL     1       2.098   8.456  19.113  0.00  0.00    +0.000 C 
ATOM     15  C   UNL     1       2.214   8.746  17.613  0.00  0.00    +0.000 C 
BRANCH  14  16
ATOM     16  C   UNL     1       2.228   6.961  19.383  0.00  0.00    +0.000 A 
ATOM     17  C   UNL     1       2.808   6.120  18.421  0.00  0.00    +0.000 A 
ATOM     18  C   UNL     1       2.929   4.748  18.652  0.00  0.00    +0.000 A 
ATOM     19  C   UNL     1       2.476   4.198  19.851  0.00  0.00    +0.000 A 
ATOM     20  C   UNL     1       1.905   5.017  20.820  0.00  0.00    +0.000 A 
ATOM     21  C   UNL     1       1.786   6.389  20.590  0.00  0.00    +0.000 A 
ENDBRANCH  14  16
ENDBRANCH  11  14
ENDBRANCH   5   6
BRANCH   4  22
ATOM     22  C   UNL     1      -3.100  13.338  21.390  0.00  0.00    +0.000 A 
ATOM     23  C   UNL     1      -2.939  12.625  22.590  0.00  0.00    +0.000 A 
ATOM     24  C   UNL     1      -2.366  13.240  23.705  0.00  0.00    +0.000 A 
ATOM     25  C   UNL     1      -1.952  14.564  23.620  0.00  0.00    +0.000 A 
ATOM     26  F   UNL     1      -1.390  15.150  24.684  0.00  0.00    +0.000 F 
ATOM     27  C   UNL     1      -2.113  15.290  22.447  0.00  0.00    +0.000 A 
ATOM     28  C   UNL     1      -2.705  14.683  21.339  0.00  0.00    +0.000 A 
ENDBRANCH   4  22
BRANCH   2  29
ATOM     29  S   UNL     1      -6.717  11.656  18.153  0.00  0.00    +0.000 S 
ATOM     30  C   UNL     1      -6.878  13.106  17.089  0.00  0.00    +0.000 C 
ENDBRANCH   2  29
BRANCH   1  31
ATOM     31  C   UNL     1      -3.813  10.623  17.245  0.00  0.00    +0.000 C 
BRANCH  31  32
ATOM     32  C   UNL     1      -3.544  11.385  15.950  0.00  0.00    +0.000 C 
BRANCH  32  34
ATOM     33  C   UNL     1      -3.398  10.013  14.051  0.00  0.00    +0.000 C 
ATOM     34  O   UNL     1      -2.668  10.627  15.111  0.00  0.00    +0.000 OA
ENDBRANCH  32  34
ENDBRANCH  31  32
ENDBRANCH   1  31
TORSDOF 8
ENDMDL
MODEL 4
REMARK VINA RESULT:      -7.7      3.076      5.033
REMARK  Name = 
REMARK  11 active torsions:
REMARK  status: ('A' for Active; 'I' for Inactive)
REMARK    1  A    between atoms: C_1  and  O_2
REMARK    2  A    between atoms: O_2  and  C_3
REMARK    3  A    between atoms: C_3  and  C_4
REMARK    4  A    between atoms: C_4  and  N_5
REMARK    5  A    between atoms: C_6  and  S_7
REMARK    6  A    between atoms: S_7  and  C_8
REMARK    7  A    between atoms: C_10  and  C_11
REMARK    8  A    between atoms: C_18  and  C_19
REMARK    9  A    between atoms: N_24  and  C_25
REMARK   10  A    between atoms: C_25  and  C_26
REMARK   11  A    between atoms: C_25  and  C_27
REMARK                            x       y       z     vdW  Elec       q    Type
REMARK                         _______ _______ _______ _____ _____    ______ ____
ROOT
ATOM      1  N   UNL     1      -3.958  11.440  18.444  0.00  0.00    +0.000 N 
ATOM      2  C   UNL     1      -5.152  11.923  18.928  0.00  0.00    +0.000 A 
ATOM      3  N   UNL     1      -4.986  12.639  20.011  0.00  0.00    +0.000 NA
ATOM      4  C   UNL     1      -3.630  12.690  20.218  0.00  0.00    +0.000 A 
ATOM      5  C   UNL     1      -2.937  11.959  19.253  0.00  0.00    +0.000 A 
ENDROOT
BRANCH   5   6
ATOM      6  C   UNL     1      -1.498  11.681  19.102  0.00  0.00    +0.000 A 
ATOM      7  C   UNL     1      -0.574  12.698  18.863  0.00  0.00    +0.000 A 
ATOM      8  C   UNL     1       0.765  12.365  18.741  0.00  0.00    +0.000 A 
ATOM      9  N   UNL     1       1.250  11.114  18.910  0.00  0.00    +0.000 NA
ATOM     10  C   UNL     1       0.372  10.139  19.176  0.00  0.00    +0.000 A 
ATOM     11  N   UNL     1       0.778   8.851  19.548  0.00  0.00    +0.000 N 
ATOM     12  C   UNL     1      -0.998  10.384  19.225  0.00  0.00    +0.000 A 
ATOM     13  H   UNL     1       0.656   8.765  20.555  0.00  0.00    +0.000 HD
BRANCH  11  14
ATOM     14  C   UNL     1       2.098   8.403  19.119  0.00  0.00    +0.000 C 
ATOM     15  C   UNL     1       2.236   8.729  17.628  0.00  0.00    +0.000 C 
BRANCH  14  16
ATOM     16  C   UNL     1       2.209   6.900  19.354  0.00  0.00    +0.000 A 
ATOM     17  C   UNL     1       1.815   6.350  20.584  0.00  0.00    +0.000 A 
ATOM     18  C   UNL     1       1.916   4.976  20.816  0.00  0.00    +0.000 A 
ATOM     19  C   UNL     1       2.407   4.133  19.819  0.00  0.00    +0.000 A 
ATOM     20  C   UNL     1       2.794   4.659  18.590  0.00  0.00    +0.000 A 
ATOM     21  C   UNL     1       2.693   6.032  18.358  0.00  0.00    +0.000 A 
ENDBRANCH  14  16
ENDBRANCH  11  14
ENDBRANCH   5   6
BRANCH   4  22
ATOM     22  C   UNL     1      -3.066  13.412  21.349  0.00  0.00    +0.000 A 
ATOM     23  C   UNL     1      -2.766  14.778  21.212  0.00  0.00    +0.000 A 
ATOM     24  C   UNL     1      -2.262  15.502  22.295  0.00  0.00    +0.000 A 
ATOM     25  C   UNL     1      -2.062  14.862  23.513  0.00  0.00    +0.000 A 
ATOM     26  F   UNL     1      -1.593  15.559  24.555  0.00  0.00    +0.000 F 
ATOM     27  C   UNL     1      -2.342  13.511  23.666  0.00  0.00    +0.000 A 
ATOM     28  C   UNL     1      -2.824  12.781  22.579  0.00  0.00    +0.000 A 
ENDBRANCH   4  22
BRANCH   2  29
ATOM     29  S   UNL     1      -6.691  11.604  18.190  0.00  0.00    +0.000 S 
ATOM     30  C   UNL     1      -6.887  13.049  17.125  0.00  0.00    +0.000 C 
ENDBRANCH   2  29
BRANCH   1  31
ATOM     31  C   UNL     1      -3.790  10.529  17.322  0.00  0.00    +0.000 C 
BRANCH  31  32
ATOM     32  C   UNL     1      -3.666  11.235  15.974  0.00  0.00    +0.000 C 
BRANCH  32  34
ATOM     33  C   UNL     1      -3.242  10.050  13.993  0.00  0.00    +0.000 C 
ATOM     34  O   UNL     1      -2.665  10.595  15.178  0.00  0.00    +0.000 OA
ENDBRANCH  32  34
ENDBRANCH  31  32
ENDBRANCH   1  31
TORSDOF 8
ENDMDL
MODEL 5
REMARK VINA RESULT:      -7.6      3.063      4.993
REMARK  Name = 
REMARK  11 active torsions:
REMARK  status: ('A' for Active; 'I' for Inactive)
REMARK    1  A    between atoms: C_1  and  O_2
REMARK    2  A    between atoms: O_2  and  C_3
REMARK    3  A    between atoms: C_3  and  C_4
REMARK    4  A    between atoms: C_4  and  N_5
REMARK    5  A    between atoms: C_6  and  S_7
REMARK    6  A    between atoms: S_7  and  C_8
REMARK    7  A    between atoms: C_10  and  C_11
REMARK    8  A    between atoms: C_18  and  C_19
REMARK    9  A    between atoms: N_24  and  C_25
REMARK   10  A    between atoms: C_25  and  C_26
REMARK   11  A    between atoms: C_25  and  C_27
REMARK                            x       y       z     vdW  Elec       q    Type
REMARK                         _______ _______ _______ _____ _____    ______ ____
ROOT
ATOM      1  N   UNL     1      -3.570  11.419  18.359  0.00  0.00    +0.000 N 
ATOM      2  C   UNL     1      -4.734  11.984  18.830  0.00  0.00    +0.000 A 
ATOM      3  N   UNL     1      -4.530  12.696  19.908  0.00  0.00    +0.000 NA
ATOM      4  C   UNL     1      -3.175  12.659  20.127  0.00  0.00    +0.000 A 
ATOM      5  C   UNL     1      -2.524  11.877  19.173  0.00  0.00    +0.000 A 
ENDROOT
BRANCH   5   6
ATOM      6  C   UNL     1      -1.105  11.504  19.036  0.00  0.00    +0.000 A 
ATOM      7  C   UNL     1      -0.118  12.453  18.771  0.00  0.00    +0.000 A 
ATOM      8  C   UNL     1       1.197  12.033  18.665  0.00  0.00    +0.000 A 
ATOM      9  N   UNL     1       1.601  10.759  18.872  0.00  0.00    +0.000 NA
ATOM     10  C   UNL     1       0.663   9.850  19.163  0.00  0.00    +0.000 A 
ATOM     11  N   UNL     1       0.986   8.550  19.574  0.00  0.00    +0.000 N 
ATOM     12  C   UNL     1      -0.689  10.182  19.199  0.00  0.00    +0.000 A 
ATOM     13  H   UNL     1       0.856   8.502  20.583  0.00  0.00    +0.000 HD
BRANCH  11  14
ATOM     14  C   UNL     1       2.276   8.007  19.163  0.00  0.00    +0.000 C 
ATOM     15  C   UNL     1       2.482   8.368  17.688  0.00  0.00    +0.000 C 
BRANCH  14  16
ATOM     16  C   UNL     1       2.255   6.494  19.349  0.00  0.00    +0.000 A 
ATOM     17  C   UNL     1       1.845   5.941  20.573  0.00  0.00    +0.000 A 
ATOM     18  C   UNL     1       1.826   4.557  20.761  0.00  0.00    +0.000 A 
ATOM     19  C   UNL     1       2.212   3.706  19.725  0.00  0.00    +0.000 A 
ATOM     20  C   UNL     1       2.613   4.235  18.502  0.00  0.00    +0.000 A 
ATOM     21  C   UNL     1       2.631   5.618  18.314  0.00  0.00    +0.000 A 
ENDBRANCH  14  16
ENDBRANCH  11  14
ENDBRANCH   5   6
BRANCH   4  22
ATOM     22  C   UNL     1      -2.574  13.352  21.257  0.00  0.00    +0.000 A 
ATOM     23  C   UNL     1      -2.217  12.619  22.401  0.00  0.00    +0.000 A 
ATOM     24  C   UNL     1      -1.602  13.255  23.482  0.00  0.00    +0.000 A 
ATOM     25  C   UNL     1      -1.342  14.618  23.418  0.00  0.00    +0.000 A 
ATOM     26  F   UNL     1      -0.740  15.225  24.448  0.00  0.00    +0.000 F 
ATOM     27  C   UNL     1      -1.698  15.363  22.301  0.00  0.00    +0.000 A 
ATOM     28  C   UNL     1      -2.332  14.734  21.230  0.00  0.00    +0.000 A 
ENDBRANCH   4  22
BRANCH   2  29
ATOM     29  S   UNL     1      -6.285  11.761  18.081  0.00  0.00    +0.000 S 
ATOM     30  C   UNL     1      -7.289  11.225  19.484  0.00  0.00    +0.000 C 
ENDBRANCH   2  29
BRANCH   1  31
ATOM     31  C   UNL     1      -3.454  10.492  17.245  0.00  0.00    +0.000 C 
BRANCH  31  32
ATOM     32  C   UNL     1      -2.634  11.036  16.078  0.00  0.00    +0.000 C 
BRANCH  32  34
ATOM     33  C   UNL     1      -3.233   9.998  14.060  0.00  0.00    +0.000 C 
ATOM     34  O   UNL     1      -3.450  11.125  14.907  0.00  0.00    +0.000 OA
ENDBRANCH  32  34
ENDBRANCH  31  32
ENDBRANCH   1  31
TORSDOF 8
ENDMDL
MODEL 6
REMARK VINA RESULT:      -7.5      4.681      9.516
REMARK  Name = 
REMARK  11 active torsions:
REMARK  status: ('A' for Active; 'I' for Inactive)
REMARK    1  A    between atoms: C_1  and  O_2
REMARK    2  A    between atoms: O_2  and  C_3
REMARK    3  A    between atoms: C_3  and  C_4
REMARK    4  A    between atoms: C_4  and  N_5
REMARK    5  A    between atoms: C_6  and  S_7
REMARK    6  A    between atoms: S_7  and  C_8
REMARK    7  A    between atoms: C_10  and  C_11
REMARK    8  A    between atoms: C_18  and  C_19
REMARK    9  A    between atoms: N_24  and  C_25
REMARK   10  A    between atoms: C_25  and  C_26
REMARK   11  A    between atoms: C_25  and  C_27
REMARK                            x       y       z     vdW  Elec       q    Type
REMARK                         _______ _______ _______ _____ _____    ______ ____
ROOT
ATOM      1  N   UNL     1       4.137   6.074  17.077  0.00  0.00    +0.000 N 
ATOM      2  C   UNL     1       4.599   4.825  16.727  0.00  0.00    +0.000 A 
ATOM      3  N   UNL     1       4.154   3.897  17.535  0.00  0.00    +0.000 NA
ATOM      4  C   UNL     1       3.314   4.538  18.412  0.00  0.00    +0.000 A 
ATOM      5  C   UNL     1       3.261   5.909  18.159  0.00  0.00    +0.000 A 
ENDROOT
BRANCH   5   6
ATOM      6  C   UNL     1       2.553   6.993  18.862  0.00  0.00    +0.000 A 
ATOM      7  C   UNL     1       2.384   6.984  20.246  0.00  0.00    +0.000 A 
ATOM      8  C   UNL     1       1.717   8.042  20.842  0.00  0.00    +0.000 A 
ATOM      9  N   UNL     1       1.276   9.130  20.171  0.00  0.00    +0.000 NA
ATOM     10  C   UNL     1       1.468   9.161  18.846  0.00  0.00    +0.000 A 
ATOM     11  N   UNL     1       1.219  10.310  18.084  0.00  0.00    +0.000 N 
ATOM     12  C   UNL     1       2.051   8.095  18.168  0.00  0.00    +0.000 A 
ATOM     13  H   UNL     1       2.115  10.747  17.878  0.00  0.00    +0.000 HD
BRANCH  11  14
ATOM     14  C   UNL     1       0.249  11.270  18.598  0.00  0.00    +0.000 C 
ATOM     15  C   UNL     1      -0.982  11.219  17.687  0.00  0.00    +0.000 C 
BRANCH  14  16
ATOM     16  C   UNL     1       0.875  12.661  18.579  0.00  0.00    +0.000 A 
ATOM     17  C   UNL     1       2.231  12.818  18.251  0.00  0.00    +0.000 A 
ATOM     18  C   UNL     1       2.819  14.084  18.235  0.00  0.00    +0.000 A 
ATOM     19  C   UNL     1       2.059  15.213  18.542  0.00  0.00    +0.000 A 
ATOM     20  C   UNL     1       0.711  15.078  18.861  0.00  0.00    +0.000 A 
ATOM     21  C   UNL     1       0.123  13.812  18.876  0.00  0.00    +0.000 A 
ENDBRANCH  14  16
ENDBRANCH  11  14
ENDBRANCH   5   6
BRANCH   4  22
ATOM     22  C   UNL     1       2.627   3.810  19.468  0.00  0.00    +0.000 A 
ATOM     23  C   UNL     1       3.371   3.288  20.540  0.00  0.00    +0.000 A 
ATOM     24  C   UNL     1       2.730   2.621  21.585  0.00  0.00    +0.000 A 
ATOM     25  C   UNL     1       1.347   2.479  21.562  0.00  0.00    +0.000 A 
ATOM     26  F   UNL     1       0.730   1.852  22.571  0.00  0.00    +0.000 F 
ATOM     27  C   UNL     1       0.595   2.978  20.507  0.00  0.00    +0.000 A 
ATOM     28  C   UNL     1       1.237   3.625  19.450  0.00  0.00    +0.000 A 
ENDBRANCH   4  22
BRANCH   2  29
ATOM     29  S   UNL     1       5.656   4.530  15.382  0.00  0.00    +0.000 S 
ATOM     30  C   UNL     1       7.231   4.243  16.218  0.00  0.00    +0.000 C 
ENDBRANCH   2  29
BRANCH   1  31
ATOM     31  C   UNL     1       4.516   7.335  16.457  0.00  0.00    +0.000 C 
BRANCH  31  32
ATOM     32  C   UNL     1       5.641   8.062  17.189  0.00  0.00    +0.000 C 
BRANCH  32  34
ATOM     33  C   UNL     1       7.794   7.449  17.896  0.00  0.00    +0.000 C 
ATOM     34  O   UNL     1       6.908   7.537  16.782  0.00  0.00    +0.000 OA
ENDBRANCH  32  34
ENDBRANCH  31  32
ENDBRANCH   1  31
TORSDOF 8
ENDMDL
MODEL 7
REMARK VINA RESULT:      -7.5      1.284      1.918
REMARK  Name = 
REMARK  11 active torsions:
REMARK  status: ('A' for Active; 'I' for Inactive)
REMARK    1  A    between atoms: C_1  and  O_2
REMARK    2  A    between atoms: O_2  and  C_3
REMARK    3  A    between atoms: C_3  and  C_4
REMARK    4  A    between atoms: C_4  and  N_5
REMARK    5  A    between atoms: C_6  and  S_7
REMARK    6  A    between atoms: S_7  and  C_8
REMARK    7  A    between atoms: C_10  and  C_11
REMARK    8  A    between atoms: C_18  and  C_19
REMARK    9  A    between atoms: N_24  and  C_25
REMARK   10  A    between atoms: C_25  and  C_26
REMARK   11  A    between atoms: C_25  and  C_27
REMARK                            x       y       z     vdW  Elec       q    Type
REMARK                         _______ _______ _______ _____ _____    ______ ____
ROOT
ATOM      1  N   UNL     1      -1.222  12.452  21.000  0.00  0.00    +0.000 N 
ATOM      2  C   UNL     1      -2.494  12.974  21.075  0.00  0.00    +0.000 A 
ATOM      3  N   UNL     1      -3.210  12.667  20.024  0.00  0.00    +0.000 NA
ATOM      4  C   UNL     1      -2.411  11.859  19.253  0.00  0.00    +0.000 A 
ATOM      5  C   UNL     1      -1.153  11.684  19.828  0.00  0.00    +0.000 A 
ENDROOT
BRANCH   5   6
ATOM      6  C   UNL     1       0.037  10.960  19.347  0.00  0.00    +0.000 A 
ATOM      7  C   UNL     1       0.982  11.568  18.522  0.00  0.00    +0.000 A 
ATOM      8  C   UNL     1       2.082  10.831  18.115  0.00  0.00    +0.000 A 
ATOM      9  N   UNL     1       2.338   9.568  18.526  0.00  0.00    +0.000 NA
ATOM     10  C   UNL     1       1.452   8.992  19.348  0.00  0.00    +0.000 A 
ATOM     11  N   UNL     1       1.706   7.766  19.977  0.00  0.00    +0.000 N 
ATOM     12  C   UNL     1       0.280   9.640  19.728  0.00  0.00    +0.000 A 
ATOM     13  H   UNL     1       1.959   7.960  20.944  0.00  0.00    +0.000 HD
BRANCH  11  14
ATOM     14  C   UNL     1       2.649   6.856  19.337  0.00  0.00    +0.000 C 
ATOM     15  C   UNL     1       2.713   7.222  17.851  0.00  0.00    +0.000 C 
BRANCH  14  16
ATOM     16  C   UNL     1       2.153   5.425  19.518  0.00  0.00    +0.000 A 
ATOM     17  C   UNL     1       1.959   4.601  18.398  0.00  0.00    +0.000 A 
ATOM     18  C   UNL     1       1.500   3.291  18.547  0.00  0.00    +0.000 A 
ATOM     19  C   UNL     1       1.233   2.784  19.819  0.00  0.00    +0.000 A 
ATOM     20  C   UNL     1       1.427   3.583  20.942  0.00  0.00    +0.000 A 
ATOM     21  C   UNL     1       1.887   4.893  20.793  0.00  0.00    +0.000 A 
ENDBRANCH  14  16
ENDBRANCH  11  14
ENDBRANCH   5   6
BRANCH   4  22
ATOM     22  C   UNL     1      -2.884  11.318  17.988  0.00  0.00    +0.000 A 
ATOM     23  C   UNL     1      -4.120  11.746  17.475  0.00  0.00    +0.000 A 
ATOM     24  C   UNL     1      -4.575  11.272  16.243  0.00  0.00    +0.000 A 
ATOM     25  C   UNL     1      -3.796  10.374  15.524  0.00  0.00    +0.000 A 
ATOM     26  F   UNL     1      -4.225   9.929  14.337  0.00  0.00    +0.000 F 
ATOM     27  C   UNL     1      -2.577   9.928  16.018  0.00  0.00    +0.000 A 
ATOM     28  C   UNL     1      -2.131  10.384  17.259  0.00  0.00    +0.000 A 
ENDBRANCH   4  22
BRANCH   2  29
ATOM     29  S   UNL     1      -3.064  13.934  22.405  0.00  0.00    +0.000 S 
ATOM     30  C   UNL     1      -3.700  12.664  23.520  0.00  0.00    +0.000 C 
ENDBRANCH   2  29
BRANCH   1  31
ATOM     31  C   UNL     1      -0.140  12.685  21.944  0.00  0.00    +0.000 C 
BRANCH  31  32
ATOM     32  C   UNL     1       0.765  13.854  21.562  0.00  0.00    +0.000 C 
BRANCH  32  34
ATOM     33  C   UNL     1       0.703  15.075  19.559  0.00  0.00    +0.000 C 
ATOM     34  O   UNL     1       0.032  14.807  20.789  0.00  0.00    +0.000 OA
ENDBRANCH  32  34
ENDBRANCH  31  32
ENDBRANCH   1  31
TORSDOF 8
ENDMDL
MODEL 8
REMARK VINA RESULT:      -7.5      4.581      9.272
REMARK  Name = 
REMARK  11 active torsions:
REMARK  status: ('A' for Active; 'I' for Inactive)
REMARK    1  A    between atoms: C_1  and  O_2
REMARK    2  A    between atoms: O_2  and  C_3
REMARK    3  A    between atoms: C_3  and  C_4
REMARK    4  A    between atoms: C_4  and  N_5
REMARK    5  A    between atoms: C_6  and  S_7
REMARK    6  A    between atoms: S_7  and  C_8
REMARK    7  A    between atoms: C_10  and  C_11
REMARK    8  A    between atoms: C_18  and  C_19
REMARK    9  A    between atoms: N_24  and  C_25
REMARK   10  A    between atoms: C_25  and  C_26
REMARK   11  A    between atoms: C_25  and  C_27
REMARK                            x       y       z     vdW  Elec       q    Type
REMARK                         _______ _______ _______ _____ _____    ______ ____
ROOT
ATOM      1  N   UNL     1       3.359   4.222  20.022  0.00  0.00    +0.000 N 
ATOM      2  C   UNL     1       4.009   3.009  19.999  0.00  0.00    +0.000 A 
ATOM      3  N   UNL     1       4.816   2.907  18.974  0.00  0.00    +0.000 NA
ATOM      4  C   UNL     1       4.752   4.117  18.329  0.00  0.00    +0.000 A 
ATOM      5  C   UNL     1       3.857   4.984  18.955  0.00  0.00    +0.000 A 
ENDROOT
BRANCH   5   6
ATOM      6  C   UNL     1       3.422   6.346  18.598  0.00  0.00    +0.000 A 
ATOM      7  C   UNL     1       3.862   6.977  17.435  0.00  0.00    +0.000 A 
ATOM      8  C   UNL     1       3.403   8.254  17.156  0.00  0.00    +0.000 A 
ATOM      9  N   UNL     1       2.493   8.910  17.911  0.00  0.00    +0.000 NA
ATOM     10  C   UNL     1       2.039   8.295  19.010  0.00  0.00    +0.000 A 
ATOM     11  N   UNL     1       0.968   8.799  19.759  0.00  0.00    +0.000 N 
ATOM     12  C   UNL     1       2.521   7.048  19.400  0.00  0.00    +0.000 A 
ATOM     13  H   UNL     1       0.142   8.251  19.528  0.00  0.00    +0.000 HD
BRANCH  11  14
ATOM     14  C   UNL     1       0.708  10.233  19.692  0.00  0.00    +0.000 C 
ATOM     15  C   UNL     1       0.608  10.753  21.130  0.00  0.00    +0.000 C 
BRANCH  14  16
ATOM     16  C   UNL     1      -0.603  10.461  18.946  0.00  0.00    +0.000 A 
ATOM     17  C   UNL     1      -1.535  11.393  19.429  0.00  0.00    +0.000 A 
ATOM     18  C   UNL     1      -2.741  11.609  18.759  0.00  0.00    +0.000 A 
ATOM     19  C   UNL     1      -3.031  10.900  17.594  0.00  0.00    +0.000 A 
ATOM     20  C   UNL     1      -2.116   9.978  17.095  0.00  0.00    +0.000 A 
ATOM     21  C   UNL     1      -0.909   9.763  17.764  0.00  0.00    +0.000 A 
ENDBRANCH  14  16
ENDBRANCH  11  14
ENDBRANCH   5   6
BRANCH   4  22
ATOM     22  C   UNL     1       5.531   4.373  17.126  0.00  0.00    +0.000 A 
ATOM     23  C   UNL     1       4.977   4.070  15.871  0.00  0.00    +0.000 A 
ATOM     24  C   UNL     1       5.688   4.344  14.701  0.00  0.00    +0.000 A 
ATOM     25  C   UNL     1       6.949   4.923  14.785  0.00  0.00    +0.000 A 
ATOM     26  F   UNL     1       7.625   5.199  13.663  0.00  0.00    +0.000 F 
ATOM     27  C   UNL     1       7.519   5.219  16.016  0.00  0.00    +0.000 A 
ATOM     28  C   UNL     1       6.819   4.926  17.186  0.00  0.00    +0.000 A 
ENDBRANCH   4  22
BRANCH   2  29
ATOM     29  S   UNL     1       3.769   1.764  21.185  0.00  0.00    +0.000 S 
ATOM     30  C   UNL     1       5.414   1.022  21.267  0.00  0.00    +0.000 C 
ENDBRANCH   2  29
BRANCH   1  31
ATOM     31  C   UNL     1       2.323   4.625  20.960  0.00  0.00    +0.000 C 
BRANCH  31  32
ATOM     32  C   UNL     1       0.983   3.931  20.727  0.00  0.00    +0.000 C 
BRANCH  32  34
ATOM     33  C   UNL     1       0.624   2.434  18.956  0.00  0.00    +0.000 C 
ATOM     34  O   UNL     1       0.736   3.807  19.324  0.00  0.00    +0.000 OA
ENDBRANCH  32  34
ENDBRANCH  31  32
ENDBRANCH   1  31
TORSDOF 8
ENDMDL
MODEL 9
REMARK VINA RESULT:      -7.5      3.185      5.228
REMARK  Name = 
REMARK  11 active torsions:
REMARK  status: ('A' for Active; 'I' for Inactive)
REMARK    1  A    between atoms: C_1  and  O_2
REMARK    2  A    between atoms: O_2  and  C_3
REMARK    3  A    between atoms: C_3  and  C_4
REMARK    4  A    between atoms: C_4  and  N_5
REMARK    5  A    between atoms: C_6  and  S_7
REMARK    6  A    between atoms: S_7  and  C_8
REMARK    7  A    between atoms: C_10  and  C_11
REMARK    8  A    between atoms: C_18  and  C_19
REMARK    9  A    between atoms: N_24  and  C_25
REMARK   10  A    between atoms: C_25  and  C_26
REMARK   11  A    between atoms: C_25  and  C_27
REMARK                            x       y       z     vdW  Elec       q    Type
REMARK                         _______ _______ _______ _____ _____    ______ ____
ROOT
ATOM      1  N   UNL     1      -4.227  12.154  18.526  0.00  0.00    +0.000 N 
ATOM      2  C   UNL     1      -5.515  12.503  18.866  0.00  0.00    +0.000 A 
ATOM      3  N   UNL     1      -5.593  12.941  20.096  0.00  0.00    +0.000 NA
ATOM      4  C   UNL     1      -4.305  12.945  20.572  0.00  0.00    +0.000 A 
ATOM      5  C   UNL     1      -3.406  12.469  19.619  0.00  0.00    +0.000 A 
ENDROOT
BRANCH   5   6
ATOM      6  C   UNL     1      -1.952  12.240  19.692  0.00  0.00    +0.000 A 
ATOM      7  C   UNL     1      -1.067  13.251  20.062  0.00  0.00    +0.000 A 
ATOM      8  C   UNL     1       0.287  12.962  20.120  0.00  0.00    +0.000 A 
ATOM      9  N   UNL     1       0.805  11.732  19.907  0.00  0.00    +0.000 NA
ATOM     10  C   UNL     1      -0.044  10.748  19.587  0.00  0.00    +0.000 A 
ATOM     11  N   UNL     1       0.358   9.407  19.525  0.00  0.00    +0.000 N 
ATOM     12  C   UNL     1      -1.406  10.983  19.424  0.00  0.00    +0.000 A 
ATOM     13  H   UNL     1       0.033   8.946  20.373  0.00  0.00    +0.000 HD
BRANCH  11  14
ATOM     14  C   UNL     1       1.765   9.130  19.258  0.00  0.00    +0.000 C 
ATOM     15  C   UNL     1       2.063   9.583  17.825  0.00  0.00    +0.000 C 
BRANCH  14  16
ATOM     16  C   UNL     1       2.010   7.633  19.411  0.00  0.00    +0.000 A 
ATOM     17  C   UNL     1       1.614   6.971  20.585  0.00  0.00    +0.000 A 
ATOM     18  C   UNL     1       1.837   5.601  20.741  0.00  0.00    +0.000 A 
ATOM     19  C   UNL     1       2.453   4.872  19.725  0.00  0.00    +0.000 A 
ATOM     20  C   UNL     1       2.845   5.509  18.551  0.00  0.00    +0.000 A 
ATOM     21  C   UNL     1       2.622   6.878  18.394  0.00  0.00    +0.000 A 
ENDBRANCH  14  16
ENDBRANCH  11  14
ENDBRANCH   5   6
BRANCH   4  22
ATOM     22  C   UNL     1      -4.004  13.378  21.928  0.00  0.00    +0.000 A 
ATOM     23  C   UNL     1      -3.870  12.417  22.944  0.00  0.00    +0.000 A 
ATOM     24  C   UNL     1      -3.541  12.805  24.244  0.00  0.00    +0.000 A 
ATOM     25  C   UNL     1      -3.343  14.150  24.528  0.00  0.00    +0.000 A 
ATOM     26  F   UNL     1      -3.013  14.522  25.771  0.00  0.00    +0.000 F 
ATOM     27  C   UNL     1      -3.482  15.118  23.542  0.00  0.00    +0.000 A 
ATOM     28  C   UNL     1      -3.832  14.734  22.247  0.00  0.00    +0.000 A 
ENDBRANCH   4  22
BRANCH   2  29
ATOM     29  S   UNL     1      -6.867  12.364  17.786  0.00  0.00    +0.000 S 
ATOM     30  C   UNL     1      -6.820  13.960  16.941  0.00  0.00    +0.000 C 
ENDBRANCH   2  29
BRANCH   1  31
ATOM     31  C   UNL     1      -3.804  11.539  17.277  0.00  0.00    +0.000 C 
BRANCH  31  32
ATOM     32  C   UNL     1      -3.808  10.013  17.314  0.00  0.00    +0.000 C 
BRANCH  32  34
ATOM     33  C   UNL     1      -3.047  10.350  15.119  0.00  0.00    +0.000 C 
ATOM     34  O   UNL     1      -2.989   9.497  16.260  0.00  0.00    +0.000 OA
ENDBRANCH  32  34
ENDBRANCH  31  32
ENDBRANCH   1  31
TORSDOF 8
ENDMDL
