MODEL 1
REMARK VINA RESULT:      -9.4      0.000      0.000
REMARK  Name = 
REMARK  8 active torsions:
REMARK  status: ('A' for Active; 'I' for Inactive)
REMARK    1  A    between atoms: C_1  and  O_2
REMARK    2  A    between atoms: O_2  and  C_3
REMARK    3  A    between atoms: C_5  and  C_6
REMARK    4  A    between atoms: C_12  and  C_13
REMARK    5  A    between atoms: C_25  and  C_26
REMARK    6  A    between atoms: C_26  and  N_27
REMARK    7  A    between atoms: C_31  and  C_32
REMARK    8  A    between atoms: C_32  and  O_34
REMARK                            x       y       z     vdW  Elec       q    Type
REMARK                         _______ _______ _______ _____ _____    ______ ____
ROOT
ATOM      1  C   UNL     1       2.693   6.491  19.398  0.00  0.00    +0.000 A 
ATOM      2  C   UNL     1       1.827   7.521  19.819  0.00  0.00    +0.000 A 
ATOM      3  C   UNL     1       1.650   8.690  19.039  0.00  0.00    +0.000 A 
ATOM      4  C   UNL     1       2.435   8.804  17.898  0.00  0.00    +0.000 A 
ATOM      5  C   UNL     1       3.207   7.686  17.434  0.00  0.00    +0.000 A 
ATOM      6  C   UNL     1       3.255   6.450  18.109  0.00  0.00    +0.000 A 
ENDROOT
BRANCH   3   7
ATOM      7  C   UNL     1       0.568   9.647  19.473  0.00  0.00    +0.000 C 
ATOM      8  O   UNL     1       0.236   9.550  20.659  0.00  0.00    +0.000 OA
ATOM      9  N   UNL     1       0.140  10.756  18.677  0.00  0.00    +0.000 N 
ATOM     10  C   UNL     1       0.080  12.008  19.541  0.00  0.00    +0.000 C 
ATOM     11  C   UNL     1      -0.877  12.936  18.840  0.00  0.00    +0.000 C 
ATOM     12  C   UNL     1      -1.910  11.890  18.582  0.00  0.00    +0.000 A 
ATOM     13  C   UNL     1      -3.281  11.850  18.812  0.00  0.00    +0.000 A 
ATOM     14  C   UNL     1      -3.947  11.016  17.898  0.00  0.00    +0.000 A 
ATOM     15  C   UNL     1      -3.230  10.153  17.038  0.00  0.00    +0.000 A 
ATOM     16  C   UNL     1      -1.855   9.932  17.238  0.00  0.00    +0.000 A 
ATOM     17  C   UNL     1      -1.217  10.761  18.128  0.00  0.00    +0.000 A 
BRANCH  13  18
ATOM     18  C   UNL     1      -3.925  12.424  20.050  0.00  0.00    +0.000 A 
ATOM     19  C   UNL     1      -3.212  12.627  21.250  0.00  0.00    +0.000 A 
ATOM     20  C   UNL     1      -3.790  13.042  22.456  0.00  0.00    +0.000 A 
ATOM     21  C   UNL     1      -5.155  13.235  22.522  0.00  0.00    +0.000 A 
ATOM     22  C   UNL     1      -5.921  12.993  21.386  0.00  0.00    +0.000 A 
ATOM     23  C   UNL     1      -5.317  12.598  20.174  0.00  0.00    +0.000 A 
ENDBRANCH  13  18
ENDBRANCH   3   7
BRANCH   1  25
ATOM     24  C   UNL     1       1.780   4.814  20.735  0.00  0.00    +0.000 C 
ATOM     25  O   UNL     1       2.970   5.519  20.343  0.00  0.00    +0.000 OA
ENDBRANCH   1  25
BRANCH   6  26
ATOM     26  C   UNL     1       3.940   5.143  17.651  0.00  0.00    +0.000 C 
BRANCH  26  27
ATOM     27  N   UNL     1       5.387   4.880  17.520  0.00  0.00    +0.000 NA
ATOM     28  C   UNL     1       6.141   4.699  18.749  0.00  0.00    +0.000 C 
ATOM     29  C   UNL     1       7.094   5.870  18.799  0.00  0.00    +0.000 C 
ATOM     30  C   UNL     1       7.367   6.227  17.348  0.00  0.00    +0.000 C 
ATOM     31  C   UNL     1       6.199   5.654  16.543  0.00  0.00    +0.000 C 
BRANCH  31  32
ATOM     32  C   UNL     1       6.802   4.741  15.447  0.00  0.00    +0.000 C 
ATOM     33  O   UNL     1       7.644   5.098  14.619  0.00  0.00    +0.000 OA
BRANCH  32  34
ATOM     34  O   UNL     1       6.384   3.454  15.533  0.00  0.00    +0.000 OA
ATOM     35  H   UNL     1       5.518   3.391  15.071  0.00  0.00    +0.000 HD
ENDBRANCH  32  34
ENDBRANCH  31  32
ENDBRANCH  26  27
ENDBRANCH   6  26
TORSDOF 7
ENDMDL
MODEL 2
REMARK VINA RESULT:      -9.1      0.720      1.059
REMARK  Name = 
REMARK  8 active torsions:
REMARK  status: ('A' for Active; 'I' for Inactive)
REMARK    1  A    between atoms: C_1  and  O_2
REMARK    2  A    between atoms: O_2  and  C_3
REMARK    3  A    between atoms: C_5  and  C_6
REMARK    4  A    between atoms: C_12  and  C_13
REMARK    5  A    between atoms: C_25  and  C_26
REMARK    6  A    between atoms: C_26  and  N_27
REMARK    7  A    between atoms: C_31  and  C_32
REMARK    8  A    between atoms: C_32  and  O_34
REMARK                            x       y       z     vdW  Elec       q    Type
REMARK                         _______ _______ _______ _____ _____    ______ ____
ROOT
ATOM      1  C   UNL     1       2.607   6.598  19.438  0.00  0.00    +0.000 A 
ATOM      2  C   UNL     1       1.823   7.630  19.994  0.00  0.00    +0.000 A 
ATOM      3  C   UNL     1       1.606   8.840  19.291  0.00  0.00    +0.000 A 
ATOM      4  C   UNL     1       2.274   8.988  18.082  0.00  0.00    +0.000 A 
ATOM      5  C   UNL     1       2.957   7.874  17.490  0.00  0.00    +0.000 A 
ATOM      6  C   UNL     1       3.033   6.605  18.098  0.00  0.00    +0.000 A 
ENDROOT
BRANCH   3   7
ATOM      7  C   UNL     1       0.606   9.805  19.879  0.00  0.00    +0.000 C 
ATOM      8  O   UNL     1       0.303   9.583  21.056  0.00  0.00    +0.000 OA
ATOM      9  N   UNL     1       0.232  11.029  19.241  0.00  0.00    +0.000 N 
ATOM     10  C   UNL     1       0.285  12.165  20.253  0.00  0.00    +0.000 C 
ATOM     11  C   UNL     1      -0.625  13.234  19.706  0.00  0.00    +0.000 C 
ATOM     12  C   UNL     1      -1.736  12.298  19.362  0.00  0.00    +0.000 A 
ATOM     13  C   UNL     1      -3.099  12.319  19.635  0.00  0.00    +0.000 A 
ATOM     14  C   UNL     1      -3.848  11.650  18.652  0.00  0.00    +0.000 A 
ATOM     15  C   UNL     1      -3.217  10.856  17.667  0.00  0.00    +0.000 A 
ATOM     16  C   UNL     1      -1.856  10.523  17.788  0.00  0.00    +0.000 A 
ATOM     17  C   UNL     1      -1.136  11.191  18.748  0.00  0.00    +0.000 A 
BRANCH  13  18
ATOM     18  C   UNL     1      -3.665  12.776  20.958  0.00  0.00    +0.000 A 
ATOM     19  C   UNL     1      -4.627  13.801  21.056  0.00  0.00    +0.000 A 
ATOM     20  C   UNL     1      -5.092  14.340  22.263  0.00  0.00    +0.000 A 
ATOM     21  C   UNL     1      -4.562  13.889  23.455  0.00  0.00    +0.000 A 
ATOM     22  C   UNL     1      -3.565  12.920  23.420  0.00  0.00    +0.000 A 
ATOM     23  C   UNL     1      -3.127  12.373  22.196  0.00  0.00    +0.000 A 
ENDBRANCH  13  18
ENDBRANCH   3   7
BRANCH   1  25
ATOM     24  C   UNL     1       1.789   4.824  20.711  0.00  0.00    +0.000 C 
ATOM     25  O   UNL     1       2.947   5.573  20.304  0.00  0.00    +0.000 OA
ENDBRANCH   1  25
BRANCH   6  26
ATOM     26  C   UNL     1       3.625   5.304  17.512  0.00  0.00    +0.000 C 
BRANCH  26  27
ATOM     27  N   UNL     1       5.050   4.942  17.374  0.00  0.00    +0.000 NA
ATOM     28  C   UNL     1       5.720   4.428  18.556  0.00  0.00    +0.000 C 
ATOM     29  C   UNL     1       6.763   5.467  18.894  0.00  0.00    +0.000 C 
ATOM     30  C   UNL     1       7.141   6.103  17.568  0.00  0.00    +0.000 C 
ATOM     31  C   UNL     1       5.973   5.830  16.619  0.00  0.00    +0.000 C 
BRANCH  31  32
ATOM     32  C   UNL     1       6.554   5.124  15.368  0.00  0.00    +0.000 C 
ATOM     33  O   UNL     1       7.632   5.406  14.838  0.00  0.00    +0.000 OA
BRANCH  32  34
ATOM     34  O   UNL     1       5.803   4.078  14.947  0.00  0.00    +0.000 OA
ATOM     35  H   UNL     1       5.702   4.157  13.971  0.00  0.00    +0.000 HD
ENDBRANCH  32  34
ENDBRANCH  31  32
ENDBRANCH  26  27
ENDBRANCH   6  26
TORSDOF 7
ENDMDL
MODEL 3
REMARK VINA RESULT:      -9.0      1.016      1.508
REMARK  Name = 
REMARK  8 active torsions:
REMARK  status: ('A' for Active; 'I' for Inactive)
REMARK    1  A    between atoms: C_1  and  O_2
REMARK    2  A    between atoms: O_2  and  C_3
REMARK    3  A    between atoms: C_5  and  C_6
REMARK    4  A    between atoms: C_12  and  C_13
REMARK    5  A    between atoms: C_25  and  C_26
REMARK    6  A    between atoms: C_26  and  N_27
REMARK    7  A    between atoms: C_31  and  C_32
REMARK    8  A    between atoms: C_32  and  O_34
REMARK                            x       y       z     vdW  Elec       q    Type
REMARK                         _______ _______ _______ _____ _____    ______ ____
ROOT
ATOM      1  C   UNL     1       2.616   6.732  19.241  0.00  0.00    +0.000 A 
ATOM      2  C   UNL     1       1.718   7.700  19.737  0.00  0.00    +0.000 A 
ATOM      3  C   UNL     1       1.548   8.943  19.080  0.00  0.00    +0.000 A 
ATOM      4  C   UNL     1       2.371   9.189  17.987  0.00  0.00    +0.000 A 
ATOM      5  C   UNL     1       3.179   8.138  17.437  0.00  0.00    +0.000 A 
ATOM      6  C   UNL     1       3.224   6.837  17.977  0.00  0.00    +0.000 A 
ENDROOT
BRANCH   3   7
ATOM      7  C   UNL     1       0.435   9.833  19.572  0.00  0.00    +0.000 C 
ATOM      8  O   UNL     1       0.093   9.636  20.743  0.00  0.00    +0.000 OA
ATOM      9  N   UNL     1      -0.016  10.989  18.859  0.00  0.00    +0.000 N 
ATOM     10  C   UNL     1      -0.120  12.167  19.817  0.00  0.00    +0.000 C 
ATOM     11  C   UNL     1      -1.095  13.121  19.178  0.00  0.00    +0.000 C 
ATOM     12  C   UNL     1      -2.096  12.071  18.826  0.00  0.00    +0.000 A 
ATOM     13  C   UNL     1      -3.467  11.975  19.034  0.00  0.00    +0.000 A 
ATOM     14  C   UNL     1      -4.100  11.197  18.050  0.00  0.00    +0.000 A 
ATOM     15  C   UNL     1      -3.349  10.424  17.134  0.00  0.00    +0.000 A 
ATOM     16  C   UNL     1      -1.971  10.226  17.335  0.00  0.00    +0.000 A 
ATOM     17  C   UNL     1      -1.366  11.000  18.295  0.00  0.00    +0.000 A 
BRANCH  13  18
ATOM     18  C   UNL     1      -4.140  12.434  20.305  0.00  0.00    +0.000 A 
ATOM     19  C   UNL     1      -3.432  12.629  21.509  0.00  0.00    +0.000 A 
ATOM     20  C   UNL     1      -4.029  12.936  22.738  0.00  0.00    +0.000 A 
ATOM     21  C   UNL     1      -5.404  13.019  22.823  0.00  0.00    +0.000 A 
ATOM     22  C   UNL     1      -6.160  12.777  21.681  0.00  0.00    +0.000 A 
ATOM     23  C   UNL     1      -5.540  12.492  20.446  0.00  0.00    +0.000 A 
ENDBRANCH  13  18
ENDBRANCH   3   7
BRANCH   1  25
ATOM     24  C   UNL     1       1.681   5.222  20.752  0.00  0.00    +0.000 C 
ATOM     25  O   UNL     1       2.875   5.669  20.087  0.00  0.00    +0.000 OA
ENDBRANCH   1  25
BRANCH   6  26
ATOM     26  C   UNL     1       3.948   5.596  17.409  0.00  0.00    +0.000 C 
BRANCH  26  27
ATOM     27  N   UNL     1       5.226   5.555  16.670  0.00  0.00    +0.000 NA
ATOM     28  C   UNL     1       5.180   5.867  15.252  0.00  0.00    +0.000 C 
ATOM     29  C   UNL     1       5.570   4.583  14.558  0.00  0.00    +0.000 C 
ATOM     30  C   UNL     1       6.493   3.867  15.528  0.00  0.00    +0.000 C 
ATOM     31  C   UNL     1       6.188   4.447  16.910  0.00  0.00    +0.000 C 
BRANCH  31  32
ATOM     32  C   UNL     1       7.526   4.966  17.494  0.00  0.00    +0.000 C 
ATOM     33  O   UNL     1       7.784   6.151  17.718  0.00  0.00    +0.000 OA
BRANCH  32  34
ATOM     34  O   UNL     1       8.381   3.972  17.838  0.00  0.00    +0.000 OA
ATOM     35  H   UNL     1       8.229   3.763  18.787  0.00  0.00    +0.000 HD
ENDBRANCH  32  34
ENDBRANCH  31  32
ENDBRANCH  26  27
ENDBRANCH   6  26
TORSDOF 7
ENDMDL
MODEL 4
REMARK VINA RESULT:      -8.9      1.267      1.830
REMARK  Name = 
REMARK  8 active torsions:
REMARK  status: ('A' for Active; 'I' for Inactive)
REMARK    1  A    between atoms: C_1  and  O_2
REMARK    2  A    between atoms: O_2  and  C_3
REMARK    3  A    between atoms: C_5  and  C_6
REMARK    4  A    between atoms: C_12  and  C_13
REMARK    5  A    between atoms: C_25  and  C_26
REMARK    6  A    between atoms: C_26  and  N_27
REMARK    7  A    between atoms: C_31  and  C_32
REMARK    8  A    between atoms: C_32  and  O_34
REMARK                            x       y       z     vdW  Elec       q    Type
REMARK                         _______ _______ _______ _____ _____    ______ ____
ROOT
ATOM      1  C   UNL     1       2.588   6.893  19.325  0.00  0.00    +0.000 A 
ATOM      2  C   UNL     1       1.617   7.780  19.834  0.00  0.00    +0.000 A 
ATOM      3  C   UNL     1       1.337   9.006  19.184  0.00  0.00    +0.000 A 
ATOM      4  C   UNL     1       2.125   9.325  18.085  0.00  0.00    +0.000 A 
ATOM      5  C   UNL     1       3.012   8.347  17.521  0.00  0.00    +0.000 A 
ATOM      6  C   UNL     1       3.172   7.053  18.055  0.00  0.00    +0.000 A 
ENDROOT
BRANCH   3   7
ATOM      7  C   UNL     1       0.158   9.799  19.691  0.00  0.00    +0.000 C 
ATOM      8  O   UNL     1      -0.307   9.404  20.767  0.00  0.00    +0.000 OA
ATOM      9  N   UNL     1      -0.235  11.058  19.138  0.00  0.00    +0.000 N 
ATOM     10  C   UNL     1      -0.469  12.056  20.263  0.00  0.00    +0.000 C 
ATOM     11  C   UNL     1      -1.387  13.103  19.688  0.00  0.00    +0.000 C 
ATOM     12  C   UNL     1      -2.321  12.126  19.054  0.00  0.00    +0.000 A 
ATOM     13  C   UNL     1      -3.704  11.995  19.088  0.00  0.00    +0.000 A 
ATOM     14  C   UNL     1      -4.208  11.394  17.922  0.00  0.00    +0.000 A 
ATOM     15  C   UNL     1      -3.346  10.789  16.979  0.00  0.00    +0.000 A 
ATOM     16  C   UNL     1      -1.994  10.561  17.297  0.00  0.00    +0.000 A 
ATOM     17  C   UNL     1      -1.515  11.162  18.435  0.00  0.00    +0.000 A 
BRANCH  13  18
ATOM     18  C   UNL     1      -4.523  12.230  20.334  0.00  0.00    +0.000 A 
ATOM     19  C   UNL     1      -5.929  12.123  20.349  0.00  0.00    +0.000 A 
ATOM     20  C   UNL     1      -6.737  12.447  21.446  0.00  0.00    +0.000 A 
ATOM     21  C   UNL     1      -6.155  12.948  22.592  0.00  0.00    +0.000 A 
ATOM     22  C   UNL     1      -4.777  13.133  22.617  0.00  0.00    +0.000 A 
ATOM     23  C   UNL     1      -3.976  12.778  21.511  0.00  0.00    +0.000 A 
ENDBRANCH  13  18
ENDBRANCH   3   7
BRANCH   1  25
ATOM     24  C   UNL     1       1.787   5.198  20.711  0.00  0.00    +0.000 C 
ATOM     25  O   UNL     1       2.944   5.852  20.163  0.00  0.00    +0.000 OA
ENDBRANCH   1  25
BRANCH   6  26
ATOM     26  C   UNL     1       3.991   5.879  17.474  0.00  0.00    +0.000 C 
BRANCH  26  27
ATOM     27  N   UNL     1       5.335   5.931  16.863  0.00  0.00    +0.000 NA
ATOM     28  C   UNL     1       5.476   5.372  15.530  0.00  0.00    +0.000 C 
ATOM     29  C   UNL     1       6.391   4.182  15.701  0.00  0.00    +0.000 C 
ATOM     30  C   UNL     1       7.281   4.527  16.882  0.00  0.00    +0.000 C 
ATOM     31  C   UNL     1       6.535   5.600  17.677  0.00  0.00    +0.000 C 
BRANCH  31  32
ATOM     32  C   UNL     1       7.487   6.814  17.815  0.00  0.00    +0.000 C 
ATOM     33  O   UNL     1       7.518   7.775  17.043  0.00  0.00    +0.000 OA
BRANCH  32  34
ATOM     34  O   UNL     1       8.241   6.776  18.941  0.00  0.00    +0.000 OA
ATOM     35  H   UNL     1       8.443   7.705  19.194  0.00  0.00    +0.000 HD
ENDBRANCH  32  34
ENDBRANCH  31  32
ENDBRANCH  26  27
ENDBRANCH   6  26
TORSDOF 7
ENDMDL
MODEL 5
REMARK VINA RESULT:      -8.8      1.414      2.101
REMARK  Name = 
REMARK  8 active torsions:
REMARK  status: ('A' for Active; 'I' for Inactive)
REMARK    1  A    between atoms: C_1  and  O_2
REMARK    2  A    between atoms: O_2  and  C_3
REMARK    3  A    between atoms: C_5  and  C_6
REMARK    4  A    between atoms: C_12  and  C_13
REMARK    5  A    between atoms: C_25  and  C_26
REMARK    6  A    between atoms: C_26  and  N_27
REMARK    7  A    between atoms: C_31  and  C_32
REMARK    8  A    between atoms: C_32  and  O_34
REMARK                            x       y       z     vdW  Elec       q    Type
REMARK                         _______ _______ _______ _____ _____    ______ ____
ROOT
ATOM      1  C   UNL     1       2.359   7.204  19.564  0.00  0.00    +0.000 A 
ATOM      2  C   UNL     1       1.457   8.095  20.182  0.00  0.00    +0.000 A 
ATOM      3  C   UNL     1       1.071   9.300  19.545  0.00  0.00    +0.000 A 
ATOM      4  C   UNL     1       1.692   9.595  18.338  0.00  0.00    +0.000 A 
ATOM      5  C   UNL     1       2.505   8.612  17.681  0.00  0.00    +0.000 A 
ATOM      6  C   UNL     1       2.757   7.335  18.221  0.00  0.00    +0.000 A 
ENDROOT
BRANCH   3   7
ATOM      7  C   UNL     1      -0.037  10.094  20.193  0.00  0.00    +0.000 C 
ATOM      8  O   UNL     1      -0.442   9.636  21.268  0.00  0.00    +0.000 OA
ATOM      9  N   UNL     1      -0.414  11.405  19.763  0.00  0.00    +0.000 N 
ATOM     10  C   UNL     1      -0.528  12.323  20.972  0.00  0.00    +0.000 C 
ATOM     11  C   UNL     1      -1.439  13.443  20.543  0.00  0.00    +0.000 C 
ATOM     12  C   UNL     1      -2.454  12.551  19.908  0.00  0.00    +0.000 A 
ATOM     13  C   UNL     1      -3.837  12.468  20.032  0.00  0.00    +0.000 A 
ATOM     14  C   UNL     1      -4.445  11.977  18.864  0.00  0.00    +0.000 A 
ATOM     15  C   UNL     1      -3.675  11.413  17.820  0.00  0.00    +0.000 A 
ATOM     16  C   UNL     1      -2.315  11.114  18.022  0.00  0.00    +0.000 A 
ATOM     17  C   UNL     1      -1.734  11.608  19.164  0.00  0.00    +0.000 A 
BRANCH  13  18
ATOM     18  C   UNL     1      -4.556  12.637  21.348  0.00  0.00    +0.000 A 
ATOM     19  C   UNL     1      -5.906  13.038  21.427  0.00  0.00    +0.000 A 
ATOM     20  C   UNL     1      -6.580  13.323  22.622  0.00  0.00    +0.000 A 
ATOM     21  C   UNL     1      -5.894  13.259  23.818  0.00  0.00    +0.000 A 
ATOM     22  C   UNL     1      -4.544  12.927  23.799  0.00  0.00    +0.000 A 
ATOM     23  C   UNL     1      -3.889  12.620  22.588  0.00  0.00    +0.000 A 
ENDBRANCH  13  18
ENDBRANCH   3   7
BRANCH   1  25
ATOM     24  C   UNL     1       1.817   5.241  20.698  0.00  0.00    +0.000 C 
ATOM     25  O   UNL     1       2.845   6.191  20.371  0.00  0.00    +0.000 OA
ENDBRANCH   1  25
BRANCH   6  26
ATOM     26  C   UNL     1       3.503   6.154  17.561  0.00  0.00    +0.000 C 
BRANCH  26  27
ATOM     27  N   UNL     1       4.923   6.094  17.160  0.00  0.00    +0.000 NA
ATOM     28  C   UNL     1       5.219   6.258  15.748  0.00  0.00    +0.000 C 
ATOM     29  C   UNL     1       5.788   4.927  15.312  0.00  0.00    +0.000 C 
ATOM     30  C   UNL     1       6.459   4.354  16.548  0.00  0.00    +0.000 C 
ATOM     31  C   UNL     1       5.817   5.059  17.744  0.00  0.00    +0.000 C 
BRANCH  31  32
ATOM     32  C   UNL     1       6.963   5.692  18.573  0.00  0.00    +0.000 C 
ATOM     33  O   UNL     1       7.767   6.522  18.142  0.00  0.00    +0.000 OA
BRANCH  32  34
ATOM     34  O   UNL     1       6.952   5.317  19.875  0.00  0.00    +0.000 OA
ATOM     35  H   UNL     1       6.162   4.745  20.013  0.00  0.00    +0.000 HD
ENDBRANCH  32  34
ENDBRANCH  31  32
ENDBRANCH  26  27
ENDBRANCH   6  26
TORSDOF 7
ENDMDL
MODEL 6
REMARK VINA RESULT:      -8.7      1.215      1.611
REMARK  Name = 
REMARK  8 active torsions:
REMARK  status: ('A' for Active; 'I' for Inactive)
REMARK    1  A    between atoms: C_1  and  O_2
REMARK    2  A    between atoms: O_2  and  C_3
REMARK    3  A    between atoms: C_5  and  C_6
REMARK    4  A    between atoms: C_12  and  C_13
REMARK    5  A    between atoms: C_25  and  C_26
REMARK    6  A    between atoms: C_26  and  N_27
REMARK    7  A    between atoms: C_31  and  C_32
REMARK    8  A    between atoms: C_32  and  O_34
REMARK                            x       y       z     vdW  Elec       q    Type
REMARK                         _______ _______ _______ _____ _____    ______ ____
ROOT
ATOM      1  C   UNL     1       2.312   6.807  19.577  0.00  0.00    +0.000 A 
ATOM      2  C   UNL     1       1.526   7.760  20.258  0.00  0.00    +0.000 A 
ATOM      3  C   UNL     1       1.194   8.997  19.654  0.00  0.00    +0.000 A 
ATOM      4  C   UNL     1       1.755   9.255  18.409  0.00  0.00    +0.000 A 
ATOM      5  C   UNL     1       2.441   8.217  17.694  0.00  0.00    +0.000 A 
ATOM      6  C   UNL     1       2.628   6.919  18.211  0.00  0.00    +0.000 A 
ENDROOT
BRANCH   3   7
ATOM      7  C   UNL     1       0.199   9.869  20.379  0.00  0.00    +0.000 C 
ATOM      8  O   UNL     1      -0.193   9.418  21.461  0.00  0.00    +0.000 OA
ATOM      9  N   UNL     1      -0.076  11.221  20.002  0.00  0.00    +0.000 N 
ATOM     10  C   UNL     1      -0.043  12.109  21.239  0.00  0.00    +0.000 C 
ATOM     11  C   UNL     1      -0.867  13.321  20.886  0.00  0.00    +0.000 C 
ATOM     12  C   UNL     1      -1.991  12.545  20.283  0.00  0.00    +0.000 A 
ATOM     13  C   UNL     1      -3.367  12.585  20.476  0.00  0.00    +0.000 A 
ATOM     14  C   UNL     1      -4.075  12.187  19.330  0.00  0.00    +0.000 A 
ATOM     15  C   UNL     1      -3.414  11.587  18.233  0.00  0.00    +0.000 A 
ATOM     16  C   UNL     1      -2.080  11.158  18.357  0.00  0.00    +0.000 A 
ATOM     17  C   UNL     1      -1.399  11.563  19.479  0.00  0.00    +0.000 A 
BRANCH  13  18
ATOM     18  C   UNL     1      -4.002  12.780  21.832  0.00  0.00    +0.000 A 
ATOM     19  C   UNL     1      -3.366  12.389  23.029  0.00  0.00    +0.000 A 
ATOM     20  C   UNL     1      -3.962  12.439  24.295  0.00  0.00    +0.000 A 
ATOM     21  C   UNL     1      -5.274  12.852  24.412  0.00  0.00    +0.000 A 
ATOM     22  C   UNL     1      -5.973  13.193  23.259  0.00  0.00    +0.000 A 
ATOM     23  C   UNL     1      -5.348  13.160  21.994  0.00  0.00    +0.000 A 
ENDBRANCH  13  18
ENDBRANCH   3   7
BRANCH   1  25
ATOM     24  C   UNL     1       1.696   4.872  20.722  0.00  0.00    +0.000 C 
ATOM     25  O   UNL     1       2.769   5.751  20.344  0.00  0.00    +0.000 OA
ENDBRANCH   1  25
BRANCH   6  26
ATOM     26  C   UNL     1       3.232   5.690  17.497  0.00  0.00    +0.000 C 
BRANCH  26  27
ATOM     27  N   UNL     1       4.640   5.244  17.501  0.00  0.00    +0.000 NA
ATOM     28  C   UNL     1       4.922   3.947  18.091  0.00  0.00    +0.000 C 
ATOM     29  C   UNL     1       5.768   4.247  19.307  0.00  0.00    +0.000 C 
ATOM     30  C   UNL     1       6.521   5.521  18.966  0.00  0.00    +0.000 C 
ATOM     31  C   UNL     1       5.722   6.202  17.854  0.00  0.00    +0.000 C 
BRANCH  31  32
ATOM     32  C   UNL     1       6.692   6.434  16.668  0.00  0.00    +0.000 C 
ATOM     33  O   UNL     1       7.785   6.999  16.754  0.00  0.00    +0.000 OA
BRANCH  32  34
ATOM     34  O   UNL     1       6.270   5.865  15.513  0.00  0.00    +0.000 OA
ATOM     35  H   UNL     1       5.358   6.192  15.336  0.00  0.00    +0.000 HD
ENDBRANCH  32  34
ENDBRANCH  31  32
ENDBRANCH  26  27
ENDBRANCH   6  26
TORSDOF 7
ENDMDL
MODEL 7
REMARK VINA RESULT:      -8.4      1.605      2.259
REMARK  Name = 
REMARK  8 active torsions:
REMARK  status: ('A' for Active; 'I' for Inactive)
REMARK    1  A    between atoms: C_1  and  O_2
REMARK    2  A    between atoms: O_2  and  C_3
REMARK    3  A    between atoms: C_5  and  C_6
REMARK    4  A    between atoms: C_12  and  C_13
REMARK    5  A    between atoms: C_25  and  C_26
REMARK    6  A    between atoms: C_26  and  N_27
REMARK    7  A    between atoms: C_31  and  C_32
REMARK    8  A    between atoms: C_32  and  O_34
REMARK                            x       y       z     vdW  Elec       q    Type
REMARK                         _______ _______ _______ _____ _____    ______ ____
ROOT
ATOM      1  C   UNL     1       2.214   7.425  19.538  0.00  0.00    +0.000 A 
ATOM      2  C   UNL     1       1.356   8.305  20.229  0.00  0.00    +0.000 A 
ATOM      3  C   UNL     1       0.917   9.513  19.635  0.00  0.00    +0.000 A 
ATOM      4  C   UNL     1       1.446   9.823  18.388  0.00  0.00    +0.000 A 
ATOM      5  C   UNL     1       2.213   8.851  17.663  0.00  0.00    +0.000 A 
ATOM      6  C   UNL     1       2.511   7.570  18.171  0.00  0.00    +0.000 A 
ENDROOT
BRANCH   3   7
ATOM      7  C   UNL     1      -0.143  10.294  20.371  0.00  0.00    +0.000 C 
ATOM      8  O   UNL     1      -0.484   9.810  21.456  0.00  0.00    +0.000 OA
ATOM      9  N   UNL     1      -0.539  11.618  19.999  0.00  0.00    +0.000 N 
ATOM     10  C   UNL     1      -0.572  12.504  21.237  0.00  0.00    +0.000 C 
ATOM     11  C   UNL     1      -1.501  13.639  20.894  0.00  0.00    +0.000 C 
ATOM     12  C   UNL     1      -2.559  12.769  20.300  0.00  0.00    +0.000 A 
ATOM     13  C   UNL     1      -3.932  12.689  20.507  0.00  0.00    +0.000 A 
ATOM     14  C   UNL     1      -4.613  12.231  19.366  0.00  0.00    +0.000 A 
ATOM     15  C   UNL     1      -3.913  11.692  18.263  0.00  0.00    +0.000 A 
ATOM     16  C   UNL     1      -2.545  11.381  18.372  0.00  0.00    +0.000 A 
ATOM     17  C   UNL     1      -1.892  11.843  19.489  0.00  0.00    +0.000 A 
BRANCH  13  18
ATOM     18  C   UNL     1      -4.568  12.826  21.868  0.00  0.00    +0.000 A 
ATOM     19  C   UNL     1      -3.858  12.588  23.064  0.00  0.00    +0.000 A 
ATOM     20  C   UNL     1      -4.434  12.585  24.341  0.00  0.00    +0.000 A 
ATOM     21  C   UNL     1      -5.793  12.782  24.472  0.00  0.00    +0.000 A 
ATOM     22  C   UNL     1      -6.557  12.963  23.324  0.00  0.00    +0.000 A 
ATOM     23  C   UNL     1      -5.955  12.987  22.047  0.00  0.00    +0.000 A 
ENDBRANCH  13  18
ENDBRANCH   3   7
BRANCH   1  25
ATOM     24  C   UNL     1       1.796   5.383  20.582  0.00  0.00    +0.000 C 
ATOM     25  O   UNL     1       2.764   6.407  20.297  0.00  0.00    +0.000 OA
ENDBRANCH   1  25
BRANCH   6  26
ATOM     26  C   UNL     1       3.212   6.401  17.447  0.00  0.00    +0.000 C 
BRANCH  26  27
ATOM     27  N   UNL     1       4.603   5.934  17.619  0.00  0.00    +0.000 NA
ATOM     28  C   UNL     1       5.631   6.626  16.861  0.00  0.00    +0.000 C 
ATOM     29  C   UNL     1       6.169   5.592  15.900  0.00  0.00    +0.000 C 
ATOM     30  C   UNL     1       5.988   4.258  16.604  0.00  0.00    +0.000 C 
ATOM     31  C   UNL     1       4.900   4.478  17.656  0.00  0.00    +0.000 C 
BRANCH  31  32
ATOM     32  C   UNL     1       5.489   4.046  19.022  0.00  0.00    +0.000 C 
ATOM     33  O   UNL     1       5.048   3.130  19.720  0.00  0.00    +0.000 OA
BRANCH  32  34
ATOM     34  O   UNL     1       6.620   4.716  19.352  0.00  0.00    +0.000 OA
ATOM     35  H   UNL     1       7.360   4.326  18.833  0.00  0.00    +0.000 HD
ENDBRANCH  32  34
ENDBRANCH  31  32
ENDBRANCH  26  27
ENDBRANCH   6  26
TORSDOF 7
ENDMDL
MODEL 8
REMARK VINA RESULT:      -8.4      2.583      4.232
REMARK  Name = 
REMARK  8 active torsions:
REMARK  status: ('A' for Active; 'I' for Inactive)
REMARK    1  A    between atoms: C_1  and  O_2
REMARK    2  A    between atoms: O_2  and  C_3
REMARK    3  A    between atoms: C_5  and  C_6
REMARK    4  A    between atoms: C_12  and  C_13
REMARK    5  A    between atoms: C_25  and  C_26
REMARK    6  A    between atoms: C_26  and  N_27
REMARK    7  A    between atoms: C_31  and  C_32
REMARK    8  A    between atoms: C_32  and  O_34
REMARK                            x       y       z     vdW  Elec       q    Type
REMARK                         _______ _______ _______ _____ _____    ______ ____
ROOT
ATOM      1  C   UNL     1       3.407   6.886  18.065  0.00  0.00    +0.000 A 
ATOM      2  C   UNL     1       2.628   8.060  18.017  0.00  0.00    +0.000 A 
ATOM      3  C   UNL     1       1.713   8.371  19.053  0.00  0.00    +0.000 A 
ATOM      4  C   UNL     1       1.562   7.423  20.058  0.00  0.00    +0.000 A 
ATOM      5  C   UNL     1       2.459   6.306  20.142  0.00  0.00    +0.000 A 
ATOM      6  C   UNL     1       3.493   6.077  19.212  0.00  0.00    +0.000 A 
ENDROOT
BRANCH   3   7
ATOM      7  C   UNL     1       1.065   9.733  19.010  0.00  0.00    +0.000 C 
ATOM      8  O   UNL     1       1.741  10.611  18.463  0.00  0.00    +0.000 OA
ATOM      9  N   UNL     1      -0.314   9.952  19.321  0.00  0.00    +0.000 N 
ATOM     10  C   UNL     1      -0.946  10.820  18.241  0.00  0.00    +0.000 C 
ATOM     11  C   UNL     1      -2.146  11.459  18.889  0.00  0.00    +0.000 C 
ATOM     12  C   UNL     1      -1.431  11.843  20.142  0.00  0.00    +0.000 A 
ATOM     13  C   UNL     1      -1.343  13.042  20.841  0.00  0.00    +0.000 A 
ATOM     14  C   UNL     1      -1.129  12.840  22.215  0.00  0.00    +0.000 A 
ATOM     15  C   UNL     1      -0.797  11.563  22.723  0.00  0.00    +0.000 A 
ATOM     16  C   UNL     1      -0.440  10.521  21.848  0.00  0.00    +0.000 A 
ATOM     17  C   UNL     1      -0.664  10.731  20.510  0.00  0.00    +0.000 A 
BRANCH  13  18
ATOM     18  C   UNL     1      -1.229  14.384  20.161  0.00  0.00    +0.000 A 
ATOM     19  C   UNL     1      -0.255  14.656  19.178  0.00  0.00    +0.000 A 
ATOM     20  C   UNL     1      -0.034  15.915  18.607  0.00  0.00    +0.000 A 
ATOM     21  C   UNL     1      -0.773  16.996  19.043  0.00  0.00    +0.000 A 
ATOM     22  C   UNL     1      -1.709  16.803  20.053  0.00  0.00    +0.000 A 
ATOM     23  C   UNL     1      -1.934  15.522  20.599  0.00  0.00    +0.000 A 
ENDBRANCH  13  18
ENDBRANCH   3   7
BRANCH   1  25
ATOM     24  C   UNL     1       5.399   7.137  16.880  0.00  0.00    +0.000 C 
ATOM     25  O   UNL     1       4.080   6.567  16.899  0.00  0.00    +0.000 OA
ENDBRANCH   1  25
BRANCH   6  26
ATOM     26  C   UNL     1       4.592   4.993  19.262  0.00  0.00    +0.000 C 
BRANCH  26  27
ATOM     27  N   UNL     1       4.480   3.573  18.870  0.00  0.00    +0.000 NA
ATOM     28  C   UNL     1       4.120   3.294  17.491  0.00  0.00    +0.000 C 
ATOM     29  C   UNL     1       2.764   2.631  17.569  0.00  0.00    +0.000 C 
ATOM     30  C   UNL     1       2.744   1.916  18.909  0.00  0.00    +0.000 C 
ATOM     31  C   UNL     1       3.803   2.605  19.773  0.00  0.00    +0.000 C 
BRANCH  31  32
ATOM     32  C   UNL     1       4.775   1.505  20.269  0.00  0.00    +0.000 C 
ATOM     33  O   UNL     1       5.329   1.502  21.371  0.00  0.00    +0.000 OA
BRANCH  32  34
ATOM     34  O   UNL     1       4.898   0.470  19.404  0.00  0.00    +0.000 OA
ATOM     35  H   UNL     1       5.656  -0.081  19.704  0.00  0.00    +0.000 HD
ENDBRANCH  32  34
ENDBRANCH  31  32
ENDBRANCH  26  27
ENDBRANCH   6  26
TORSDOF 7
ENDMDL
MODEL 9
REMARK VINA RESULT:      -8.4      1.894      2.654
REMARK  Name = 
REMARK  8 active torsions:
REMARK  status: ('A' for Active; 'I' for Inactive)
REMARK    1  A    between atoms: C_1  and  O_2
REMARK    2  A    between atoms: O_2  and  C_3
REMARK    3  A    between atoms: C_5  and  C_6
REMARK    4  A    between atoms: C_12  and  C_13
REMARK    5  A    between atoms: C_25  and  C_26
REMARK    6  A    between atoms: C_26  and  N_27
REMARK    7  A    between atoms: C_31  and  C_32
REMARK    8  A    between atoms: C_32  and  O_34
REMARK                            x       y       z     vdW  Elec       q    Type
REMARK                         _______ _______ _______ _____ _____    ______ ____
ROOT
ATOM      1  C   UNL     1       2.851   6.444  19.469  0.00  0.00    +0.000 A 
ATOM      2  C   UNL     1       1.992   7.505  19.824  0.00  0.00    +0.000 A 
ATOM      3  C   UNL     1       1.811   8.616  18.964  0.00  0.00    +0.000 A 
ATOM      4  C   UNL     1       2.585   8.646  17.811  0.00  0.00    +0.000 A 
ATOM      5  C   UNL     1       3.349   7.496  17.420  0.00  0.00    +0.000 A 
ATOM      6  C   UNL     1       3.400   6.310  18.181  0.00  0.00    +0.000 A 
ENDROOT
BRANCH   3   7
ATOM      7  C   UNL     1       0.735   9.605  19.340  0.00  0.00    +0.000 C 
ATOM      8  O   UNL     1       0.432   9.611  20.538  0.00  0.00    +0.000 OA
ATOM      9  N   UNL     1       0.285  10.641  18.461  0.00  0.00    +0.000 N 
ATOM     10  C   UNL     1       0.241  11.962  19.216  0.00  0.00    +0.000 C 
ATOM     11  C   UNL     1      -0.735  12.826  18.460  0.00  0.00    +0.000 C 
ATOM     12  C   UNL     1      -1.770  11.760  18.317  0.00  0.00    +0.000 A 
ATOM     13  C   UNL     1      -3.135  11.738  18.582  0.00  0.00    +0.000 A 
ATOM     14  C   UNL     1      -3.820  10.827  17.759  0.00  0.00    +0.000 A 
ATOM     15  C   UNL     1      -3.120   9.894  16.959  0.00  0.00    +0.000 A 
ATOM     16  C   UNL     1      -1.740   9.694  17.146  0.00  0.00    +0.000 A 
ATOM     17  C   UNL     1      -1.084  10.597  17.946  0.00  0.00    +0.000 A 
BRANCH  13  18
ATOM     18  C   UNL     1      -3.752  12.415  19.781  0.00  0.00    +0.000 A 
ATOM     19  C   UNL     1      -3.039  12.633  20.978  0.00  0.00    +0.000 A 
ATOM     20  C   UNL     1      -3.601  13.147  22.154  0.00  0.00    +0.000 A 
ATOM     21  C   UNL     1      -4.951  13.430  22.192  0.00  0.00    +0.000 A 
ATOM     22  C   UNL     1      -5.719  13.181  21.060  0.00  0.00    +0.000 A 
ATOM     23  C   UNL     1      -5.131  12.685  19.877  0.00  0.00    +0.000 A 
ENDBRANCH  13  18
ENDBRANCH   3   7
BRANCH   1  25
ATOM     24  C   UNL     1       1.975   5.275  21.285  0.00  0.00    +0.000 C 
ATOM     25  O   UNL     1       3.134   5.541  20.478  0.00  0.00    +0.000 OA
ENDBRANCH   1  25
BRANCH   6  26
ATOM     26  C   UNL     1       4.077   4.972  17.811  0.00  0.00    +0.000 C 
BRANCH  26  27
ATOM     27  N   UNL     1       3.507   3.613  17.910  0.00  0.00    +0.000 NA
ATOM     28  C   UNL     1       2.286   3.352  17.168  0.00  0.00    +0.000 C 
ATOM     29  C   UNL     1       1.238   3.086  18.223  0.00  0.00    +0.000 C 
ATOM     30  C   UNL     1       1.994   2.492  19.398  0.00  0.00    +0.000 C 
ATOM     31  C   UNL     1       3.451   2.924  19.226  0.00  0.00    +0.000 C 
BRANCH  31  32
ATOM     32  C   UNL     1       4.315   1.638  19.238  0.00  0.00    +0.000 C 
ATOM     33  O   UNL     1       5.156   1.363  20.097  0.00  0.00    +0.000 OA
BRANCH  32  34
ATOM     34  O   UNL     1       3.993   0.769  18.249  0.00  0.00    +0.000 OA
ATOM     35  H   UNL     1       3.140   0.344  18.492  0.00  0.00    +0.000 HD
ENDBRANCH  32  34
ENDBRANCH  31  32
ENDBRANCH  26  27
ENDBRANCH   6  26
TORSDOF 7
ENDMDL
