MODEL 1
REMARK VINA RESULT:      -8.9      0.000      0.000
REMARK  Name = 
REMARK  6 active torsions:
REMARK  status: ('A' for Active; 'I' for Inactive)
REMARK    1  A    between atoms: C_1  and  O_2
REMARK    2  A    between atoms: O_2  and  C_3
REMARK    3  A    between atoms: C_6  and  N_7
REMARK    4  A    between atoms: C_13  and  N_14
REMARK    5  A    between atoms: C_15  and  C_17
REMARK    6  A    between atoms: C_20  and  C_21
REMARK                            x       y       z     vdW  Elec       q    Type
REMARK                         _______ _______ _______ _____ _____    ______ ____
ROOT
ATOM      1  N   UNL     1       2.206   7.133  18.174  0.00  0.00    +0.000 N 
ATOM      2  C   UNL     1       2.337   8.501  17.985  0.00  0.00    +0.000 C 
ATOM      3  O   UNL     1       3.307   9.040  17.457  0.00  0.00    +0.000 OA
ATOM      4  H   UNL     1       1.534   6.844  18.873  0.00  0.00    +0.000 HD
ENDROOT
BRANCH   1   9
ATOM      5  C   UNL     1       5.184   5.763  16.500  0.00  0.00    +0.000 A 
ATOM      6  C   UNL     1       5.177   4.448  16.943  0.00  0.00    +0.000 A 
ATOM      7  C   UNL     1       4.203   4.025  17.863  0.00  0.00    +0.000 A 
ATOM      8  C   UNL     1       3.205   4.881  18.356  0.00  0.00    +0.000 A 
ATOM      9  C   UNL     1       3.242   6.216  17.883  0.00  0.00    +0.000 A 
ATOM     10  C   UNL     1       4.219   6.642  16.975  0.00  0.00    +0.000 A 
BRANCH   8  11
ATOM     11  N   UNL     1       2.292   4.433  19.297  0.00  0.00    +0.000 N 
ATOM     12  C   UNL     1       2.283   4.862  20.702  0.00  0.00    +0.000 C 
ATOM     13  C   UNL     1       2.263   3.649  21.642  0.00  0.00    +0.000 C 
ATOM     14  O   UNL     1       1.192   2.745  21.334  0.00  0.00    +0.000 OA
ATOM     15  C   UNL     1       1.308   2.283  19.975  0.00  0.00    +0.000 C 
ATOM     16  C   UNL     1       1.244   3.451  18.980  0.00  0.00    +0.000 C 
ENDBRANCH   8  11
BRANCH   5  18
ATOM     17  C   UNL     1       6.721   4.974  14.885  0.00  0.00    +0.000 C 
ATOM     18  O   UNL     1       6.151   6.077  15.578  0.00  0.00    +0.000 OA
ENDBRANCH   5  18
ENDBRANCH   1   9
BRANCH   2  19
ATOM     19  C   UNL     1       1.222   9.262  18.525  0.00  0.00    +0.000 A 
ATOM     20  C   UNL     1       1.070   9.979  19.695  0.00  0.00    +0.000 A 
ATOM     21  C   UNL     1      -0.204  10.603  19.632  0.00  0.00    +0.000 A 
ATOM     22  C   UNL     1      -0.776  10.208  18.439  0.00  0.00    +0.000 A 
ATOM     23  O   UNL     1       0.073   9.362  17.784  0.00  0.00    +0.000 OA
BRANCH  22  24
ATOM     24  C   UNL     1      -2.017  10.533  17.739  0.00  0.00    +0.000 A 
ATOM     25  C   UNL     1      -3.036  11.256  18.376  0.00  0.00    +0.000 A 
ATOM     26  C   UNL     1      -4.198  11.619  17.686  0.00  0.00    +0.000 A 
ATOM     27  C   UNL     1      -4.356  11.261  16.349  0.00  0.00    +0.000 A 
ATOM     28  C   UNL     1      -3.357  10.531  15.712  0.00  0.00    +0.000 A 
ATOM     29 CL   UNL     1      -3.542  10.088  14.057  0.00  0.00    +0.000 Cl
ATOM     30  C   UNL     1      -2.201  10.167  16.395  0.00  0.00    +0.000 A 
ENDBRANCH  22  24
ENDBRANCH   2  19
TORSDOF 5
ENDMDL
MODEL 2
REMARK VINA RESULT:      -8.8      3.142      7.990
REMARK  Name = 
REMARK  6 active torsions:
REMARK  status: ('A' for Active; 'I' for Inactive)
REMARK    1  A    between atoms: C_1  and  O_2
REMARK    2  A    between atoms: O_2  and  C_3
REMARK    3  A    between atoms: C_6  and  N_7
REMARK    4  A    between atoms: C_13  and  N_14
REMARK    5  A    between atoms: C_15  and  C_17
REMARK    6  A    between atoms: C_20  and  C_21
REMARK                            x       y       z     vdW  Elec       q    Type
REMARK                         _______ _______ _______ _____ _____    ______ ____
ROOT
ATOM      1  N   UNL     1       0.281   8.946  18.296  0.00  0.00    +0.000 N 
ATOM      2  C   UNL     1       1.561   9.254  17.861  0.00  0.00    +0.000 C 
ATOM      3  O   UNL     1       1.925  10.374  17.507  0.00  0.00    +0.000 OA
ATOM      4  H   UNL     1       0.025   7.967  18.262  0.00  0.00    +0.000 HD
ENDROOT
BRANCH   1   9
ATOM      5  C   UNL     1      -2.426  10.993  16.871  0.00  0.00    +0.000 A 
ATOM      6  C   UNL     1      -2.696  11.868  17.913  0.00  0.00    +0.000 A 
ATOM      7  C   UNL     1      -2.011  11.737  19.133  0.00  0.00    +0.000 A 
ATOM      8  C   UNL     1      -1.035  10.751  19.350  0.00  0.00    +0.000 A 
ATOM      9  C   UNL     1      -0.784   9.875  18.265  0.00  0.00    +0.000 A 
ATOM     10  C   UNL     1      -1.474   9.997  17.053  0.00  0.00    +0.000 A 
BRANCH   8  11
ATOM     11  N   UNL     1      -0.417  10.629  20.584  0.00  0.00    +0.000 N 
ATOM     12  C   UNL     1       0.040   9.353  21.152  0.00  0.00    +0.000 C 
ATOM     13  C   UNL     1      -0.501   9.167  22.577  0.00  0.00    +0.000 C 
ATOM     14  O   UNL     1      -0.198  10.286  23.420  0.00  0.00    +0.000 OA
ATOM     15  C   UNL     1      -0.752  11.493  22.863  0.00  0.00    +0.000 C 
ATOM     16  C   UNL     1      -0.176  11.780  21.468  0.00  0.00    +0.000 C 
ENDBRANCH   8  11
BRANCH   5  18
ATOM     17  C   UNL     1      -3.080  10.163  14.756  0.00  0.00    +0.000 C 
ATOM     18  O   UNL     1      -3.118  11.218  15.708  0.00  0.00    +0.000 OA
ENDBRANCH   5  18
ENDBRANCH   1   9
BRANCH   2  19
ATOM     19  C   UNL     1       2.442   8.098  17.808  0.00  0.00    +0.000 A 
ATOM     20  C   UNL     1       3.798   7.975  17.576  0.00  0.00    +0.000 A 
ATOM     21  C   UNL     1       4.122   6.605  17.755  0.00  0.00    +0.000 A 
ATOM     22  C   UNL     1       2.941   5.957  18.056  0.00  0.00    +0.000 A 
ATOM     23  O   UNL     1       1.913   6.857  18.049  0.00  0.00    +0.000 OA
BRANCH  22  24
ATOM     24  C   UNL     1       2.585   4.587  18.415  0.00  0.00    +0.000 A 
ATOM     25  C   UNL     1       2.698   3.544  17.483  0.00  0.00    +0.000 A 
ATOM     26  C   UNL     1       2.416   2.223  17.845  0.00  0.00    +0.000 A 
ATOM     27  C   UNL     1       2.013   1.927  19.146  0.00  0.00    +0.000 A 
ATOM     28  C   UNL     1       1.883   2.955  20.074  0.00  0.00    +0.000 A 
ATOM     29 CL   UNL     1       1.391   2.598  21.687  0.00  0.00    +0.000 Cl
ATOM     30  C   UNL     1       2.163   4.271  19.717  0.00  0.00    +0.000 A 
ENDBRANCH  22  24
ENDBRANCH   2  19
TORSDOF 5
ENDMDL
MODEL 3
REMARK VINA RESULT:      -8.8      2.829      3.517
REMARK  Name = 
REMARK  6 active torsions:
REMARK  status: ('A' for Active; 'I' for Inactive)
REMARK    1  A    between atoms: C_1  and  O_2
REMARK    2  A    between atoms: O_2  and  C_3
REMARK    3  A    between atoms: C_6  and  N_7
REMARK    4  A    between atoms: C_13  and  N_14
REMARK    5  A    between atoms: C_15  and  C_17
REMARK    6  A    between atoms: C_20  and  C_21
REMARK                            x       y       z     vdW  Elec       q    Type
REMARK                         _______ _______ _______ _____ _____    ______ ____
ROOT
ATOM      1  N   UNL     1       3.513   6.235  18.873  0.00  0.00    +0.000 N 
ATOM      2  C   UNL     1       2.780   7.359  18.526  0.00  0.00    +0.000 C 
ATOM      3  O   UNL     1       2.881   7.952  17.454  0.00  0.00    +0.000 OA
ATOM      4  H   UNL     1       3.568   6.029  19.863  0.00  0.00    +0.000 HD
ENDROOT
BRANCH   1   9
ATOM      5  C   UNL     1       6.648   6.205  16.944  0.00  0.00    +0.000 A 
ATOM      6  C   UNL     1       6.544   5.005  16.255  0.00  0.00    +0.000 A 
ATOM      7  C   UNL     1       5.444   4.162  16.482  0.00  0.00    +0.000 A 
ATOM      8  C   UNL     1       4.414   4.485  17.380  0.00  0.00    +0.000 A 
ATOM      9  C   UNL     1       4.552   5.718  18.066  0.00  0.00    +0.000 A 
ATOM     10  C   UNL     1       5.654   6.554  17.849  0.00  0.00    +0.000 A 
BRANCH   8  11
ATOM     11  N   UNL     1       3.371   3.602  17.606  0.00  0.00    +0.000 N 
ATOM     12  C   UNL     1       1.956   3.922  17.369  0.00  0.00    +0.000 C 
ATOM     13  C   UNL     1       1.110   3.602  18.609  0.00  0.00    +0.000 C 
ATOM     14  O   UNL     1       1.303   2.255  19.061  0.00  0.00    +0.000 OA
ATOM     15  C   UNL     1       2.690   2.027  19.370  0.00  0.00    +0.000 C 
ATOM     16  C   UNL     1       3.580   2.246  18.137  0.00  0.00    +0.000 C 
ENDBRANCH   8  11
BRANCH   5  18
ATOM     17  C   UNL     1       7.967   8.090  17.490  0.00  0.00    +0.000 C 
ATOM     18  O   UNL     1       7.738   6.979  16.634  0.00  0.00    +0.000 OA
ENDBRANCH   5  18
ENDBRANCH   1   9
BRANCH   2  19
ATOM     19  C   UNL     1       1.897   7.818  19.587  0.00  0.00    +0.000 A 
ATOM     20  C   UNL     1       1.621   7.317  20.844  0.00  0.00    +0.000 A 
ATOM     21  C   UNL     1       0.757   8.249  21.476  0.00  0.00    +0.000 A 
ATOM     22  C   UNL     1       0.526   9.255  20.560  0.00  0.00    +0.000 A 
ATOM     23  O   UNL     1       1.187   8.974  19.398  0.00  0.00    +0.000 OA
BRANCH  22  24
ATOM     24  C   UNL     1      -0.198  10.524  20.590  0.00  0.00    +0.000 A 
ATOM     25  C   UNL     1      -0.851  11.008  19.446  0.00  0.00    +0.000 A 
ATOM     26  C   UNL     1      -1.595  12.192  19.491  0.00  0.00    +0.000 A 
ATOM     27  C   UNL     1      -1.695  12.908  20.682  0.00  0.00    +0.000 A 
ATOM     28  C   UNL     1      -1.040  12.444  21.819  0.00  0.00    +0.000 A 
ATOM     29 CL   UNL     1      -1.163  13.321  23.297  0.00  0.00    +0.000 Cl
ATOM     30  C   UNL     1      -0.298  11.268  21.777  0.00  0.00    +0.000 A 
ENDBRANCH  22  24
ENDBRANCH   2  19
TORSDOF 5
ENDMDL
MODEL 4
REMARK VINA RESULT:      -8.7      1.065      1.390
REMARK  Name = 
REMARK  6 active torsions:
REMARK  status: ('A' for Active; 'I' for Inactive)
REMARK    1  A    between atoms: C_1  and  O_2
REMARK    2  A    between atoms: O_2  and  C_3
REMARK    3  A    between atoms: C_6  and  N_7
REMARK    4  A    between atoms: C_13  and  N_14
REMARK    5  A    between atoms: C_15  and  C_17
REMARK    6  A    between atoms: C_20  and  C_21
REMARK                            x       y       z     vdW  Elec       q    Type
REMARK                         _______ _______ _______ _____ _____    ______ ____
ROOT
ATOM      1  N   UNL     1       2.216   7.173  18.356  0.00  0.00    +0.000 N 
ATOM      2  C   UNL     1       2.182   8.470  17.865  0.00  0.00    +0.000 C 
ATOM      3  O   UNL     1       2.988   8.929  17.058  0.00  0.00    +0.000 OA
ATOM      4  H   UNL     1       1.709   7.012  19.218  0.00  0.00    +0.000 HD
ENDROOT
BRANCH   1   9
ATOM      5  C   UNL     1       5.244   5.866  16.723  0.00  0.00    +0.000 A 
ATOM      6  C   UNL     1       5.234   4.540  17.128  0.00  0.00    +0.000 A 
ATOM      7  C   UNL     1       4.238   4.086  18.010  0.00  0.00    +0.000 A 
ATOM      8  C   UNL     1       3.223   4.922  18.501  0.00  0.00    +0.000 A 
ATOM      9  C   UNL     1       3.264   6.271  18.067  0.00  0.00    +0.000 A 
ATOM     10  C   UNL     1       4.262   6.727  17.197  0.00  0.00    +0.000 A 
BRANCH   8  11
ATOM     11  N   UNL     1       2.289   4.443  19.405  0.00  0.00    +0.000 N 
ATOM     12  C   UNL     1       2.292   4.765  20.839  0.00  0.00    +0.000 C 
ATOM     13  C   UNL     1       2.218   3.485  21.684  0.00  0.00    +0.000 C 
ATOM     14  O   UNL     1       1.112   2.654  21.307  0.00  0.00    +0.000 OA
ATOM     15  C   UNL     1       1.212   2.291  19.918  0.00  0.00    +0.000 C 
ATOM     16  C   UNL     1       1.201   3.533  19.014  0.00  0.00    +0.000 C 
ENDBRANCH   8  11
BRANCH   5  18
ATOM     17  C   UNL     1       6.869   5.127  15.172  0.00  0.00    +0.000 C 
ATOM     18  O   UNL     1       6.233   6.211  15.835  0.00  0.00    +0.000 OA
ENDBRANCH   5  18
ENDBRANCH   1   9
BRANCH   2  19
ATOM     19  C   UNL     1       1.115   9.273  18.442  0.00  0.00    +0.000 A 
ATOM     20  C   UNL     1       1.026   9.987  19.620  0.00  0.00    +0.000 A 
ATOM     21  C   UNL     1      -0.221  10.663  19.596  0.00  0.00    +0.000 A 
ATOM     22  C   UNL     1      -0.843  10.301  18.418  0.00  0.00    +0.000 A 
ATOM     23  O   UNL     1      -0.048   9.425  17.734  0.00  0.00    +0.000 OA
BRANCH  22  24
ATOM     24  C   UNL     1      -2.088  10.681  17.756  0.00  0.00    +0.000 A 
ATOM     25  C   UNL     1      -2.340  10.312  16.426  0.00  0.00    +0.000 A 
ATOM     26  C   UNL     1      -3.557  10.623  15.811  0.00  0.00    +0.000 A 
ATOM     27  C   UNL     1      -4.540  11.311  16.520  0.00  0.00    +0.000 A 
ATOM     28  C   UNL     1      -4.296  11.694  17.835  0.00  0.00    +0.000 A 
ATOM     29 CL   UNL     1      -5.509  12.540  18.721  0.00  0.00    +0.000 Cl
ATOM     30  C   UNL     1      -3.086  11.387  18.449  0.00  0.00    +0.000 A 
ENDBRANCH  22  24
ENDBRANCH   2  19
TORSDOF 5
ENDMDL
MODEL 5
REMARK VINA RESULT:      -8.7      2.871      3.338
REMARK  Name = 
REMARK  6 active torsions:
REMARK  status: ('A' for Active; 'I' for Inactive)
REMARK    1  A    between atoms: C_1  and  O_2
REMARK    2  A    between atoms: O_2  and  C_3
REMARK    3  A    between atoms: C_6  and  N_7
REMARK    4  A    between atoms: C_13  and  N_14
REMARK    5  A    between atoms: C_15  and  C_17
REMARK    6  A    between atoms: C_20  and  C_21
REMARK                            x       y       z     vdW  Elec       q    Type
REMARK                         _______ _______ _______ _____ _____    ______ ____
ROOT
ATOM      1  N   UNL     1       3.390   6.299  18.887  0.00  0.00    +0.000 N 
ATOM      2  C   UNL     1       2.692   7.458  18.582  0.00  0.00    +0.000 C 
ATOM      3  O   UNL     1       2.796   8.073  17.523  0.00  0.00    +0.000 OA
ATOM      4  H   UNL     1       3.455   6.066  19.870  0.00  0.00    +0.000 HD
ENDROOT
BRANCH   1   9
ATOM      5  C   UNL     1       6.489   6.200  16.905  0.00  0.00    +0.000 A 
ATOM      6  C   UNL     1       6.326   5.027  16.183  0.00  0.00    +0.000 A 
ATOM      7  C   UNL     1       5.196   4.222  16.404  0.00  0.00    +0.000 A 
ATOM      8  C   UNL     1       4.195   4.559  17.328  0.00  0.00    +0.000 A 
ATOM      9  C   UNL     1       4.393   5.764  18.048  0.00  0.00    +0.000 A 
ATOM     10  C   UNL     1       5.525   6.562  17.837  0.00  0.00    +0.000 A 
BRANCH   8  11
ATOM     11  N   UNL     1       3.120   3.712  17.547  0.00  0.00    +0.000 N 
ATOM     12  C   UNL     1       1.719   4.154  17.581  0.00  0.00    +0.000 C 
ATOM     13  C   UNL     1       1.023   3.659  18.856  0.00  0.00    +0.000 C 
ATOM     14  O   UNL     1       1.159   2.242  19.029  0.00  0.00    +0.000 OA
ATOM     15  C   UNL     1       2.551   1.879  19.085  0.00  0.00    +0.000 C 
ATOM     16  C   UNL     1       3.283   2.271  17.793  0.00  0.00    +0.000 C 
ENDBRANCH   8  11
BRANCH   5  18
ATOM     17  C   UNL     1       7.887   8.020  17.478  0.00  0.00    +0.000 C 
ATOM     18  O   UNL     1       7.605   6.939  16.599  0.00  0.00    +0.000 OA
ENDBRANCH   5  18
ENDBRANCH   1   9
BRANCH   2  19
ATOM     19  C   UNL     1       1.846   7.921  19.671  0.00  0.00    +0.000 A 
ATOM     20  C   UNL     1       1.476   7.341  20.867  0.00  0.00    +0.000 A 
ATOM     21  C   UNL     1       0.721   8.310  21.577  0.00  0.00    +0.000 A 
ATOM     22  C   UNL     1       0.643   9.422  20.763  0.00  0.00    +0.000 A 
ATOM     23  O   UNL     1       1.294   9.172  19.587  0.00  0.00    +0.000 OA
BRANCH  22  24
ATOM     24  C   UNL     1       0.085  10.764  20.908  0.00  0.00    +0.000 A 
ATOM     25  C   UNL     1      -0.463  11.190  22.128  0.00  0.00    +0.000 A 
ATOM     26  C   UNL     1      -0.941  12.494  22.284  0.00  0.00    +0.000 A 
ATOM     27  C   UNL     1      -0.880  13.392  21.220  0.00  0.00    +0.000 A 
ATOM     28  C   UNL     1      -0.353  12.977  20.002  0.00  0.00    +0.000 A 
ATOM     29 CL   UNL     1      -0.268  14.082  18.682  0.00  0.00    +0.000 Cl
ATOM     30  C   UNL     1       0.124  11.679  19.842  0.00  0.00    +0.000 A 
ENDBRANCH  22  24
ENDBRANCH   2  19
TORSDOF 5
ENDMDL
MODEL 6
REMARK VINA RESULT:      -8.6      4.307      7.924
REMARK  Name = 
REMARK  6 active torsions:
REMARK  status: ('A' for Active; 'I' for Inactive)
REMARK    1  A    between atoms: C_1  and  O_2
REMARK    2  A    between atoms: O_2  and  C_3
REMARK    3  A    between atoms: C_6  and  N_7
REMARK    4  A    between atoms: C_13  and  N_14
REMARK    5  A    between atoms: C_15  and  C_17
REMARK    6  A    between atoms: C_20  and  C_21
REMARK                            x       y       z     vdW  Elec       q    Type
REMARK                         _______ _______ _______ _____ _____    ______ ____
ROOT
ATOM      1  N   UNL     1       3.638   5.686  17.743  0.00  0.00    +0.000 N 
ATOM      2  C   UNL     1       4.982   5.449  17.988  0.00  0.00    +0.000 C 
ATOM      3  O   UNL     1       5.491   5.424  19.106  0.00  0.00    +0.000 OA
ATOM      4  H   UNL     1       3.403   5.982  16.803  0.00  0.00    +0.000 HD
ENDROOT
BRANCH   1   9
ATOM      5  C   UNL     1       1.718   7.880  19.989  0.00  0.00    +0.000 A 
ATOM      6  C   UNL     1       1.209   6.971  20.905  0.00  0.00    +0.000 A 
ATOM      7  C   UNL     1       1.457   5.598  20.740  0.00  0.00    +0.000 A 
ATOM      8  C   UNL     1       2.222   5.089  19.677  0.00  0.00    +0.000 A 
ATOM      9  C   UNL     1       2.725   6.046  18.760  0.00  0.00    +0.000 A 
ATOM     10  C   UNL     1       2.469   7.413  18.918  0.00  0.00    +0.000 A 
BRANCH   8  11
ATOM     11  N   UNL     1       2.402   3.724  19.527  0.00  0.00    +0.000 N 
ATOM     12  C   UNL     1       3.272   2.910  20.387  0.00  0.00    +0.000 C 
ATOM     13  C   UNL     1       4.243   2.072  19.543  0.00  0.00    +0.000 C 
ATOM     14  O   UNL     1       3.560   1.292  18.552  0.00  0.00    +0.000 OA
ATOM     15  C   UNL     1       2.802   2.149  17.680  0.00  0.00    +0.000 C 
ATOM     16  C   UNL     1       1.749   2.950  18.460  0.00  0.00    +0.000 C 
ENDBRANCH   8  11
BRANCH   5  18
ATOM     17  C   UNL     1       0.968   9.485  21.556  0.00  0.00    +0.000 C 
ATOM     18  O   UNL     1       1.453   9.201  20.250  0.00  0.00    +0.000 OA
ENDBRANCH   5  18
ENDBRANCH   1   9
BRANCH   2  19
ATOM     19  C   UNL     1       5.764   5.280  16.772  0.00  0.00    +0.000 A 
ATOM     20  C   UNL     1       7.081   5.561  16.472  0.00  0.00    +0.000 A 
ATOM     21  C   UNL     1       7.314   5.082  15.157  0.00  0.00    +0.000 A 
ATOM     22  C   UNL     1       6.116   4.560  14.711  0.00  0.00    +0.000 A 
ATOM     23  O   UNL     1       5.163   4.716  15.678  0.00  0.00    +0.000 OA
BRANCH  22  24
ATOM     24  C   UNL     1       5.687   3.862  13.501  0.00  0.00    +0.000 A 
ATOM     25  C   UNL     1       4.406   4.065  12.967  0.00  0.00    +0.000 A 
ATOM     26  C   UNL     1       4.017   3.443  11.776  0.00  0.00    +0.000 A 
ATOM     27  C   UNL     1       4.906   2.607  11.103  0.00  0.00    +0.000 A 
ATOM     28  C   UNL     1       6.174   2.388  11.631  0.00  0.00    +0.000 A 
ATOM     29 CL   UNL     1       7.282   1.360  10.803  0.00  0.00    +0.000 Cl
ATOM     30  C   UNL     1       6.564   3.004  12.817  0.00  0.00    +0.000 A 
ENDBRANCH  22  24
ENDBRANCH   2  19
TORSDOF 5
ENDMDL
MODEL 7
REMARK VINA RESULT:      -8.6      1.967      2.750
REMARK  Name = 
REMARK  6 active torsions:
REMARK  status: ('A' for Active; 'I' for Inactive)
REMARK    1  A    between atoms: C_1  and  O_2
REMARK    2  A    between atoms: O_2  and  C_3
REMARK    3  A    between atoms: C_6  and  N_7
REMARK    4  A    between atoms: C_13  and  N_14
REMARK    5  A    between atoms: C_15  and  C_17
REMARK    6  A    between atoms: C_20  and  C_21
REMARK                            x       y       z     vdW  Elec       q    Type
REMARK                         _______ _______ _______ _____ _____    ______ ____
ROOT
ATOM      1  N   UNL     1       3.635   6.332  18.994  0.00  0.00    +0.000 N 
ATOM      2  C   UNL     1       2.842   7.370  18.530  0.00  0.00    +0.000 C 
ATOM      3  O   UNL     1       2.924   7.858  17.405  0.00  0.00    +0.000 OA
ATOM      4  H   UNL     1       3.687   6.229  20.001  0.00  0.00    +0.000 HD
ENDROOT
BRANCH   1   9
ATOM      5  C   UNL     1       6.787   6.303  17.093  0.00  0.00    +0.000 A 
ATOM      6  C   UNL     1       6.770   5.032  16.539  0.00  0.00    +0.000 A 
ATOM      7  C   UNL     1       5.726   4.146  16.851  0.00  0.00    +0.000 A 
ATOM      8  C   UNL     1       4.666   4.495  17.704  0.00  0.00    +0.000 A 
ATOM      9  C   UNL     1       4.715   5.801  18.253  0.00  0.00    +0.000 A 
ATOM     10  C   UNL     1       5.761   6.680  17.952  0.00  0.00    +0.000 A 
BRANCH   8  11
ATOM     11  N   UNL     1       3.681   3.573  18.021  0.00  0.00    +0.000 N 
ATOM     12  C   UNL     1       2.368   3.516  17.364  0.00  0.00    +0.000 C 
ATOM     13  C   UNL     1       1.238   3.511  18.404  0.00  0.00    +0.000 C 
ATOM     14  O   UNL     1       1.412   2.478  19.383  0.00  0.00    +0.000 OA
ATOM     15  C   UNL     1       2.671   2.641  20.061  0.00  0.00    +0.000 C 
ATOM     16  C   UNL     1       3.849   2.564  19.078  0.00  0.00    +0.000 C 
ENDBRANCH   8  11
BRANCH   5  18
ATOM     17  C   UNL     1       8.010   8.290  17.477  0.00  0.00    +0.000 C 
ATOM     18  O   UNL     1       7.827   7.110  16.706  0.00  0.00    +0.000 OA
ENDBRANCH   5  18
ENDBRANCH   1   9
BRANCH   2  19
ATOM     19  C   UNL     1       1.917   7.877  19.532  0.00  0.00    +0.000 A 
ATOM     20  C   UNL     1       1.711   7.544  20.856  0.00  0.00    +0.000 A 
ATOM     21  C   UNL     1       0.746   8.452  21.362  0.00  0.00    +0.000 A 
ATOM     22  C   UNL     1       0.390   9.274  20.311  0.00  0.00    +0.000 A 
ATOM     23  O   UNL     1       1.071   8.899  19.189  0.00  0.00    +0.000 OA
BRANCH  22  24
ATOM     24  C   UNL     1      -0.482  10.437  20.168  0.00  0.00    +0.000 A 
ATOM     25  C   UNL     1      -0.371  11.533  21.037  0.00  0.00    +0.000 A 
ATOM     26  C   UNL     1      -1.164  12.672  20.862  0.00  0.00    +0.000 A 
ATOM     27  C   UNL     1      -2.081  12.729  19.814  0.00  0.00    +0.000 A 
ATOM     28  C   UNL     1      -2.209  11.643  18.955  0.00  0.00    +0.000 A 
ATOM     29 CL   UNL     1      -3.337  11.708  17.654  0.00  0.00    +0.000 Cl
ATOM     30  C   UNL     1      -1.423  10.508  19.127  0.00  0.00    +0.000 A 
ENDBRANCH  22  24
ENDBRANCH   2  19
TORSDOF 5
ENDMDL
MODEL 8
REMARK VINA RESULT:      -8.6      2.578      4.945
REMARK  Name = 
REMARK  6 active torsions:
REMARK  status: ('A' for Active; 'I' for Inactive)
REMARK    1  A    between atoms: C_1  and  O_2
REMARK    2  A    between atoms: O_2  and  C_3
REMARK    3  A    between atoms: C_6  and  N_7
REMARK    4  A    between atoms: C_13  and  N_14
REMARK    5  A    between atoms: C_15  and  C_17
REMARK    6  A    between atoms: C_20  and  C_21
REMARK                            x       y       z     vdW  Elec       q    Type
REMARK                         _______ _______ _______ _____ _____    ______ ____
ROOT
ATOM      1  N   UNL     1       2.588   6.563  18.204  0.00  0.00    +0.000 N 
ATOM      2  C   UNL     1       2.206   7.348  19.282  0.00  0.00    +0.000 C 
ATOM      3  O   UNL     1       2.188   6.964  20.449  0.00  0.00    +0.000 OA
ATOM      4  H   UNL     1       2.275   6.876  17.294  0.00  0.00    +0.000 HD
ENDROOT
BRANCH   1   9
ATOM      5  C   UNL     1       2.278   3.092  19.389  0.00  0.00    +0.000 A 
ATOM      6  C   UNL     1       3.467   2.534  18.941  0.00  0.00    +0.000 A 
ATOM      7  C   UNL     1       4.359   3.306  18.179  0.00  0.00    +0.000 A 
ATOM      8  C   UNL     1       4.109   4.649  17.852  0.00  0.00    +0.000 A 
ATOM      9  C   UNL     1       2.886   5.187  18.325  0.00  0.00    +0.000 A 
ATOM     10  C   UNL     1       1.991   4.415  19.075  0.00  0.00    +0.000 A 
BRANCH   8  11
ATOM     11  N   UNL     1       4.996   5.359  17.059  0.00  0.00    +0.000 N 
ATOM     12  C   UNL     1       5.259   5.056  15.646  0.00  0.00    +0.000 C 
ATOM     13  C   UNL     1       6.767   4.923  15.389  0.00  0.00    +0.000 C 
ATOM     14  O   UNL     1       7.496   6.068  15.853  0.00  0.00    +0.000 OA
ATOM     15  C   UNL     1       7.276   6.260  17.262  0.00  0.00    +0.000 C 
ATOM     16  C   UNL     1       5.789   6.488  17.571  0.00  0.00    +0.000 C 
ENDBRANCH   8  11
BRANCH   5  18
ATOM     17  C   UNL     1       1.443   2.581  21.541  0.00  0.00    +0.000 C 
ATOM     18  O   UNL     1       1.485   2.274  20.154  0.00  0.00    +0.000 OA
ENDBRANCH   5  18
ENDBRANCH   1   9
BRANCH   2  19
ATOM     19  C   UNL     1       1.769   8.680  18.894  0.00  0.00    +0.000 A 
ATOM     20  C   UNL     1       2.088   9.483  17.818  0.00  0.00    +0.000 A 
ATOM     21  C   UNL     1       1.267  10.637  17.910  0.00  0.00    +0.000 A 
ATOM     22  C   UNL     1       0.510  10.491  19.055  0.00  0.00    +0.000 A 
ATOM     23  O   UNL     1       0.843   9.321  19.675  0.00  0.00    +0.000 OA
BRANCH  22  24
ATOM     24  C   UNL     1      -0.558  11.264  19.684  0.00  0.00    +0.000 A 
ATOM     25  C   UNL     1      -1.741  11.559  18.989  0.00  0.00    +0.000 A 
ATOM     26  C   UNL     1      -2.788  12.245  19.612  0.00  0.00    +0.000 A 
ATOM     27  C   UNL     1      -2.666  12.648  20.940  0.00  0.00    +0.000 A 
ATOM     28  C   UNL     1      -1.492  12.373  21.635  0.00  0.00    +0.000 A 
ATOM     29 CL   UNL     1      -1.334  12.863  23.279  0.00  0.00    +0.000 Cl
ATOM     30  C   UNL     1      -0.447  11.691  21.018  0.00  0.00    +0.000 A 
ENDBRANCH  22  24
ENDBRANCH   2  19
TORSDOF 5
ENDMDL
MODEL 9
REMARK VINA RESULT:      -8.6      3.015      5.134
REMARK  Name = 
REMARK  6 active torsions:
REMARK  status: ('A' for Active; 'I' for Inactive)
REMARK    1  A    between atoms: C_1  and  O_2
REMARK    2  A    between atoms: O_2  and  C_3
REMARK    3  A    between atoms: C_6  and  N_7
REMARK    4  A    between atoms: C_13  and  N_14
REMARK    5  A    between atoms: C_15  and  C_17
REMARK    6  A    between atoms: C_20  and  C_21
REMARK                            x       y       z     vdW  Elec       q    Type
REMARK                         _______ _______ _______ _____ _____    ______ ____
ROOT
ATOM      1  N   UNL     1       2.520   6.410  17.858  0.00  0.00    +0.000 N 
ATOM      2  C   UNL     1       2.441   7.020  19.101  0.00  0.00    +0.000 C 
ATOM      3  O   UNL     1       2.718   6.470  20.164  0.00  0.00    +0.000 OA
ATOM      4  H   UNL     1       1.988   6.846  17.115  0.00  0.00    +0.000 HD
ENDROOT
BRANCH   1   9
ATOM      5  C   UNL     1       2.107   2.766  18.167  0.00  0.00    +0.000 A 
ATOM      6  C   UNL     1       3.348   2.304  17.751  0.00  0.00    +0.000 A 
ATOM      7  C   UNL     1       4.318   3.216  17.301  0.00  0.00    +0.000 A 
ATOM      8  C   UNL     1       4.095   4.602  17.263  0.00  0.00    +0.000 A 
ATOM      9  C   UNL     1       2.817   5.038  17.695  0.00  0.00    +0.000 A 
ATOM     10  C   UNL     1       1.846   4.129  18.133  0.00  0.00    +0.000 A 
BRANCH   8  11
ATOM     11  N   UNL     1       5.064   5.460  16.769  0.00  0.00    +0.000 N 
ATOM     12  C   UNL     1       5.470   5.514  15.358  0.00  0.00    +0.000 C 
ATOM     13  C   UNL     1       6.996   5.402  15.226  0.00  0.00    +0.000 C 
ATOM     14  O   UNL     1       7.680   6.368  16.036  0.00  0.00    +0.000 OA
ATOM     15  C   UNL     1       7.316   6.205  17.419  0.00  0.00    +0.000 C 
ATOM     16  C   UNL     1       5.806   6.396  17.626  0.00  0.00    +0.000 C 
ENDBRANCH   8  11
BRANCH   5  18
ATOM     17  C   UNL     1       0.441   2.179  19.739  0.00  0.00    +0.000 C 
ATOM     18  O   UNL     1       1.236   1.807  18.621  0.00  0.00    +0.000 OA
ENDBRANCH   5  18
ENDBRANCH   1   9
BRANCH   2  19
ATOM     19  C   UNL     1       1.940   8.384  19.038  0.00  0.00    +0.000 A 
ATOM     20  C   UNL     1       1.966   9.336  18.038  0.00  0.00    +0.000 A 
ATOM     21  C   UNL     1       1.225  10.449  18.512  0.00  0.00    +0.000 A 
ATOM     22  C   UNL     1       0.811  10.131  19.790  0.00  0.00    +0.000 A 
ATOM     23  O   UNL     1       1.279   8.892  20.125  0.00  0.00    +0.000 OA
BRANCH  22  24
ATOM     24  C   UNL     1      -0.027  10.788  20.791  0.00  0.00    +0.000 A 
ATOM     25  C   UNL     1      -0.265  10.188  22.037  0.00  0.00    +0.000 A 
ATOM     26  C   UNL     1      -1.017  10.844  23.018  0.00  0.00    +0.000 A 
ATOM     27  C   UNL     1      -1.542  12.109  22.763  0.00  0.00    +0.000 A 
ATOM     28  C   UNL     1      -1.324  12.707  21.526  0.00  0.00    +0.000 A 
ATOM     29 CL   UNL     1      -1.966  14.274  21.206  0.00  0.00    +0.000 Cl
ATOM     30  C   UNL     1      -0.577  12.057  20.548  0.00  0.00    +0.000 A 
ENDBRANCH  22  24
ENDBRANCH   2  19
TORSDOF 5
ENDMDL
