MODEL 1
REMARK VINA RESULT:      -8.7      0.000      0.000
REMARK  Name = 
REMARK  4 active torsions:
REMARK  status: ('A' for Active; 'I' for Inactive)
REMARK    1  A    between atoms: C_9  and  N_10
REMARK    2  A    between atoms: N_10  and  C_11
REMARK    3  A    between atoms: C_11  and  C_12
REMARK    4  A    between atoms: C_15  and  N_16
REMARK                            x       y       z     vdW  Elec       q    Type
REMARK                         _______ _______ _______ _____ _____    ______ ____
ROOT
ATOM      1  N   UNL     1       4.460   3.680  19.001  0.00  0.00    +0.000 NA
ATOM      2  H   UNL     1       4.425   4.043  19.955  0.00  0.00    +0.000 HD
ENDROOT
BRANCH   1  11
ATOM      3  C   UNL     1       7.163   4.380  12.146  0.00  0.00    +0.000 A 
ATOM      4  C   UNL     1       7.915   5.260  12.874  0.00  0.00    +0.000 A 
ATOM      5  N   UNL     1       7.783   5.425  14.203  0.00  0.00    +0.000 NA
ATOM      6  C   UNL     1       6.867   4.680  14.848  0.00  0.00    +0.000 A 
ATOM      7  N   UNL     1       6.774   4.797  16.235  0.00  0.00    +0.000 N 
ATOM      8  C   UNL     1       7.226   6.084  16.762  0.00  0.00    +0.000 C 
ATOM      9  C   UNL     1       7.473   5.951  18.259  0.00  0.00    +0.000 C 
ATOM     10  C   UNL     1       6.246   5.420  18.992  0.00  0.00    +0.000 C 
ATOM     11  C   UNL     1       5.724   4.111  18.370  0.00  0.00    +0.000 C 
ATOM     12  C   UNL     1       5.537   4.285  16.835  0.00  0.00    +0.000 C 
ATOM     13  N   UNL     1       6.092   3.791  14.207  0.00  0.00    +0.000 NA
ATOM     14  C   UNL     1       6.255   3.661  12.875  0.00  0.00    +0.000 A 
ENDBRANCH   1  11
BRANCH   1  15
ATOM     15  C   UNL     1       3.278   4.159  18.286  0.00  0.00    +0.000 C 
BRANCH  15  16
ATOM     16  C   UNL     1       2.728   5.404  18.936  0.00  0.00    +0.000 A 
ATOM     17  C   UNL     1       2.783   6.635  18.275  0.00  0.00    +0.000 A 
ATOM     18  C   UNL     1       2.268   7.787  18.876  0.00  0.00    +0.000 A 
ATOM     19  C   UNL     1       1.693   7.729  20.154  0.00  0.00    +0.000 A 
ATOM     20  C   UNL     1       1.655   6.499  20.825  0.00  0.00    +0.000 A 
ATOM     21  C   UNL     1       2.172   5.349  20.220  0.00  0.00    +0.000 A 
BRANCH  19  22
ATOM     22  N   UNL     1       1.155   8.904  20.755  0.00  0.00    +0.000 N 
ATOM     23  C   UNL     1       0.493   9.938  20.126  0.00  0.00    +0.000 A 
ATOM     24  C   UNL     1       0.141  10.826  21.113  0.00  0.00    +0.000 A 
ATOM     25  N   UNL     1       0.568  10.391  22.332  0.00  0.00    +0.000 NA
ATOM     26  C   UNL     1       1.172   9.247  22.091  0.00  0.00    +0.000 A 
ENDBRANCH  19  22
ENDBRANCH  15  16
ENDBRANCH   1  15
TORSDOF 4
ENDMDL
MODEL 2
REMARK VINA RESULT:      -8.3      0.564      1.173
REMARK  Name = 
REMARK  4 active torsions:
REMARK  status: ('A' for Active; 'I' for Inactive)
REMARK    1  A    between atoms: C_9  and  N_10
REMARK    2  A    between atoms: N_10  and  C_11
REMARK    3  A    between atoms: C_11  and  C_12
REMARK    4  A    between atoms: C_15  and  N_16
REMARK                            x       y       z     vdW  Elec       q    Type
REMARK                         _______ _______ _______ _____ _____    ______ ____
ROOT
ATOM      1  N   UNL     1       4.360   3.802  19.038  0.00  0.00    +0.000 NA
ATOM      2  H   UNL     1       4.334   4.165  19.992  0.00  0.00    +0.000 HD
ENDROOT
BRANCH   1  11
ATOM      3  C   UNL     1       7.144   4.327  12.199  0.00  0.00    +0.000 A 
ATOM      4  C   UNL     1       7.914   5.196  12.922  0.00  0.00    +0.000 A 
ATOM      5  N   UNL     1       7.774   5.383  14.247  0.00  0.00    +0.000 NA
ATOM      6  C   UNL     1       6.832   4.674  14.895  0.00  0.00    +0.000 A 
ATOM      7  N   UNL     1       6.729   4.813  16.279  0.00  0.00    +0.000 N 
ATOM      8  C   UNL     1       7.213   6.094  16.791  0.00  0.00    +0.000 C 
ATOM      9  C   UNL     1       7.442   5.976  18.293  0.00  0.00    +0.000 C 
ATOM     10  C   UNL     1       6.194   5.491  19.021  0.00  0.00    +0.000 C 
ATOM     11  C   UNL     1       5.641   4.188  18.413  0.00  0.00    +0.000 C 
ATOM     12  C   UNL     1       5.474   4.345  16.873  0.00  0.00    +0.000 C 
ATOM     13  N   UNL     1       6.037   3.798  14.258  0.00  0.00    +0.000 NA
ATOM     14  C   UNL     1       6.209   3.644  12.930  0.00  0.00    +0.000 A 
ENDBRANCH   1  11
BRANCH   1  15
ATOM     15  C   UNL     1       3.199   4.323  18.318  0.00  0.00    +0.000 C 
BRANCH  15  16
ATOM     16  C   UNL     1       2.582   5.479  19.064  0.00  0.00    +0.000 A 
ATOM     17  C   UNL     1       1.961   5.277  20.301  0.00  0.00    +0.000 A 
ATOM     18  C   UNL     1       1.394   6.349  20.995  0.00  0.00    +0.000 A 
ATOM     19  C   UNL     1       1.433   7.646  20.460  0.00  0.00    +0.000 A 
ATOM     20  C   UNL     1       2.038   7.846  19.212  0.00  0.00    +0.000 A 
ATOM     21  C   UNL     1       2.603   6.769  18.521  0.00  0.00    +0.000 A 
BRANCH  19  22
ATOM     22  N   UNL     1       0.868   8.738  21.180  0.00  0.00    +0.000 N 
ATOM     23  C   UNL     1      -0.233   8.714  22.011  0.00  0.00    +0.000 A 
ATOM     24  C   UNL     1      -0.378   9.992  22.495  0.00  0.00    +0.000 A 
ATOM     25  N   UNL     1       0.583  10.814  21.988  0.00  0.00    +0.000 NA
ATOM     26  C   UNL     1       1.309  10.045  21.205  0.00  0.00    +0.000 A 
ENDBRANCH  19  22
ENDBRANCH  15  16
ENDBRANCH   1  15
TORSDOF 4
ENDMDL
MODEL 3
REMARK VINA RESULT:      -7.8      2.294      4.599
REMARK  Name = 
REMARK  4 active torsions:
REMARK  status: ('A' for Active; 'I' for Inactive)
REMARK    1  A    between atoms: C_9  and  N_10
REMARK    2  A    between atoms: N_10  and  C_11
REMARK    3  A    between atoms: C_11  and  C_12
REMARK    4  A    between atoms: C_15  and  N_16
REMARK                            x       y       z     vdW  Elec       q    Type
REMARK                         _______ _______ _______ _____ _____    ______ ____
ROOT
ATOM      1  N   UNL     1       1.656   6.888  21.132  0.00  0.00    +0.000 NA
ATOM      2  H   UNL     1       2.368   6.960  21.860  0.00  0.00    +0.000 HD
ENDROOT
BRANCH   1  11
ATOM      3  C   UNL     1       5.857   5.165  15.286  0.00  0.00    +0.000 A 
ATOM      4  C   UNL     1       5.674   3.962  15.909  0.00  0.00    +0.000 A 
ATOM      5  N   UNL     1       4.920   3.807  17.014  0.00  0.00    +0.000 NA
ATOM      6  C   UNL     1       4.311   4.892  17.526  0.00  0.00    +0.000 A 
ATOM      7  N   UNL     1       3.473   4.725  18.629  0.00  0.00    +0.000 N 
ATOM      8  C   UNL     1       3.794   3.562  19.455  0.00  0.00    +0.000 C 
ATOM      9  C   UNL     1       2.603   3.244  20.351  0.00  0.00    +0.000 C 
ATOM     10  C   UNL     1       2.179   4.451  21.181  0.00  0.00    +0.000 C 
ATOM     11  C   UNL     1       1.933   5.695  20.306  0.00  0.00    +0.000 C 
ATOM     12  C   UNL     1       3.156   5.945  19.376  0.00  0.00    +0.000 C 
ATOM     13  N   UNL     1       4.437   6.108  16.971  0.00  0.00    +0.000 NA
ATOM     14  C   UNL     1       5.205   6.218  15.868  0.00  0.00    +0.000 A 
ENDBRANCH   1  11
BRANCH   1  15
ATOM     15  C   UNL     1       1.666   8.128  20.357  0.00  0.00    +0.000 C 
BRANCH  15  16
ATOM     16  C   UNL     1       0.835   9.188  21.034  0.00  0.00    +0.000 A 
ATOM     17  C   UNL     1       0.690  10.454  20.458  0.00  0.00    +0.000 A 
ATOM     18  C   UNL     1      -0.085  11.435  21.083  0.00  0.00    +0.000 A 
ATOM     19  C   UNL     1      -0.725  11.168  22.303  0.00  0.00    +0.000 A 
ATOM     20  C   UNL     1      -0.565   9.905  22.891  0.00  0.00    +0.000 A 
ATOM     21  C   UNL     1       0.213   8.928  22.261  0.00  0.00    +0.000 A 
BRANCH  19  22
ATOM     22  N   UNL     1      -1.528  12.165  22.928  0.00  0.00    +0.000 N 
ATOM     23  C   UNL     1      -2.809  12.022  23.419  0.00  0.00    +0.000 A 
ATOM     24  C   UNL     1      -3.156  13.241  23.950  0.00  0.00    +0.000 A 
ATOM     25  N   UNL     1      -2.145  14.142  23.798  0.00  0.00    +0.000 NA
ATOM     26  C   UNL     1      -1.189  13.478  23.184  0.00  0.00    +0.000 A 
ENDBRANCH  19  22
ENDBRANCH  15  16
ENDBRANCH   1  15
TORSDOF 4
ENDMDL
MODEL 4
REMARK VINA RESULT:      -7.7      2.387      4.840
REMARK  Name = 
REMARK  4 active torsions:
REMARK  status: ('A' for Active; 'I' for Inactive)
REMARK    1  A    between atoms: C_9  and  N_10
REMARK    2  A    between atoms: N_10  and  C_11
REMARK    3  A    between atoms: C_11  and  C_12
REMARK    4  A    between atoms: C_15  and  N_16
REMARK                            x       y       z     vdW  Elec       q    Type
REMARK                         _______ _______ _______ _____ _____    ______ ____
ROOT
ATOM      1  N   UNL     1       1.673   7.172  21.112  0.00  0.00    +0.000 NA
ATOM      2  H   UNL     1       2.452   7.247  21.767  0.00  0.00    +0.000 HD
ENDROOT
BRANCH   1  11
ATOM      3  C   UNL     1       5.763   5.287  15.237  0.00  0.00    +0.000 A 
ATOM      4  C   UNL     1       5.500   4.087  15.838  0.00  0.00    +0.000 A 
ATOM      5  N   UNL     1       4.736   3.961  16.938  0.00  0.00    +0.000 NA
ATOM      6  C   UNL     1       4.198   5.073  17.470  0.00  0.00    +0.000 A 
ATOM      7  N   UNL     1       3.349   4.941  18.569  0.00  0.00    +0.000 N 
ATOM      8  C   UNL     1       3.590   3.744  19.374  0.00  0.00    +0.000 C 
ATOM      9  C   UNL     1       2.379   3.489  20.262  0.00  0.00    +0.000 C 
ATOM     10  C   UNL     1       2.034   4.704  21.115  0.00  0.00    +0.000 C 
ATOM     11  C   UNL     1       1.873   5.978  20.264  0.00  0.00    +0.000 C 
ATOM     12  C   UNL     1       3.111   6.165  19.339  0.00  0.00    +0.000 C 
ATOM     13  N   UNL     1       4.405   6.289  16.938  0.00  0.00    +0.000 NA
ATOM     14  C   UNL     1       5.181   6.370  15.839  0.00  0.00    +0.000 A 
ENDBRANCH   1  11
BRANCH   1  15
ATOM     15  C   UNL     1       1.603   8.411  20.339  0.00  0.00    +0.000 C 
BRANCH  15  16
ATOM     16  C   UNL     1       0.743   9.431  21.041  0.00  0.00    +0.000 A 
ATOM     17  C   UNL     1       0.060   9.097  22.215  0.00  0.00    +0.000 A 
ATOM     18  C   UNL     1      -0.733  10.045  22.869  0.00  0.00    +0.000 A 
ATOM     19  C   UNL     1      -0.862  11.344  22.355  0.00  0.00    +0.000 A 
ATOM     20  C   UNL     1      -0.192  11.673  21.168  0.00  0.00    +0.000 A 
ATOM     21  C   UNL     1       0.599  10.721  20.517  0.00  0.00    +0.000 A 
BRANCH  19  22
ATOM     22  N   UNL     1      -1.658  12.311  23.034  0.00  0.00    +0.000 N 
ATOM     23  C   UNL     1      -1.310  13.608  23.351  0.00  0.00    +0.000 A 
ATOM     24  C   UNL     1      -2.404  14.158  23.975  0.00  0.00    +0.000 A 
ATOM     25  N   UNL     1      -3.415  13.249  24.071  0.00  0.00    +0.000 NA
ATOM     26  C   UNL     1      -2.944  12.158  23.508  0.00  0.00    +0.000 A 
ENDBRANCH  19  22
ENDBRANCH  15  16
ENDBRANCH   1  15
TORSDOF 4
ENDMDL
MODEL 5
REMARK VINA RESULT:      -7.5      0.904      1.463
REMARK  Name = 
REMARK  4 active torsions:
REMARK  status: ('A' for Active; 'I' for Inactive)
REMARK    1  A    between atoms: C_9  and  N_10
REMARK    2  A    between atoms: N_10  and  C_11
REMARK    3  A    between atoms: C_11  and  C_12
REMARK    4  A    between atoms: C_15  and  N_16
REMARK                            x       y       z     vdW  Elec       q    Type
REMARK                         _______ _______ _______ _____ _____    ______ ____
ROOT
ATOM      1  N   UNL     1       4.289   4.562  19.457  0.00  0.00    +0.000 NA
ATOM      2  H   UNL     1       4.270   5.195  20.258  0.00  0.00    +0.000 HD
ENDROOT
BRANCH   1  11
ATOM      3  C   UNL     1       6.802   4.214  12.503  0.00  0.00    +0.000 A 
ATOM      4  C   UNL     1       7.725   5.001  13.134  0.00  0.00    +0.000 A 
ATOM      5  N   UNL     1       7.676   5.293  14.447  0.00  0.00    +0.000 NA
ATOM      6  C   UNL     1       6.669   4.779  15.176  0.00  0.00    +0.000 A 
ATOM      7  N   UNL     1       6.653   5.021  16.550  0.00  0.00    +0.000 N 
ATOM      8  C   UNL     1       7.345   6.244  16.953  0.00  0.00    +0.000 C 
ATOM      9  C   UNL     1       7.623   6.190  18.450  0.00  0.00    +0.000 C 
ATOM     10  C   UNL     1       6.352   5.948  19.255  0.00  0.00    +0.000 C 
ATOM     11  C   UNL     1       5.584   4.707  18.761  0.00  0.00    +0.000 C 
ATOM     12  C   UNL     1       5.370   4.788  17.221  0.00  0.00    +0.000 C 
ATOM     13  N   UNL     1       5.725   3.994  14.633  0.00  0.00    +0.000 NA
ATOM     14  C   UNL     1       5.810   3.730  13.314  0.00  0.00    +0.000 A 
ENDBRANCH   1  11
BRANCH   1  15
ATOM     15  C   UNL     1       3.146   4.873  18.600  0.00  0.00    +0.000 C 
BRANCH  15  16
ATOM     16  C   UNL     1       2.504   6.172  19.016  0.00  0.00    +0.000 A 
ATOM     17  C   UNL     1       1.910   6.301  20.275  0.00  0.00    +0.000 A 
ATOM     18  C   UNL     1       1.320   7.507  20.662  0.00  0.00    +0.000 A 
ATOM     19  C   UNL     1       1.309   8.607  19.791  0.00  0.00    +0.000 A 
ATOM     20  C   UNL     1       1.888   8.474  18.522  0.00  0.00    +0.000 A 
ATOM     21  C   UNL     1       2.476   7.264  18.139  0.00  0.00    +0.000 A 
BRANCH  19  22
ATOM     22  N   UNL     1       0.721   9.840  20.197  0.00  0.00    +0.000 N 
ATOM     23  C   UNL     1       1.259  10.785  21.046  0.00  0.00    +0.000 A 
ATOM     24  C   UNL     1       0.343  11.808  21.114  0.00  0.00    +0.000 A 
ATOM     25  N   UNL     1      -0.750  11.531  20.350  0.00  0.00    +0.000 NA
ATOM     26  C   UNL     1      -0.503  10.353  19.818  0.00  0.00    +0.000 A 
ENDBRANCH  19  22
ENDBRANCH  15  16
ENDBRANCH   1  15
TORSDOF 4
ENDMDL
MODEL 6
REMARK VINA RESULT:      -7.3      4.439     10.444
REMARK  Name = 
REMARK  4 active torsions:
REMARK  status: ('A' for Active; 'I' for Inactive)
REMARK    1  A    between atoms: C_9  and  N_10
REMARK    2  A    between atoms: N_10  and  C_11
REMARK    3  A    between atoms: C_11  and  C_12
REMARK    4  A    between atoms: C_15  and  N_16
REMARK                            x       y       z     vdW  Elec       q    Type
REMARK                         _______ _______ _______ _____ _____    ______ ____
ROOT
ATOM      1  N   UNL     1      -0.603  10.297  19.506  0.00  0.00    +0.000 NA
ATOM      2  H   UNL     1      -0.537   9.497  20.135  0.00  0.00    +0.000 HD
ENDROOT
BRANCH   1  11
ATOM      3  C   UNL     1      -7.167  13.618  18.684  0.00  0.00    +0.000 A 
ATOM      4  C   UNL     1      -6.953  13.034  17.466  0.00  0.00    +0.000 A 
ATOM      5  N   UNL     1      -5.876  12.279  17.186  0.00  0.00    +0.000 NA
ATOM      6  C   UNL     1      -4.965  12.084  18.157  0.00  0.00    +0.000 A 
ATOM      7  N   UNL     1      -3.882  11.245  17.894  0.00  0.00    +0.000 N 
ATOM      8  C   UNL     1      -3.528  11.147  16.478  0.00  0.00    +0.000 C 
ATOM      9  C   UNL     1      -2.644   9.924  16.269  0.00  0.00    +0.000 C 
ATOM     10  C   UNL     1      -1.419   9.947  17.176  0.00  0.00    +0.000 C 
ATOM     11  C   UNL     1      -1.801  10.142  18.656  0.00  0.00    +0.000 C 
ATOM     12  C   UNL     1      -2.743  11.371  18.808  0.00  0.00    +0.000 C 
ATOM     13  N   UNL     1      -5.103  12.619  19.380  0.00  0.00    +0.000 NA
ATOM     14  C   UNL     1      -6.196  13.373  19.616  0.00  0.00    +0.000 A 
ENDBRANCH   1  11
BRANCH   1  15
ATOM     15  C   UNL     1       0.635  10.375  18.731  0.00  0.00    +0.000 C 
BRANCH  15  16
ATOM     16  C   UNL     1       1.418   9.091  18.845  0.00  0.00    +0.000 A 
ATOM     17  C   UNL     1       2.116   8.584  17.745  0.00  0.00    +0.000 A 
ATOM     18  C   UNL     1       2.846   7.397  17.853  0.00  0.00    +0.000 A 
ATOM     19  C   UNL     1       2.885   6.691  19.065  0.00  0.00    +0.000 A 
ATOM     20  C   UNL     1       2.169   7.189  20.163  0.00  0.00    +0.000 A 
ATOM     21  C   UNL     1       1.440   8.376  20.049  0.00  0.00    +0.000 A 
BRANCH  19  22
ATOM     22  N   UNL     1       3.644   5.490  19.175  0.00  0.00    +0.000 N 
ATOM     23  C   UNL     1       3.164   4.197  19.220  0.00  0.00    +0.000 A 
ATOM     24  C   UNL     1       4.265   3.380  19.300  0.00  0.00    +0.000 A 
ATOM     25  N   UNL     1       5.413   4.114  19.320  0.00  0.00    +0.000 NA
ATOM     26  C   UNL     1       5.016   5.366  19.248  0.00  0.00    +0.000 A 
ENDBRANCH  19  22
ENDBRANCH  15  16
ENDBRANCH   1  15
TORSDOF 4
ENDMDL
MODEL 7
REMARK VINA RESULT:      -7.3      5.003      7.570
REMARK  Name = 
REMARK  4 active torsions:
REMARK  status: ('A' for Active; 'I' for Inactive)
REMARK    1  A    between atoms: C_9  and  N_10
REMARK    2  A    between atoms: N_10  and  C_11
REMARK    3  A    between atoms: C_11  and  C_12
REMARK    4  A    between atoms: C_15  and  N_16
REMARK                            x       y       z     vdW  Elec       q    Type
REMARK                         _______ _______ _______ _____ _____    ______ ____
ROOT
ATOM      1  N   UNL     1       7.944   6.899  18.393  0.00  0.00    +0.000 NA
ATOM      2  H   UNL     1       8.937   6.674  18.318  0.00  0.00    +0.000 HD
ENDROOT
BRANCH   1  11
ATOM      3  C   UNL     1       1.288   4.116  20.047  0.00  0.00    +0.000 A 
ATOM      4  C   UNL     1       1.582   3.538  18.844  0.00  0.00    +0.000 A 
ATOM      5  N   UNL     1       2.741   3.739  18.189  0.00  0.00    +0.000 NA
ATOM      6  C   UNL     1       3.658   4.546  18.752  0.00  0.00    +0.000 A 
ATOM      7  N   UNL     1       4.888   4.702  18.112  0.00  0.00    +0.000 N 
ATOM      8  C   UNL     1       4.846   4.477  16.668  0.00  0.00    +0.000 C 
ATOM      9  C   UNL     1       6.265   4.262  16.155  0.00  0.00    +0.000 C 
ATOM     10  C   UNL     1       7.188   5.413  16.539  0.00  0.00    +0.000 C 
ATOM     11  C   UNL     1       7.153   5.699  18.053  0.00  0.00    +0.000 C 
ATOM     12  C   UNL     1       5.681   5.860  18.534  0.00  0.00    +0.000 C 
ATOM     13  N   UNL     1       3.448   5.148  19.933  0.00  0.00    +0.000 NA
ATOM     14  C   UNL     1       2.272   4.923  20.552  0.00  0.00    +0.000 A 
ENDBRANCH   1  11
BRANCH   1  15
ATOM     15  C   UNL     1       7.664   8.031  17.510  0.00  0.00    +0.000 C 
BRANCH  15  16
ATOM     16  C   UNL     1       8.274   9.298  18.056  0.00  0.00    +0.000 A 
ATOM     17  C   UNL     1       9.020   9.275  19.239  0.00  0.00    +0.000 A 
ATOM     18  C   UNL     1       9.590  10.449  19.741  0.00  0.00    +0.000 A 
ATOM     19  C   UNL     1       9.417  11.669  19.071  0.00  0.00    +0.000 A 
ATOM     20  C   UNL     1       8.653  11.696  17.897  0.00  0.00    +0.000 A 
ATOM     21  C   UNL     1       8.084  10.519  17.398  0.00  0.00    +0.000 A 
BRANCH  19  22
ATOM     22  N   UNL     1      10.013  12.860  19.579  0.00  0.00    +0.000 N 
ATOM     23  C   UNL     1      10.026  13.298  20.887  0.00  0.00    +0.000 A 
ATOM     24  C   UNL     1      10.738  14.473  20.893  0.00  0.00    +0.000 A 
ATOM     25  N   UNL     1      11.160  14.790  19.636  0.00  0.00    +0.000 NA
ATOM     26  C   UNL     1      10.712  13.817  18.873  0.00  0.00    +0.000 A 
ENDBRANCH  19  22
ENDBRANCH  15  16
ENDBRANCH   1  15
TORSDOF 4
ENDMDL
MODEL 8
REMARK VINA RESULT:      -7.2      5.141      7.591
REMARK  Name = 
REMARK  4 active torsions:
REMARK  status: ('A' for Active; 'I' for Inactive)
REMARK    1  A    between atoms: C_9  and  N_10
REMARK    2  A    between atoms: N_10  and  C_11
REMARK    3  A    between atoms: C_11  and  C_12
REMARK    4  A    between atoms: C_15  and  N_16
REMARK                            x       y       z     vdW  Elec       q    Type
REMARK                         _______ _______ _______ _____ _____    ______ ____
ROOT
ATOM      1  N   UNL     1       7.550   7.584  17.170  0.00  0.00    +0.000 NA
ATOM      2  H   UNL     1       6.812   8.265  16.988  0.00  0.00    +0.000 HD
ENDROOT
BRANCH   1  11
ATOM      3  C   UNL     1       1.488   4.422  20.007  0.00  0.00    +0.000 A 
ATOM      4  C   UNL     1       1.836   3.580  18.987  0.00  0.00    +0.000 A 
ATOM      5  N   UNL     1       2.927   3.759  18.218  0.00  0.00    +0.000 NA
ATOM      6  C   UNL     1       3.717   4.818  18.471  0.00  0.00    +0.000 A 
ATOM      7  N   UNL     1       4.885   4.969  17.723  0.00  0.00    +0.000 N 
ATOM      8  C   UNL     1       4.836   4.346  16.401  0.00  0.00    +0.000 C 
ATOM      9  C   UNL     1       6.255   4.208  15.863  0.00  0.00    +0.000 C 
ATOM     10  C   UNL     1       6.990   5.544  15.851  0.00  0.00    +0.000 C 
ATOM     11  C   UNL     1       6.955   6.233  17.228  0.00  0.00    +0.000 C 
ATOM     12  C   UNL     1       5.492   6.303  17.755  0.00  0.00    +0.000 C 
ATOM     13  N   UNL     1       3.447   5.689  19.457  0.00  0.00    +0.000 NA
ATOM     14  C   UNL     1       2.343   5.474  20.200  0.00  0.00    +0.000 A 
ENDBRANCH   1  11
BRANCH   1  15
ATOM     15  C   UNL     1       8.225   7.960  18.412  0.00  0.00    +0.000 C 
BRANCH  15  16
ATOM     16  C   UNL     1       8.556   9.431  18.416  0.00  0.00    +0.000 A 
ATOM     17  C   UNL     1       9.493   9.946  19.317  0.00  0.00    +0.000 A 
ATOM     18  C   UNL     1       9.804  11.309  19.316  0.00  0.00    +0.000 A 
ATOM     19  C   UNL     1       9.176  12.184  18.417  0.00  0.00    +0.000 A 
ATOM     20  C   UNL     1       8.222  11.671  17.527  0.00  0.00    +0.000 A 
ATOM     21  C   UNL     1       7.914  10.307  17.532  0.00  0.00    +0.000 A 
BRANCH  19  22
ATOM     22  N   UNL     1       9.508  13.569  18.409  0.00  0.00    +0.000 N 
ATOM     23  C   UNL     1      10.695  14.143  18.003  0.00  0.00    +0.000 A 
ATOM     24  C   UNL     1      10.538  15.500  18.152  0.00  0.00    +0.000 A 
ATOM     25  N   UNL     1       9.302  15.793  18.647  0.00  0.00    +0.000 NA
ATOM     26  C   UNL     1       8.711  14.627  18.795  0.00  0.00    +0.000 A 
ENDBRANCH  19  22
ENDBRANCH  15  16
ENDBRANCH   1  15
TORSDOF 4
ENDMDL
MODEL 9
REMARK VINA RESULT:      -7.2      4.400     10.683
REMARK  Name = 
REMARK  4 active torsions:
REMARK  status: ('A' for Active; 'I' for Inactive)
REMARK    1  A    between atoms: C_9  and  N_10
REMARK    2  A    between atoms: N_10  and  C_11
REMARK    3  A    between atoms: C_11  and  C_12
REMARK    4  A    between atoms: C_15  and  N_16
REMARK                            x       y       z     vdW  Elec       q    Type
REMARK                         _______ _______ _______ _____ _____    ______ ____
ROOT
ATOM      1  N   UNL     1      -0.289  11.089  18.917  0.00  0.00    +0.000 NA
ATOM      2  H   UNL     1      -0.348  12.081  19.148  0.00  0.00    +0.000 HD
ENDROOT
BRANCH   1  11
ATOM      3  C   UNL     1      -7.281  13.445  19.510  0.00  0.00    +0.000 A 
ATOM      4  C   UNL     1      -7.329  12.573  18.458  0.00  0.00    +0.000 A 
ATOM      5  N   UNL     1      -6.264  11.872  18.028  0.00  0.00    +0.000 NA
ATOM      6  C   UNL     1      -5.094  12.033  18.671  0.00  0.00    +0.000 A 
ATOM      7  N   UNL     1      -4.005  11.257  18.274  0.00  0.00    +0.000 N 
ATOM      8  C   UNL     1      -4.061  10.811  16.883  0.00  0.00    +0.000 C 
ATOM      9  C   UNL     1      -3.078   9.663  16.687  0.00  0.00    +0.000 C 
ATOM     10  C   UNL     1      -1.667  10.044  17.121  0.00  0.00    +0.000 C 
ATOM     11  C   UNL     1      -1.636  10.599  18.558  0.00  0.00    +0.000 C 
ATOM     12  C   UNL     1      -2.691  11.731  18.718  0.00  0.00    +0.000 C 
ATOM     13  N   UNL     1      -4.965  12.866  19.716  0.00  0.00    +0.000 NA
ATOM     14  C   UNL     1      -6.056  13.552  20.111  0.00  0.00    +0.000 A 
ENDBRANCH   1  11
BRANCH   1  15
ATOM     15  C   UNL     1       0.283  10.385  20.064  0.00  0.00    +0.000 C 
BRANCH  15  16
ATOM     16  C   UNL     1       1.111   9.209  19.609  0.00  0.00    +0.000 A 
ATOM     17  C   UNL     1       1.358   8.137  20.473  0.00  0.00    +0.000 A 
ATOM     18  C   UNL     1       2.121   7.045  20.049  0.00  0.00    +0.000 A 
ATOM     19  C   UNL     1       2.658   7.010  18.754  0.00  0.00    +0.000 A 
ATOM     20  C   UNL     1       2.428   8.093  17.894  0.00  0.00    +0.000 A 
ATOM     21  C   UNL     1       1.664   9.184  18.323  0.00  0.00    +0.000 A 
BRANCH  19  22
ATOM     22  N   UNL     1       3.422   5.887  18.321  0.00  0.00    +0.000 N 
ATOM     23  C   UNL     1       2.960   4.762  17.669  0.00  0.00    +0.000 A 
ATOM     24  C   UNL     1       4.061   3.974  17.436  0.00  0.00    +0.000 A 
ATOM     25  N   UNL     1       5.190   4.559  17.928  0.00  0.00    +0.000 NA
ATOM     26  C   UNL     1       4.781   5.694  18.453  0.00  0.00    +0.000 A 
ENDBRANCH  19  22
ENDBRANCH  15  16
ENDBRANCH   1  15
TORSDOF 4
ENDMDL
