MODEL 1
REMARK VINA RESULT:      -9.4      0.000      0.000
REMARK  Name = 
REMARK  9 active torsions:
REMARK  status: ('A' for Active; 'I' for Inactive)
REMARK    1  A    between atoms: C_1  and  C_2
REMARK    2  A    between atoms: C_2  and  C_3
REMARK    3  A    between atoms: C_3  and  S_4
REMARK    4  A    between atoms: C_3  and  C_24
REMARK    5  A    between atoms: S_4  and  C_5
REMARK    6  A    between atoms: C_15  and  C_16
REMARK    7  A    between atoms: N_26  and  C_27
REMARK    8  A    between atoms: C_31  and  O_32
REMARK    9  A    between atoms: O_32  and  C_33
REMARK                            x       y       z     vdW  Elec       q    Type
REMARK                         _______ _______ _______ _____ _____    ______ ____
ROOT
ATOM      1  C   UNL     1       3.901   6.005  18.367  0.00  0.00    +0.000 A 
ATOM      2  N   UNL     1       4.066   4.724  18.206  0.00  0.00    +0.000 NA
ATOM      3  C   UNL     1       3.155   3.820  18.807  0.00  0.00    +0.000 A 
ATOM      4  C   UNL     1       3.287   2.462  18.528  0.00  0.00    +0.000 A 
ATOM      5  C   UNL     1       2.385   1.543  19.068  0.00  0.00    +0.000 A 
ATOM      6  C   UNL     1       1.353   1.978  19.903  0.00  0.00    +0.000 A 
ATOM      7  C   UNL     1       1.213   3.335  20.201  0.00  0.00    +0.000 A 
ATOM      8  C   UNL     1       2.106   4.254  19.648  0.00  0.00    +0.000 A 
ATOM      9  C   UNL     1       2.000   5.685  19.853  0.00  0.00    +0.000 A 
ATOM     10  N   UNL     1       1.190   6.422  20.580  0.00  0.00    +0.000 NA
ATOM     11  C   UNL     1       1.602   7.716  20.306  0.00  0.00    +0.000 A 
ATOM     12  N   UNL     1       2.625   7.795  19.438  0.00  0.00    +0.000 NA
ATOM     13  N   UNL     1       2.875   6.496  19.185  0.00  0.00    +0.000 N 
ENDROOT
BRANCH  11  14
ATOM     14  C   UNL     1       0.964   8.890  20.899  0.00  0.00    +0.000 A 
ATOM     15  C   UNL     1       0.912  10.105  20.203  0.00  0.00    +0.000 A 
ATOM     16  C   UNL     1       0.318  11.231  20.783  0.00  0.00    +0.000 A 
ATOM     17  C   UNL     1      -0.228  11.152  22.064  0.00  0.00    +0.000 A 
ATOM     18  C   UNL     1      -0.192   9.948  22.763  0.00  0.00    +0.000 A 
ATOM     19  C   UNL     1       0.397   8.823  22.181  0.00  0.00    +0.000 A 
ENDBRANCH  11  14
BRANCH   1  20
ATOM     20  S   UNL     1       5.047   7.086  17.590  0.00  0.00    +0.000 S 
BRANCH  20  21
ATOM     21  C   UNL     1       6.616   6.174  17.806  0.00  0.00    +0.000 C 
BRANCH  21  22
ATOM     22  C   UNL     1       7.006   5.345  16.573  0.00  0.00    +0.000 C 
ATOM     23  O   UNL     1       7.861   4.458  16.691  0.00  0.00    +0.000 OA
ATOM     24  N   UNL     1       6.324   5.617  15.395  0.00  0.00    +0.000 N 
ATOM     25  H   UNL     1       5.824   6.495  15.359  0.00  0.00    +0.000 HD
BRANCH  24  26
ATOM     26  C   UNL     1       6.600   4.969  14.159  0.00  0.00    +0.000 A 
ATOM     27  C   UNL     1       7.694   5.318  13.358  0.00  0.00    +0.000 A 
ATOM     28  C   UNL     1       7.869   4.766  12.093  0.00  0.00    +0.000 A 
ATOM     29  C   UNL     1       6.956   3.831  11.625  0.00  0.00    +0.000 A 
ATOM     30  C   UNL     1       5.887   3.423  12.426  0.00  0.00    +0.000 A 
ATOM     31  C   UNL     1       5.722   3.975  13.705  0.00  0.00    +0.000 A 
BRANCH  30  32
ATOM     32  O   UNL     1       5.073   2.503  11.823  0.00  0.00    +0.000 OA
ATOM     33  C   UNL     1       3.960   2.993  11.096  0.00  0.00    +0.000 C 
ENDBRANCH  30  32
ENDBRANCH  24  26
ENDBRANCH  21  22
BRANCH  21  35
ATOM     34  C   UNL     1       7.839   8.486  17.686  0.00  0.00    +0.000 C 
ATOM     35  C   UNL     1       7.827   7.056  18.188  0.00  0.00    +0.000 C 
ENDBRANCH  21  35
ENDBRANCH  20  21
ENDBRANCH   1  20
TORSDOF 7
ENDMDL
MODEL 2
REMARK VINA RESULT:      -9.3      0.882      1.256
REMARK  Name = 
REMARK  9 active torsions:
REMARK  status: ('A' for Active; 'I' for Inactive)
REMARK    1  A    between atoms: C_1  and  C_2
REMARK    2  A    between atoms: C_2  and  C_3
REMARK    3  A    between atoms: C_3  and  S_4
REMARK    4  A    between atoms: C_3  and  C_24
REMARK    5  A    between atoms: S_4  and  C_5
REMARK    6  A    between atoms: C_15  and  C_16
REMARK    7  A    between atoms: N_26  and  C_27
REMARK    8  A    between atoms: C_31  and  O_32
REMARK    9  A    between atoms: O_32  and  C_33
REMARK                            x       y       z     vdW  Elec       q    Type
REMARK                         _______ _______ _______ _____ _____    ______ ____
ROOT
ATOM      1  C   UNL     1       3.920   6.001  18.632  0.00  0.00    +0.000 A 
ATOM      2  N   UNL     1       4.190   4.751  18.875  0.00  0.00    +0.000 NA
ATOM      3  C   UNL     1       3.388   4.028  19.792  0.00  0.00    +0.000 A 
ATOM      4  C   UNL     1       3.626   2.664  19.949  0.00  0.00    +0.000 A 
ATOM      5  C   UNL     1       2.832   1.908  20.813  0.00  0.00    +0.000 A 
ATOM      6  C   UNL     1       1.802   2.515  21.536  0.00  0.00    +0.000 A 
ATOM      7  C   UNL     1       1.557   3.883  21.397  0.00  0.00    +0.000 A 
ATOM      8  C   UNL     1       2.341   4.635  20.522  0.00  0.00    +0.000 A 
ATOM      9  C   UNL     1       2.119   6.045  20.269  0.00  0.00    +0.000 A 
ATOM     10  N   UNL     1       1.279   6.919  20.779  0.00  0.00    +0.000 NA
ATOM     11  C   UNL     1       1.564   8.081  20.080  0.00  0.00    +0.000 A 
ATOM     12  N   UNL     1       2.539   7.947  19.164  0.00  0.00    +0.000 NA
ATOM     13  N   UNL     1       2.891   6.657  19.320  0.00  0.00    +0.000 N 
ENDROOT
BRANCH  11  14
ATOM     14  C   UNL     1       0.852   9.336  20.313  0.00  0.00    +0.000 A 
ATOM     15  C   UNL     1       0.228   9.589  21.542  0.00  0.00    +0.000 A 
ATOM     16  C   UNL     1      -0.468  10.784  21.752  0.00  0.00    +0.000 A 
ATOM     17  C   UNL     1      -0.547  11.736  20.736  0.00  0.00    +0.000 A 
ATOM     18  C   UNL     1       0.077  11.503  19.514  0.00  0.00    +0.000 A 
ATOM     19  C   UNL     1       0.776  10.311  19.305  0.00  0.00    +0.000 A 
ENDBRANCH  11  14
BRANCH   1  20
ATOM     20  S   UNL     1       4.933   6.852  17.476  0.00  0.00    +0.000 S 
BRANCH  20  21
ATOM     21  C   UNL     1       6.538   6.007  17.703  0.00  0.00    +0.000 C 
BRANCH  21  22
ATOM     22  C   UNL     1       6.992   5.232  16.457  0.00  0.00    +0.000 C 
ATOM     23  O   UNL     1       7.912   4.411  16.562  0.00  0.00    +0.000 OA
ATOM     24  N   UNL     1       6.293   5.471  15.282  0.00  0.00    +0.000 N 
ATOM     25  H   UNL     1       5.727   6.308  15.260  0.00  0.00    +0.000 HD
BRANCH  24  26
ATOM     26  C   UNL     1       6.619   4.867  14.036  0.00  0.00    +0.000 A 
ATOM     27  C   UNL     1       7.621   5.372  13.198  0.00  0.00    +0.000 A 
ATOM     28  C   UNL     1       7.832   4.848  11.927  0.00  0.00    +0.000 A 
ATOM     29  C   UNL     1       7.053   3.787  11.489  0.00  0.00    +0.000 A 
ATOM     30  C   UNL     1       6.086   3.226  12.326  0.00  0.00    +0.000 A 
ATOM     31  C   UNL     1       5.884   3.751  13.611  0.00  0.00    +0.000 A 
BRANCH  30  32
ATOM     32  O   UNL     1       5.397   2.193  11.749  0.00  0.00    +0.000 OA
ATOM     33  C   UNL     1       6.151   1.185  11.102  0.00  0.00    +0.000 C 
ENDBRANCH  30  32
ENDBRANCH  24  26
ENDBRANCH  21  22
BRANCH  21  35
ATOM     34  C   UNL     1       7.735   8.331  17.552  0.00  0.00    +0.000 C 
ATOM     35  C   UNL     1       7.698   6.933  18.136  0.00  0.00    +0.000 C 
ENDBRANCH  21  35
ENDBRANCH  20  21
ENDBRANCH   1  20
TORSDOF 7
ENDMDL
MODEL 3
REMARK VINA RESULT:      -8.9      1.086      1.127
REMARK  Name = 
REMARK  9 active torsions:
REMARK  status: ('A' for Active; 'I' for Inactive)
REMARK    1  A    between atoms: C_1  and  C_2
REMARK    2  A    between atoms: C_2  and  C_3
REMARK    3  A    between atoms: C_3  and  S_4
REMARK    4  A    between atoms: C_3  and  C_24
REMARK    5  A    between atoms: S_4  and  C_5
REMARK    6  A    between atoms: C_15  and  C_16
REMARK    7  A    between atoms: N_26  and  C_27
REMARK    8  A    between atoms: C_31  and  O_32
REMARK    9  A    between atoms: O_32  and  C_33
REMARK                            x       y       z     vdW  Elec       q    Type
REMARK                         _______ _______ _______ _____ _____    ______ ____
ROOT
ATOM      1  C   UNL     1       3.412   6.504  18.731  0.00  0.00    +0.000 A 
ATOM      2  N   UNL     1       3.759   5.250  18.696  0.00  0.00    +0.000 NA
ATOM      3  C   UNL     1       3.083   4.315  19.518  0.00  0.00    +0.000 A 
ATOM      4  C   UNL     1       3.395   2.964  19.381  0.00  0.00    +0.000 A 
ATOM      5  C   UNL     1       2.723   2.007  20.144  0.00  0.00    +0.000 A 
ATOM      6  C   UNL     1       1.744   2.398  21.061  0.00  0.00    +0.000 A 
ATOM      7  C   UNL     1       1.427   3.749  21.218  0.00  0.00    +0.000 A 
ATOM      8  C   UNL     1       2.088   4.703  20.444  0.00  0.00    +0.000 A 
ATOM      9  C   UNL     1       1.781   6.119  20.495  0.00  0.00    +0.000 A 
ATOM     10  N   UNL     1       0.958   6.824  21.240  0.00  0.00    +0.000 NA
ATOM     11  C   UNL     1       1.122   8.114  20.764  0.00  0.00    +0.000 A 
ATOM     12  N   UNL     1       2.007   8.221  19.757  0.00  0.00    +0.000 NA
ATOM     13  N   UNL     1       2.428   6.949  19.622  0.00  0.00    +0.000 N 
ENDROOT
BRANCH  11  14
ATOM     14  C   UNL     1       0.382   9.255  21.302  0.00  0.00    +0.000 A 
ATOM     15  C   UNL     1       0.191  10.411  20.535  0.00  0.00    +0.000 A 
ATOM     16  C   UNL     1      -0.501  11.507  21.062  0.00  0.00    +0.000 A 
ATOM     17  C   UNL     1      -1.007  11.456  22.360  0.00  0.00    +0.000 A 
ATOM     18  C   UNL     1      -0.833  10.309  23.130  0.00  0.00    +0.000 A 
ATOM     19  C   UNL     1      -0.145   9.214  22.602  0.00  0.00    +0.000 A 
ENDBRANCH  11  14
BRANCH   1  20
ATOM     20  S   UNL     1       4.268   7.623  17.681  0.00  0.00    +0.000 S 
BRANCH  20  21
ATOM     21  C   UNL     1       5.755   6.654  17.246  0.00  0.00    +0.000 C 
BRANCH  21  22
ATOM     22  C   UNL     1       5.811   6.270  15.760  0.00  0.00    +0.000 C 
ATOM     23  O   UNL     1       5.110   6.892  14.952  0.00  0.00    +0.000 OA
ATOM     24  N   UNL     1       6.700   5.265  15.407  0.00  0.00    +0.000 N 
ATOM     25  H   UNL     1       7.044   4.685  16.160  0.00  0.00    +0.000 HD
BRANCH  24  26
ATOM     26  C   UNL     1       6.837   4.765  14.082  0.00  0.00    +0.000 A 
ATOM     27  C   UNL     1       7.802   5.254  13.193  0.00  0.00    +0.000 A 
ATOM     28  C   UNL     1       7.832   4.847  11.863  0.00  0.00    +0.000 A 
ATOM     29  C   UNL     1       6.905   3.918  11.413  0.00  0.00    +0.000 A 
ATOM     30  C   UNL     1       5.968   3.370  12.293  0.00  0.00    +0.000 A 
ATOM     31  C   UNL     1       5.949   3.776  13.635  0.00  0.00    +0.000 A 
BRANCH  30  32
ATOM     32  O   UNL     1       5.120   2.475  11.699  0.00  0.00    +0.000 OA
ATOM     33  C   UNL     1       3.958   2.990  11.074  0.00  0.00    +0.000 C 
ENDBRANCH  30  32
ENDBRANCH  24  26
ENDBRANCH  21  22
BRANCH  21  35
ATOM     34  C   UNL     1       7.932   6.682  18.701  0.00  0.00    +0.000 C 
ATOM     35  C   UNL     1       7.096   7.329  17.615  0.00  0.00    +0.000 C 
ENDBRANCH  21  35
ENDBRANCH  20  21
ENDBRANCH   1  20
TORSDOF 7
ENDMDL
MODEL 4
REMARK VINA RESULT:      -8.5      4.136      7.625
REMARK  Name = 
REMARK  9 active torsions:
REMARK  status: ('A' for Active; 'I' for Inactive)
REMARK    1  A    between atoms: C_1  and  C_2
REMARK    2  A    between atoms: C_2  and  C_3
REMARK    3  A    between atoms: C_3  and  S_4
REMARK    4  A    between atoms: C_3  and  C_24
REMARK    5  A    between atoms: S_4  and  C_5
REMARK    6  A    between atoms: C_15  and  C_16
REMARK    7  A    between atoms: N_26  and  C_27
REMARK    8  A    between atoms: C_31  and  O_32
REMARK    9  A    between atoms: O_32  and  C_33
REMARK                            x       y       z     vdW  Elec       q    Type
REMARK                         _______ _______ _______ _____ _____    ______ ____
ROOT
ATOM      1  C   UNL     1      -0.443  11.110  19.275  0.00  0.00    +0.000 A 
ATOM      2  N   UNL     1      -0.866  10.608  18.152  0.00  0.00    +0.000 NA
ATOM      3  C   UNL     1      -2.184  10.888  17.713  0.00  0.00    +0.000 A 
ATOM      4  C   UNL     1      -2.575  10.433  16.455  0.00  0.00    +0.000 A 
ATOM      5  C   UNL     1      -3.851  10.722  15.969  0.00  0.00    +0.000 A 
ATOM      6  C   UNL     1      -4.749  11.458  16.745  0.00  0.00    +0.000 A 
ATOM      7  C   UNL     1      -4.377  11.913  18.012  0.00  0.00    +0.000 A 
ATOM      8  C   UNL     1      -3.096  11.637  18.490  0.00  0.00    +0.000 A 
ATOM      9  C   UNL     1      -2.603  12.120  19.765  0.00  0.00    +0.000 A 
ATOM     10  N   UNL     1      -3.169  12.801  20.737  0.00  0.00    +0.000 NA
ATOM     11  C   UNL     1      -2.142  12.964  21.652  0.00  0.00    +0.000 A 
ATOM     12  N   UNL     1      -0.975  12.414  21.274  0.00  0.00    +0.000 NA
ATOM     13  N   UNL     1      -1.298  11.866  20.087  0.00  0.00    +0.000 N 
ENDROOT
BRANCH  11  14
ATOM     14  C   UNL     1      -2.315  13.685  22.912  0.00  0.00    +0.000 A 
ATOM     15  C   UNL     1      -1.240  14.363  23.503  0.00  0.00    +0.000 A 
ATOM     16  C   UNL     1      -1.406  15.036  24.718  0.00  0.00    +0.000 A 
ATOM     17  C   UNL     1      -2.647  15.036  25.354  0.00  0.00    +0.000 A 
ATOM     18  C   UNL     1      -3.726  14.375  24.773  0.00  0.00    +0.000 A 
ATOM     19  C   UNL     1      -3.561  13.707  23.557  0.00  0.00    +0.000 A 
ENDBRANCH  11  14
BRANCH   1  20
ATOM     20  S   UNL     1       1.203  10.748  19.770  0.00  0.00    +0.000 S 
BRANCH  20  21
ATOM     21  C   UNL     1       1.058   8.998  20.276  0.00  0.00    +0.000 C 
BRANCH  21  22
ATOM     22  C   UNL     1       1.889   8.048  19.402  0.00  0.00    +0.000 C 
ATOM     23  O   UNL     1       2.275   8.434  18.291  0.00  0.00    +0.000 OA
ATOM     24  N   UNL     1       2.201   6.809  19.946  0.00  0.00    +0.000 N 
ATOM     25  H   UNL     1       1.653   6.520  20.745  0.00  0.00    +0.000 HD
BRANCH  24  26
ATOM     26  C   UNL     1       2.922   5.802  19.248  0.00  0.00    +0.000 A 
ATOM     27  C   UNL     1       2.292   4.873  18.411  0.00  0.00    +0.000 A 
ATOM     28  C   UNL     1       2.997   3.816  17.845  0.00  0.00    +0.000 A 
ATOM     29  C   UNL     1       4.357   3.693  18.091  0.00  0.00    +0.000 A 
ATOM     30  C   UNL     1       5.022   4.639  18.875  0.00  0.00    +0.000 A 
ATOM     31  C   UNL     1       4.309   5.708  19.435  0.00  0.00    +0.000 A 
BRANCH  30  32
ATOM     32  O   UNL     1       6.357   4.377  19.031  0.00  0.00    +0.000 OA
ATOM     33  C   UNL     1       7.254   5.468  18.928  0.00  0.00    +0.000 C 
ENDBRANCH  30  32
ENDBRANCH  24  26
ENDBRANCH  21  22
BRANCH  21  35
ATOM     34  C   UNL     1       0.505   9.301  22.817  0.00  0.00    +0.000 C 
ATOM     35  C   UNL     1       1.417   8.722  21.754  0.00  0.00    +0.000 C 
ENDBRANCH  21  35
ENDBRANCH  20  21
ENDBRANCH   1  20
TORSDOF 7
ENDMDL
MODEL 5
REMARK VINA RESULT:      -8.3      0.831      1.232
REMARK  Name = 
REMARK  9 active torsions:
REMARK  status: ('A' for Active; 'I' for Inactive)
REMARK    1  A    between atoms: C_1  and  C_2
REMARK    2  A    between atoms: C_2  and  C_3
REMARK    3  A    between atoms: C_3  and  S_4
REMARK    4  A    between atoms: C_3  and  C_24
REMARK    5  A    between atoms: S_4  and  C_5
REMARK    6  A    between atoms: C_15  and  C_16
REMARK    7  A    between atoms: N_26  and  C_27
REMARK    8  A    between atoms: C_31  and  O_32
REMARK    9  A    between atoms: O_32  and  C_33
REMARK                            x       y       z     vdW  Elec       q    Type
REMARK                         _______ _______ _______ _____ _____    ______ ____
ROOT
ATOM      1  C   UNL     1       3.454   6.171  18.173  0.00  0.00    +0.000 A 
ATOM      2  N   UNL     1       3.671   4.889  18.140  0.00  0.00    +0.000 NA
ATOM      3  C   UNL     1       2.961   4.037  19.021  0.00  0.00    +0.000 A 
ATOM      4  C   UNL     1       3.127   2.659  18.890  0.00  0.00    +0.000 A 
ATOM      5  C   UNL     1       2.415   1.784  19.712  0.00  0.00    +0.000 A 
ATOM      6  C   UNL     1       1.542   2.284  20.682  0.00  0.00    +0.000 A 
ATOM      7  C   UNL     1       1.372   3.662  20.834  0.00  0.00    +0.000 A 
ATOM      8  C   UNL     1       2.072   4.534  20.001  0.00  0.00    +0.000 A 
ATOM      9  C   UNL     1       1.912   5.975  20.045  0.00  0.00    +0.000 A 
ATOM     10  N   UNL     1       1.213   6.768  20.828  0.00  0.00    +0.000 NA
ATOM     11  C   UNL     1       1.473   8.029  20.317  0.00  0.00    +0.000 A 
ATOM     12  N   UNL     1       2.297   8.034  19.254  0.00  0.00    +0.000 NA
ATOM     13  N   UNL     1       2.580   6.724  19.117  0.00  0.00    +0.000 N 
ENDROOT
BRANCH  11  14
ATOM     14  C   UNL     1       0.888   9.245  20.880  0.00  0.00    +0.000 A 
ATOM     15  C   UNL     1       0.175   9.205  22.086  0.00  0.00    +0.000 A 
ATOM     16  C   UNL     1      -0.400  10.367  22.610  0.00  0.00    +0.000 A 
ATOM     17  C   UNL     1      -0.268  11.580  21.933  0.00  0.00    +0.000 A 
ATOM     18  C   UNL     1       0.447  11.636  20.740  0.00  0.00    +0.000 A 
ATOM     19  C   UNL     1       1.024  10.475  20.219  0.00  0.00    +0.000 A 
ENDBRANCH  11  14
BRANCH   1  20
ATOM     20  S   UNL     1       4.346   7.186  17.049  0.00  0.00    +0.000 S 
BRANCH  20  21
ATOM     21  C   UNL     1       6.024   6.470  17.162  0.00  0.00    +0.000 C 
BRANCH  21  22
ATOM     22  C   UNL     1       6.452   5.735  15.884  0.00  0.00    +0.000 C 
ATOM     23  O   UNL     1       7.644   5.752  15.551  0.00  0.00    +0.000 OA
ATOM     24  N   UNL     1       5.463   5.043  15.199  0.00  0.00    +0.000 N 
ATOM     25  H   UNL     1       4.508   5.282  15.428  0.00  0.00    +0.000 HD
BRANCH  24  26
ATOM     26  C   UNL     1       5.689   4.351  13.976  0.00  0.00    +0.000 A 
ATOM     27  C   UNL     1       6.971   4.175  13.441  0.00  0.00    +0.000 A 
ATOM     28  C   UNL     1       7.157   3.614  12.182  0.00  0.00    +0.000 A 
ATOM     29  C   UNL     1       6.054   3.196  11.451  0.00  0.00    +0.000 A 
ATOM     30  C   UNL     1       4.769   3.307  11.986  0.00  0.00    +0.000 A 
ATOM     31  C   UNL     1       4.587   3.863  13.260  0.00  0.00    +0.000 A 
BRANCH  30  32
ATOM     32  O   UNL     1       3.787   2.859  11.144  0.00  0.00    +0.000 OA
ATOM     33  C   UNL     1       3.263   3.778  10.203  0.00  0.00    +0.000 C 
ENDBRANCH  30  32
ENDBRANCH  24  26
ENDBRANCH  21  22
BRANCH  21  35
ATOM     34  C   UNL     1       8.108   7.095  18.618  0.00  0.00    +0.000 C 
ATOM     35  C   UNL     1       7.134   7.483  17.523  0.00  0.00    +0.000 C 
ENDBRANCH  21  35
ENDBRANCH  20  21
ENDBRANCH   1  20
TORSDOF 7
ENDMDL
MODEL 6
REMARK VINA RESULT:      -8.3      4.007      7.328
REMARK  Name = 
REMARK  9 active torsions:
REMARK  status: ('A' for Active; 'I' for Inactive)
REMARK    1  A    between atoms: C_1  and  C_2
REMARK    2  A    between atoms: C_2  and  C_3
REMARK    3  A    between atoms: C_3  and  S_4
REMARK    4  A    between atoms: C_3  and  C_24
REMARK    5  A    between atoms: S_4  and  C_5
REMARK    6  A    between atoms: C_15  and  C_16
REMARK    7  A    between atoms: N_26  and  C_27
REMARK    8  A    between atoms: C_31  and  O_32
REMARK    9  A    between atoms: O_32  and  C_33
REMARK                            x       y       z     vdW  Elec       q    Type
REMARK                         _______ _______ _______ _____ _____    ______ ____
ROOT
ATOM      1  C   UNL     1      -0.297  10.721  18.990  0.00  0.00    +0.000 A 
ATOM      2  N   UNL     1      -0.706  10.230  17.856  0.00  0.00    +0.000 NA
ATOM      3  C   UNL     1      -1.999  10.556  17.379  0.00  0.00    +0.000 A 
ATOM      4  C   UNL     1      -2.371  10.111  16.112  0.00  0.00    +0.000 A 
ATOM      5  C   UNL     1      -3.621  10.445  15.589  0.00  0.00    +0.000 A 
ATOM      6  C   UNL     1      -4.515  11.214  16.338  0.00  0.00    +0.000 A 
ATOM      7  C   UNL     1      -4.162  11.659  17.614  0.00  0.00    +0.000 A 
ATOM      8  C   UNL     1      -2.906  11.338  18.129  0.00  0.00    +0.000 A 
ATOM      9  C   UNL     1      -2.432  11.808  19.416  0.00  0.00    +0.000 A 
ATOM     10  N   UNL     1      -3.001  12.511  20.371  0.00  0.00    +0.000 NA
ATOM     11  C   UNL     1      -1.996  12.640  21.315  0.00  0.00    +0.000 A 
ATOM     12  N   UNL     1      -0.839  12.048  20.971  0.00  0.00    +0.000 NA
ATOM     13  N   UNL     1      -1.148  11.508  19.776  0.00  0.00    +0.000 N 
ENDROOT
BRANCH  11  14
ATOM     14  C   UNL     1      -2.178  13.370  22.568  0.00  0.00    +0.000 A 
ATOM     15  C   UNL     1      -3.378  13.274  23.285  0.00  0.00    +0.000 A 
ATOM     16  C   UNL     1      -3.555  13.991  24.474  0.00  0.00    +0.000 A 
ATOM     17  C   UNL     1      -2.534  14.809  24.956  0.00  0.00    +0.000 A 
ATOM     18  C   UNL     1      -1.332  14.905  24.259  0.00  0.00    +0.000 A 
ATOM     19  C   UNL     1      -1.155  14.187  23.074  0.00  0.00    +0.000 A 
ENDBRANCH  11  14
BRANCH   1  20
ATOM     20  S   UNL     1       1.321  10.302  19.532  0.00  0.00    +0.000 S 
BRANCH  20  21
ATOM     21  C   UNL     1       0.987   8.855  20.598  0.00  0.00    +0.000 C 
BRANCH  21  22
ATOM     22  C   UNL     1       1.689   7.577  20.115  0.00  0.00    +0.000 C 
ATOM     23  O   UNL     1       1.839   6.637  20.907  0.00  0.00    +0.000 OA
ATOM     24  N   UNL     1       2.074   7.540  18.782  0.00  0.00    +0.000 N 
ATOM     25  H   UNL     1       2.108   8.428  18.300  0.00  0.00    +0.000 HD
BRANCH  24  26
ATOM     26  C   UNL     1       2.773   6.449  18.194  0.00  0.00    +0.000 A 
ATOM     27  C   UNL     1       2.154   5.224  17.917  0.00  0.00    +0.000 A 
ATOM     28  C   UNL     1       2.886   4.130  17.467  0.00  0.00    +0.000 A 
ATOM     29  C   UNL     1       4.252   4.260  17.264  0.00  0.00    +0.000 A 
ATOM     30  C   UNL     1       4.885   5.487  17.478  0.00  0.00    +0.000 A 
ATOM     31  C   UNL     1       4.141   6.590  17.921  0.00  0.00    +0.000 A 
BRANCH  30  32
ATOM     32  O   UNL     1       6.233   5.454  17.242  0.00  0.00    +0.000 OA
ATOM     33  C   UNL     1       6.989   6.594  17.607  0.00  0.00    +0.000 C 
ENDBRANCH  30  32
ENDBRANCH  24  26
ENDBRANCH  21  22
BRANCH  21  35
ATOM     34  C   UNL     1       0.212   9.425  23.032  0.00  0.00    +0.000 C 
ATOM     35  C   UNL     1       1.340   9.057  22.089  0.00  0.00    +0.000 C 
ENDBRANCH  21  35
ENDBRANCH  20  21
ENDBRANCH   1  20
TORSDOF 7
ENDMDL
MODEL 7
REMARK VINA RESULT:      -8.1      4.356      7.719
REMARK  Name = 
REMARK  9 active torsions:
REMARK  status: ('A' for Active; 'I' for Inactive)
REMARK    1  A    between atoms: C_1  and  C_2
REMARK    2  A    between atoms: C_2  and  C_3
REMARK    3  A    between atoms: C_3  and  S_4
REMARK    4  A    between atoms: C_3  and  C_24
REMARK    5  A    between atoms: S_4  and  C_5
REMARK    6  A    between atoms: C_15  and  C_16
REMARK    7  A    between atoms: N_26  and  C_27
REMARK    8  A    between atoms: C_31  and  O_32
REMARK    9  A    between atoms: O_32  and  C_33
REMARK                            x       y       z     vdW  Elec       q    Type
REMARK                         _______ _______ _______ _____ _____    ______ ____
ROOT
ATOM      1  C   UNL     1      -0.500  11.062  19.203  0.00  0.00    +0.000 A 
ATOM      2  N   UNL     1      -0.775  10.478  18.073  0.00  0.00    +0.000 NA
ATOM      3  C   UNL     1      -2.037  10.691  17.465  0.00  0.00    +0.000 A 
ATOM      4  C   UNL     1      -2.266  10.146  16.203  0.00  0.00    +0.000 A 
ATOM      5  C   UNL     1      -3.481  10.367  15.553  0.00  0.00    +0.000 A 
ATOM      6  C   UNL     1      -4.482  11.123  16.168  0.00  0.00    +0.000 A 
ATOM      7  C   UNL     1      -4.272  11.668  17.437  0.00  0.00    +0.000 A 
ATOM      8  C   UNL     1      -3.051  11.460  18.079  0.00  0.00    +0.000 A 
ATOM      9  C   UNL     1      -2.724  12.037  19.368  0.00  0.00    +0.000 A 
ATOM     10  N   UNL     1      -3.416  12.761  20.221  0.00  0.00    +0.000 NA
ATOM     11  C   UNL     1      -2.509  13.011  21.237  0.00  0.00    +0.000 A 
ATOM     12  N   UNL     1      -1.293  12.473  21.035  0.00  0.00    +0.000 NA
ATOM     13  N   UNL     1      -1.462  11.842  19.857  0.00  0.00    +0.000 N 
ENDROOT
BRANCH  11  14
ATOM     14  C   UNL     1      -2.846  13.805  22.418  0.00  0.00    +0.000 A 
ATOM     15  C   UNL     1      -3.012  13.194  23.668  0.00  0.00    +0.000 A 
ATOM     16  C   UNL     1      -3.354  13.956  24.791  0.00  0.00    +0.000 A 
ATOM     17  C   UNL     1      -3.531  15.334  24.673  0.00  0.00    +0.000 A 
ATOM     18  C   UNL     1      -3.359  15.955  23.439  0.00  0.00    +0.000 A 
ATOM     19  C   UNL     1      -3.014  15.195  22.319  0.00  0.00    +0.000 A 
ENDBRANCH  11  14
BRANCH   1  20
ATOM     20  S   UNL     1       1.084  10.781  19.910  0.00  0.00    +0.000 S 
BRANCH  20  21
ATOM     21  C   UNL     1       0.895   9.087  20.570  0.00  0.00    +0.000 C 
BRANCH  21  22
ATOM     22  C   UNL     1       1.664   8.035  19.757  0.00  0.00    +0.000 C 
ATOM     23  O   UNL     1       1.944   8.274  18.575  0.00  0.00    +0.000 OA
ATOM     24  N   UNL     1       2.046   6.882  20.429  0.00  0.00    +0.000 N 
ATOM     25  H   UNL     1       1.576   6.698  21.305  0.00  0.00    +0.000 HD
BRANCH  24  26
ATOM     26  C   UNL     1       2.723   5.796  19.807  0.00  0.00    +0.000 A 
ATOM     27  C   UNL     1       4.091   5.837  19.511  0.00  0.00    +0.000 A 
ATOM     28  C   UNL     1       4.703   4.821  18.785  0.00  0.00    +0.000 A 
ATOM     29  C   UNL     1       3.951   3.732  18.366  0.00  0.00    +0.000 A 
ATOM     30  C   UNL     1       2.598   3.639  18.697  0.00  0.00    +0.000 A 
ATOM     31  C   UNL     1       1.987   4.661  19.439  0.00  0.00    +0.000 A 
BRANCH  30  32
ATOM     32  O   UNL     1       1.993   2.513  18.208  0.00  0.00    +0.000 OA
ATOM     33  C   UNL     1       0.735   2.157  18.753  0.00  0.00    +0.000 C 
ENDBRANCH  30  32
ENDBRANCH  24  26
ENDBRANCH  21  22
BRANCH  21  35
ATOM     34  C   UNL     1       0.310   9.414  23.100  0.00  0.00    +0.000 C 
ATOM     35  C   UNL     1       1.292   8.925  22.055  0.00  0.00    +0.000 C 
ENDBRANCH  21  35
ENDBRANCH  20  21
ENDBRANCH   1  20
TORSDOF 7
ENDMDL
MODEL 8
REMARK VINA RESULT:      -8.0      4.301      8.015
REMARK  Name = 
REMARK  9 active torsions:
REMARK  status: ('A' for Active; 'I' for Inactive)
REMARK    1  A    between atoms: C_1  and  C_2
REMARK    2  A    between atoms: C_2  and  C_3
REMARK    3  A    between atoms: C_3  and  S_4
REMARK    4  A    between atoms: C_3  and  C_24
REMARK    5  A    between atoms: S_4  and  C_5
REMARK    6  A    between atoms: C_15  and  C_16
REMARK    7  A    between atoms: N_26  and  C_27
REMARK    8  A    between atoms: C_31  and  O_32
REMARK    9  A    between atoms: O_32  and  C_33
REMARK                            x       y       z     vdW  Elec       q    Type
REMARK                         _______ _______ _______ _____ _____    ______ ____
ROOT
ATOM      1  C   UNL     1      -0.555  11.006  19.289  0.00  0.00    +0.000 A 
ATOM      2  N   UNL     1      -0.796  10.384  18.171  0.00  0.00    +0.000 NA
ATOM      3  C   UNL     1      -2.030  10.593  17.506  0.00  0.00    +0.000 A 
ATOM      4  C   UNL     1      -2.218  10.005  16.257  0.00  0.00    +0.000 A 
ATOM      5  C   UNL     1      -3.403  10.219  15.551  0.00  0.00    +0.000 A 
ATOM      6  C   UNL     1      -4.415  11.012  16.099  0.00  0.00    +0.000 A 
ATOM      7  C   UNL     1      -4.246  11.600  17.355  0.00  0.00    +0.000 A 
ATOM      8  C   UNL     1      -3.055  11.399  18.051  0.00  0.00    +0.000 A 
ATOM      9  C   UNL     1      -2.768  12.019  19.330  0.00  0.00    +0.000 A 
ATOM     10  N   UNL     1      -3.482  12.783  20.128  0.00  0.00    +0.000 NA
ATOM     11  C   UNL     1      -2.611  13.058  21.170  0.00  0.00    +0.000 A 
ATOM     12  N   UNL     1      -1.397  12.496  21.035  0.00  0.00    +0.000 NA
ATOM     13  N   UNL     1      -1.529  11.823  19.876  0.00  0.00    +0.000 N 
ENDROOT
BRANCH  11  14
ATOM     14  C   UNL     1      -2.981  13.900  22.306  0.00  0.00    +0.000 A 
ATOM     15  C   UNL     1      -2.625  13.537  23.612  0.00  0.00    +0.000 A 
ATOM     16  C   UNL     1      -2.998  14.336  24.698  0.00  0.00    +0.000 A 
ATOM     17  C   UNL     1      -3.730  15.504  24.488  0.00  0.00    +0.000 A 
ATOM     18  C   UNL     1      -4.082  15.882  23.195  0.00  0.00    +0.000 A 
ATOM     19  C   UNL     1      -3.706  15.086  22.110  0.00  0.00    +0.000 A 
ENDBRANCH  11  14
BRANCH   1  20
ATOM     20  S   UNL     1       0.995  10.728  20.067  0.00  0.00    +0.000 S 
BRANCH  20  21
ATOM     21  C   UNL     1       0.715   9.113  20.875  0.00  0.00    +0.000 C 
BRANCH  21  22
ATOM     22  C   UNL     1       1.489   7.965  20.210  0.00  0.00    +0.000 C 
ATOM     23  O   UNL     1       2.047   8.166  19.123  0.00  0.00    +0.000 OA
ATOM     24  N   UNL     1       1.556   6.768  20.909  0.00  0.00    +0.000 N 
ATOM     25  H   UNL     1       0.887   6.649  21.658  0.00  0.00    +0.000 HD
BRANCH  24  26
ATOM     26  C   UNL     1       2.195   5.599  20.410  0.00  0.00    +0.000 A 
ATOM     27  C   UNL     1       1.690   4.314  20.639  0.00  0.00    +0.000 A 
ATOM     28  C   UNL     1       2.401   3.180  20.257  0.00  0.00    +0.000 A 
ATOM     29  C   UNL     1       3.621   3.324  19.613  0.00  0.00    +0.000 A 
ATOM     30  C   UNL     1       4.120   4.595  19.321  0.00  0.00    +0.000 A 
ATOM     31  C   UNL     1       3.395   5.735  19.698  0.00  0.00    +0.000 A 
BRANCH  30  32
ATOM     32  O   UNL     1       5.335   4.573  18.691  0.00  0.00    +0.000 OA
ATOM     33  C   UNL     1       6.370   5.372  19.236  0.00  0.00    +0.000 C 
ENDBRANCH  30  32
ENDBRANCH  24  26
ENDBRANCH  21  22
BRANCH  21  35
ATOM     34  C   UNL     1      -0.044   9.583  23.336  0.00  0.00    +0.000 C 
ATOM     35  C   UNL     1       1.029   9.085  22.388  0.00  0.00    +0.000 C 
ENDBRANCH  21  35
ENDBRANCH  20  21
ENDBRANCH   1  20
TORSDOF 7
ENDMDL
MODEL 9
REMARK VINA RESULT:      -7.9      4.248      7.322
REMARK  Name = 
REMARK  9 active torsions:
REMARK  status: ('A' for Active; 'I' for Inactive)
REMARK    1  A    between atoms: C_1  and  C_2
REMARK    2  A    between atoms: C_2  and  C_3
REMARK    3  A    between atoms: C_3  and  S_4
REMARK    4  A    between atoms: C_3  and  C_24
REMARK    5  A    between atoms: S_4  and  C_5
REMARK    6  A    between atoms: C_15  and  C_16
REMARK    7  A    between atoms: N_26  and  C_27
REMARK    8  A    between atoms: C_31  and  O_32
REMARK    9  A    between atoms: O_32  and  C_33
REMARK                            x       y       z     vdW  Elec       q    Type
REMARK                         _______ _______ _______ _____ _____    ______ ____
ROOT
ATOM      1  C   UNL     1      -0.538  10.942  19.021  0.00  0.00    +0.000 A 
ATOM      2  N   UNL     1      -0.826  10.370  17.888  0.00  0.00    +0.000 NA
ATOM      3  C   UNL     1      -2.089  10.600  17.290  0.00  0.00    +0.000 A 
ATOM      4  C   UNL     1      -2.331  10.069  16.024  0.00  0.00    +0.000 A 
ATOM      5  C   UNL     1      -3.548  10.307  15.384  0.00  0.00    +0.000 A 
ATOM      6  C   UNL     1      -4.538  11.066  16.012  0.00  0.00    +0.000 A 
ATOM      7  C   UNL     1      -4.315  11.597  17.285  0.00  0.00    +0.000 A 
ATOM      8  C   UNL     1      -3.093  11.373  17.917  0.00  0.00    +0.000 A 
ATOM      9  C   UNL     1      -2.752  11.935  19.209  0.00  0.00    +0.000 A 
ATOM     10  N   UNL     1      -3.432  12.657  20.073  0.00  0.00    +0.000 NA
ATOM     11  C   UNL     1      -2.517  12.890  21.085  0.00  0.00    +0.000 A 
ATOM     12  N   UNL     1      -1.307  12.343  20.871  0.00  0.00    +0.000 NA
ATOM     13  N   UNL     1      -1.488  11.724  19.689  0.00  0.00    +0.000 N 
ENDROOT
BRANCH  11  14
ATOM     14  C   UNL     1      -2.839  13.676  22.275  0.00  0.00    +0.000 A 
ATOM     15  C   UNL     1      -2.939  15.072  22.207  0.00  0.00    +0.000 A 
ATOM     16  C   UNL     1      -3.228  15.821  23.352  0.00  0.00    +0.000 A 
ATOM     17  C   UNL     1      -3.420  15.181  24.576  0.00  0.00    +0.000 A 
ATOM     18  C   UNL     1      -3.333  13.793  24.657  0.00  0.00    +0.000 A 
ATOM     19  C   UNL     1      -3.048  13.046  23.512  0.00  0.00    +0.000 A 
ENDBRANCH  11  14
BRANCH   1  20
ATOM     20  S   UNL     1       1.047  10.640  19.715  0.00  0.00    +0.000 S 
BRANCH  20  21
ATOM     21  C   UNL     1       1.014   8.825  19.929  0.00  0.00    +0.000 C 
BRANCH  21  22
ATOM     22  C   UNL     1       1.881   8.082  18.902  0.00  0.00    +0.000 C 
ATOM     23  O   UNL     1       2.164   8.643  17.836  0.00  0.00    +0.000 OA
ATOM     24  N   UNL     1       2.340   6.823  19.265  0.00  0.00    +0.000 N 
ATOM     25  H   UNL     1       1.869   6.381  20.043  0.00  0.00    +0.000 HD
BRANCH  24  26
ATOM     26  C   UNL     1       3.113   5.990  18.409  0.00  0.00    +0.000 A 
ATOM     27  C   UNL     1       2.610   4.803  17.865  0.00  0.00    +0.000 A 
ATOM     28  C   UNL     1       3.424   3.938  17.141  0.00  0.00    +0.000 A 
ATOM     29  C   UNL     1       4.755   4.269  16.931  0.00  0.00    +0.000 A 
ATOM     30  C   UNL     1       5.268   5.475  17.413  0.00  0.00    +0.000 A 
ATOM     31  C   UNL     1       4.440   6.349  18.133  0.00  0.00    +0.000 A 
BRANCH  30  32
ATOM     32  O   UNL     1       6.595   5.655  17.132  0.00  0.00    +0.000 OA
ATOM     33  C   UNL     1       7.529   4.868  17.850  0.00  0.00    +0.000 C 
ENDBRANCH  30  32
ENDBRANCH  24  26
ENDBRANCH  21  22
BRANCH  21  35
ATOM     34  C   UNL     1       1.003   9.182  22.523  0.00  0.00    +0.000 C 
ATOM     35  C   UNL     1       1.419   8.334  21.338  0.00  0.00    +0.000 C 
ENDBRANCH  21  35
ENDBRANCH  20  21
ENDBRANCH   1  20
TORSDOF 7
ENDMDL
