MODEL 1
REMARK VINA RESULT:      -7.2      0.000      0.000
REMARK  Name = 
REMARK  8 active torsions:
REMARK  status: ('A' for Active; 'I' for Inactive)
REMARK    1  A    between atoms: C_1  and  C_2
REMARK    2  A    between atoms: C_2  and  N_3
REMARK    3  A    between atoms: N_6  and  C_7
REMARK    4  A    between atoms: C_7  and  C_8
REMARK    5  A    between atoms: C_8  and  C_10
REMARK    6  A    between atoms: C_13  and  N_14
REMARK    7  A    between atoms: N_14  and  S_15
REMARK    8  A    between atoms: S_15  and  C_16
REMARK                            x       y       z     vdW  Elec       q    Type
REMARK                         _______ _______ _______ _____ _____    ______ ____
ROOT
ATOM      1  C   UNL     1       5.159   4.812  17.164  0.00  0.00    +0.000 A 
ATOM      2  C   UNL     1       5.533   5.016  18.497  0.00  0.00    +0.000 A 
ATOM      3  C   UNL     1       4.916   4.295  19.520  0.00  0.00    +0.000 A 
ATOM      4  C   UNL     1       3.911   3.375  19.213  0.00  0.00    +0.000 A 
ATOM      5  C   UNL     1       3.596   3.115  17.879  0.00  0.00    +0.000 A 
ATOM      6  C   UNL     1       4.200   3.843  16.851  0.00  0.00    +0.000 A 
ENDROOT
BRANCH   1   7
ATOM      7  C   UNL     1       5.811   5.635  16.114  0.00  0.00    +0.000 C 
ATOM      8  O   UNL     1       5.298   6.703  15.810  0.00  0.00    +0.000 OA
BRANCH   7   9
ATOM      9  C   UNL     1       7.081   5.087  15.451  0.00  0.00    +0.000 C 
BRANCH   9  13
ATOM     10  N   UNL     1       6.105   3.505  12.360  0.00  0.00    +0.000 N 
ATOM     11  C   UNL     1       7.133   4.285  11.881  0.00  0.00    +0.000 A 
ATOM     12  C   UNL     1       7.670   4.931  12.957  0.00  0.00    +0.000 A 
ATOM     13  N   UNL     1       6.886   4.602  14.062  0.00  0.00    +0.000 N 
ATOM     14  C   UNL     1       5.937   3.727  13.677  0.00  0.00    +0.000 A 
BRANCH  10  16
ATOM     15  C   UNL     1       4.021   3.164  11.097  0.00  0.00    +0.000 C 
ATOM     16  C   UNL     1       5.320   2.549  11.572  0.00  0.00    +0.000 C 
ENDBRANCH  10  16
ENDBRANCH   9  13
ENDBRANCH   7   9
ENDBRANCH   1   7
BRANCH   4  17
ATOM     17  N   UNL     1       3.247   2.748  20.294  0.00  0.00    +0.000 N 
ATOM     18  H   UNL     1       3.520   1.832  20.634  0.00  0.00    +0.000 HD
BRANCH  17  19
ATOM     19  S   UNL     1       1.671   3.197  20.707  0.00  0.00    +0.000 S 
ATOM     20  C   UNL     1       1.776   4.980  20.673  0.00  0.00    +0.000 C 
ATOM     21  O   UNL     1       0.752   2.758  19.694  0.00  0.00    +0.000 OA
ATOM     22  O   UNL     1       1.519   2.805  22.101  0.00  0.00    +0.000 OA
ENDBRANCH  17  19
ENDBRANCH   4  17
TORSDOF 6
ENDMDL
MODEL 2
REMARK VINA RESULT:      -7.1      0.856      1.431
REMARK  Name = 
REMARK  8 active torsions:
REMARK  status: ('A' for Active; 'I' for Inactive)
REMARK    1  A    between atoms: C_1  and  C_2
REMARK    2  A    between atoms: C_2  and  N_3
REMARK    3  A    between atoms: N_6  and  C_7
REMARK    4  A    between atoms: C_7  and  C_8
REMARK    5  A    between atoms: C_8  and  C_10
REMARK    6  A    between atoms: C_13  and  N_14
REMARK    7  A    between atoms: N_14  and  S_15
REMARK    8  A    between atoms: S_15  and  C_16
REMARK                            x       y       z     vdW  Elec       q    Type
REMARK                         _______ _______ _______ _____ _____    ______ ____
ROOT
ATOM      1  C   UNL     1       5.279   5.110  17.228  0.00  0.00    +0.000 A 
ATOM      2  C   UNL     1       4.041   4.504  16.988  0.00  0.00    +0.000 A 
ATOM      3  C   UNL     1       3.398   3.788  17.998  0.00  0.00    +0.000 A 
ATOM      4  C   UNL     1       4.001   3.664  19.252  0.00  0.00    +0.000 A 
ATOM      5  C   UNL     1       5.195   4.334  19.515  0.00  0.00    +0.000 A 
ATOM      6  C   UNL     1       5.850   5.041  18.504  0.00  0.00    +0.000 A 
ENDROOT
BRANCH   1   7
ATOM      7  C   UNL     1       5.946   5.823  16.110  0.00  0.00    +0.000 C 
ATOM      8  O   UNL     1       5.467   6.882  15.729  0.00  0.00    +0.000 OA
BRANCH   7   9
ATOM      9  C   UNL     1       7.187   5.179  15.479  0.00  0.00    +0.000 C 
BRANCH   9  13
ATOM     10  N   UNL     1       6.215   3.525  12.426  0.00  0.00    +0.000 N 
ATOM     11  C   UNL     1       7.183   4.359  11.913  0.00  0.00    +0.000 A 
ATOM     12  C   UNL     1       7.712   5.041  12.971  0.00  0.00    +0.000 A 
ATOM     13  N   UNL     1       6.980   4.675  14.099  0.00  0.00    +0.000 N 
ATOM     14  C   UNL     1       6.072   3.745  13.746  0.00  0.00    +0.000 A 
BRANCH  10  16
ATOM     15  C   UNL     1       4.137   3.073  11.188  0.00  0.00    +0.000 C 
ATOM     16  C   UNL     1       5.464   2.520  11.665  0.00  0.00    +0.000 C 
ENDBRANCH  10  16
ENDBRANCH   9  13
ENDBRANCH   7   9
ENDBRANCH   1   7
BRANCH   4  17
ATOM     17  N   UNL     1       3.357   2.841  20.207  0.00  0.00    +0.000 N 
ATOM     18  H   UNL     1       3.384   1.828  20.149  0.00  0.00    +0.000 HD
BRANCH  17  19
ATOM     19  S   UNL     1       2.083   3.446  21.139  0.00  0.00    +0.000 S 
ATOM     20  C   UNL     1       0.684   3.190  20.060  0.00  0.00    +0.000 C 
ATOM     21  O   UNL     1       1.919   2.650  22.324  0.00  0.00    +0.000 OA
ATOM     22  O   UNL     1       2.314   4.882  21.207  0.00  0.00    +0.000 OA
ENDBRANCH  17  19
ENDBRANCH   4  17
TORSDOF 6
ENDMDL
MODEL 3
REMARK VINA RESULT:      -6.9      1.260      1.557
REMARK  Name = 
REMARK  8 active torsions:
REMARK  status: ('A' for Active; 'I' for Inactive)
REMARK    1  A    between atoms: C_1  and  C_2
REMARK    2  A    between atoms: C_2  and  N_3
REMARK    3  A    between atoms: N_6  and  C_7
REMARK    4  A    between atoms: C_7  and  C_8
REMARK    5  A    between atoms: C_8  and  C_10
REMARK    6  A    between atoms: C_13  and  N_14
REMARK    7  A    between atoms: N_14  and  S_15
REMARK    8  A    between atoms: S_15  and  C_16
REMARK                            x       y       z     vdW  Elec       q    Type
REMARK                         _______ _______ _______ _____ _____    ______ ____
ROOT
ATOM      1  C   UNL     1       4.818   5.564  17.205  0.00  0.00    +0.000 A 
ATOM      2  C   UNL     1       5.469   4.732  18.124  0.00  0.00    +0.000 A 
ATOM      3  C   UNL     1       4.834   4.357  19.308  0.00  0.00    +0.000 A 
ATOM      4  C   UNL     1       3.547   4.823  19.584  0.00  0.00    +0.000 A 
ATOM      5  C   UNL     1       2.869   5.585  18.633  0.00  0.00    +0.000 A 
ATOM      6  C   UNL     1       3.503   5.976  17.452  0.00  0.00    +0.000 A 
ENDROOT
BRANCH   1   7
ATOM      7  C   UNL     1       5.549   5.974  15.981  0.00  0.00    +0.000 C 
ATOM      8  O   UNL     1       5.121   6.922  15.337  0.00  0.00    +0.000 OA
BRANCH   7   9
ATOM      9  C   UNL     1       6.792   5.169  15.577  0.00  0.00    +0.000 C 
BRANCH   9  13
ATOM     10  N   UNL     1       6.199   3.462  12.456  0.00  0.00    +0.000 N 
ATOM     11  C   UNL     1       7.225   4.286  12.053  0.00  0.00    +0.000 A 
ATOM     12  C   UNL     1       7.622   4.986  13.156  0.00  0.00    +0.000 A 
ATOM     13  N   UNL     1       6.755   4.641  14.191  0.00  0.00    +0.000 N 
ATOM     14  C   UNL     1       5.895   3.706  13.745  0.00  0.00    +0.000 A 
BRANCH  10  16
ATOM     15  C   UNL     1       6.537   1.410  11.140  0.00  0.00    +0.000 C 
ATOM     16  C   UNL     1       5.544   2.445  11.626  0.00  0.00    +0.000 C 
ENDBRANCH  10  16
ENDBRANCH   9  13
ENDBRANCH   7   9
ENDBRANCH   1   7
BRANCH   4  17
ATOM     17  N   UNL     1       2.991   4.498  20.845  0.00  0.00    +0.000 N 
ATOM     18  H   UNL     1       3.119   5.090  21.658  0.00  0.00    +0.000 HD
BRANCH  17  19
ATOM     19  S   UNL     1       2.579   2.900  21.211  0.00  0.00    +0.000 S 
ATOM     20  C   UNL     1       1.759   2.379  19.712  0.00  0.00    +0.000 C 
ATOM     21  O   UNL     1       3.767   2.116  21.398  0.00  0.00    +0.000 OA
ATOM     22  O   UNL     1       1.556   3.001  22.244  0.00  0.00    +0.000 OA
ENDBRANCH  17  19
ENDBRANCH   4  17
TORSDOF 6
ENDMDL
MODEL 4
REMARK VINA RESULT:      -6.8      1.508      1.772
REMARK  Name = 
REMARK  8 active torsions:
REMARK  status: ('A' for Active; 'I' for Inactive)
REMARK    1  A    between atoms: C_1  and  C_2
REMARK    2  A    between atoms: C_2  and  N_3
REMARK    3  A    between atoms: N_6  and  C_7
REMARK    4  A    between atoms: C_7  and  C_8
REMARK    5  A    between atoms: C_8  and  C_10
REMARK    6  A    between atoms: C_13  and  N_14
REMARK    7  A    between atoms: N_14  and  S_15
REMARK    8  A    between atoms: S_15  and  C_16
REMARK                            x       y       z     vdW  Elec       q    Type
REMARK                         _______ _______ _______ _____ _____    ______ ____
ROOT
ATOM      1  C   UNL     1       5.756   4.692  17.399  0.00  0.00    +0.000 A 
ATOM      2  C   UNL     1       4.541   4.996  16.773  0.00  0.00    +0.000 A 
ATOM      3  C   UNL     1       3.340   4.880  17.472  0.00  0.00    +0.000 A 
ATOM      4  C   UNL     1       3.347   4.446  18.799  0.00  0.00    +0.000 A 
ATOM      5  C   UNL     1       4.561   4.221  19.446  0.00  0.00    +0.000 A 
ATOM      6  C   UNL     1       5.767   4.322  18.748  0.00  0.00    +0.000 A 
ENDROOT
BRANCH   1   7
ATOM      7  C   UNL     1       7.005   4.786  16.603  0.00  0.00    +0.000 C 
ATOM      8  O   UNL     1       7.982   4.151  16.976  0.00  0.00    +0.000 OA
BRANCH   7   9
ATOM      9  C   UNL     1       7.007   5.694  15.366  0.00  0.00    +0.000 C 
BRANCH   9  13
ATOM     10  N   UNL     1       6.240   3.594  12.536  0.00  0.00    +0.000 N 
ATOM     11  C   UNL     1       7.329   4.257  12.016  0.00  0.00    +0.000 A 
ATOM     12  C   UNL     1       7.795   5.078  13.002  0.00  0.00    +0.000 A 
ATOM     13  N   UNL     1       6.912   4.969  14.075  0.00  0.00    +0.000 N 
ATOM     14  C   UNL     1       5.971   4.055  13.771  0.00  0.00    +0.000 A 
BRANCH  10  16
ATOM     15  C   UNL     1       4.199   3.045  11.275  0.00  0.00    +0.000 C 
ATOM     16  C   UNL     1       5.493   2.524  11.866  0.00  0.00    +0.000 C 
ENDBRANCH  10  16
ENDBRANCH   9  13
ENDBRANCH   7   9
ENDBRANCH   1   7
BRANCH   4  17
ATOM     17  N   UNL     1       2.094   4.247  19.428  0.00  0.00    +0.000 N 
ATOM     18  H   UNL     1       1.682   4.945  20.037  0.00  0.00    +0.000 HD
BRANCH  17  19
ATOM     19  S   UNL     1       1.492   2.685  19.658  0.00  0.00    +0.000 S 
ATOM     20  C   UNL     1       1.480   2.554  21.439  0.00  0.00    +0.000 C 
ATOM     21  O   UNL     1       0.144   2.600  19.169  0.00  0.00    +0.000 OA
ATOM     22  O   UNL     1       2.540   1.799  19.172  0.00  0.00    +0.000 OA
ENDBRANCH  17  19
ENDBRANCH   4  17
TORSDOF 6
ENDMDL
MODEL 5
REMARK VINA RESULT:      -6.8      3.469      4.947
REMARK  Name = 
REMARK  8 active torsions:
REMARK  status: ('A' for Active; 'I' for Inactive)
REMARK    1  A    between atoms: C_1  and  C_2
REMARK    2  A    between atoms: C_2  and  N_3
REMARK    3  A    between atoms: N_6  and  C_7
REMARK    4  A    between atoms: C_7  and  C_8
REMARK    5  A    between atoms: C_8  and  C_10
REMARK    6  A    between atoms: C_13  and  N_14
REMARK    7  A    between atoms: N_14  and  S_15
REMARK    8  A    between atoms: S_15  and  C_16
REMARK                            x       y       z     vdW  Elec       q    Type
REMARK                         _______ _______ _______ _____ _____    ______ ____
ROOT
ATOM      1  C   UNL     1       2.019   5.222  18.883  0.00  0.00    +0.000 A 
ATOM      2  C   UNL     1       2.348   6.516  18.464  0.00  0.00    +0.000 A 
ATOM      3  C   UNL     1       2.285   7.584  19.359  0.00  0.00    +0.000 A 
ATOM      4  C   UNL     1       1.881   7.362  20.678  0.00  0.00    +0.000 A 
ATOM      5  C   UNL     1       1.631   6.062  21.115  0.00  0.00    +0.000 A 
ATOM      6  C   UNL     1       1.679   4.990  20.220  0.00  0.00    +0.000 A 
ENDROOT
BRANCH   1   7
ATOM      7  C   UNL     1       2.056   4.125  17.883  0.00  0.00    +0.000 C 
ATOM      8  O   UNL     1       1.121   4.020  17.101  0.00  0.00    +0.000 OA
BRANCH   7   9
ATOM      9  C   UNL     1       3.256   3.170  17.902  0.00  0.00    +0.000 C 
BRANCH   9  13
ATOM     10  N   UNL     1       6.154   4.509  16.225  0.00  0.00    +0.000 N 
ATOM     11  C   UNL     1       6.534   4.753  17.525  0.00  0.00    +0.000 A 
ATOM     12  C   UNL     1       5.549   4.244  18.322  0.00  0.00    +0.000 A 
ATOM     13  N   UNL     1       4.537   3.788  17.479  0.00  0.00    +0.000 N 
ATOM     14  C   UNL     1       4.928   3.956  16.201  0.00  0.00    +0.000 A 
BRANCH  10  16
ATOM     15  C   UNL     1       6.391   4.099  13.810  0.00  0.00    +0.000 C 
ATOM     16  C   UNL     1       6.966   4.781  15.033  0.00  0.00    +0.000 C 
ENDBRANCH  10  16
ENDBRANCH   9  13
ENDBRANCH   7   9
ENDBRANCH   1   7
BRANCH   4  17
ATOM     17  N   UNL     1       1.735   8.494  21.515  0.00  0.00    +0.000 N 
ATOM     18  H   UNL     1       2.435   8.747  22.204  0.00  0.00    +0.000 HD
BRANCH  17  19
ATOM     19  S   UNL     1       0.204   9.146  21.815  0.00  0.00    +0.000 S 
ATOM     20  C   UNL     1      -0.017  10.226  20.410  0.00  0.00    +0.000 C 
ATOM     21  O   UNL     1      -0.789   8.108  21.775  0.00  0.00    +0.000 OA
ATOM     22  O   UNL     1       0.377   9.996  22.984  0.00  0.00    +0.000 OA
ENDBRANCH  17  19
ENDBRANCH   4  17
TORSDOF 6
ENDMDL
MODEL 6
REMARK VINA RESULT:      -6.7      3.797      5.621
REMARK  Name = 
REMARK  8 active torsions:
REMARK  status: ('A' for Active; 'I' for Inactive)
REMARK    1  A    between atoms: C_1  and  C_2
REMARK    2  A    between atoms: C_2  and  N_3
REMARK    3  A    between atoms: N_6  and  C_7
REMARK    4  A    between atoms: C_7  and  C_8
REMARK    5  A    between atoms: C_8  and  C_10
REMARK    6  A    between atoms: C_13  and  N_14
REMARK    7  A    between atoms: N_14  and  S_15
REMARK    8  A    between atoms: S_15  and  C_16
REMARK                            x       y       z     vdW  Elec       q    Type
REMARK                         _______ _______ _______ _____ _____    ______ ____
ROOT
ATOM      1  C   UNL     1       2.091   5.241  18.790  0.00  0.00    +0.000 A 
ATOM      2  C   UNL     1       1.599   5.110  20.094  0.00  0.00    +0.000 A 
ATOM      3  C   UNL     1       1.492   6.226  20.923  0.00  0.00    +0.000 A 
ATOM      4  C   UNL     1       1.888   7.480  20.454  0.00  0.00    +0.000 A 
ATOM      5  C   UNL     1       2.302   7.624  19.130  0.00  0.00    +0.000 A 
ATOM      6  C   UNL     1       2.425   6.508  18.299  0.00  0.00    +0.000 A 
ENDROOT
BRANCH   1   7
ATOM      7  C   UNL     1       2.230   4.018  17.961  0.00  0.00    +0.000 C 
ATOM      8  O   UNL     1       1.321   3.729  17.194  0.00  0.00    +0.000 OA
BRANCH   7   9
ATOM      9  C   UNL     1       3.498   3.171  18.128  0.00  0.00    +0.000 C 
BRANCH   9  13
ATOM     10  N   UNL     1       6.571   5.047  17.915  0.00  0.00    +0.000 N 
ATOM     11  C   UNL     1       6.438   4.711  16.586  0.00  0.00    +0.000 A 
ATOM     12  C   UNL     1       5.263   4.025  16.472  0.00  0.00    +0.000 A 
ATOM     13  N   UNL     1       4.754   3.871  17.760  0.00  0.00    +0.000 N 
ATOM     14  C   UNL     1       5.566   4.505  18.628  0.00  0.00    +0.000 A 
BRANCH  10  16
ATOM     15  C   UNL     1       7.647   7.259  17.831  0.00  0.00    +0.000 C 
ATOM     16  C   UNL     1       7.629   5.891  18.481  0.00  0.00    +0.000 C 
ENDBRANCH  10  16
ENDBRANCH   9  13
ENDBRANCH   7   9
ENDBRANCH   1   7
BRANCH   4  17
ATOM     17  N   UNL     1       1.856   8.560  21.369  0.00  0.00    +0.000 N 
ATOM     18  H   UNL     1       2.335   8.521  22.263  0.00  0.00    +0.000 HD
BRANCH  17  19
ATOM     19  S   UNL     1       0.616   9.705  21.298  0.00  0.00    +0.000 S 
ATOM     20  C   UNL     1      -0.432   9.196  22.652  0.00  0.00    +0.000 C 
ATOM     21  O   UNL     1       1.138  11.015  21.571  0.00  0.00    +0.000 OA
ATOM     22  O   UNL     1      -0.103   9.408  20.067  0.00  0.00    +0.000 OA
ENDBRANCH  17  19
ENDBRANCH   4  17
TORSDOF 6
ENDMDL
MODEL 7
REMARK VINA RESULT:      -6.7      3.470      5.199
REMARK  Name = 
REMARK  8 active torsions:
REMARK  status: ('A' for Active; 'I' for Inactive)
REMARK    1  A    between atoms: C_1  and  C_2
REMARK    2  A    between atoms: C_2  and  N_3
REMARK    3  A    between atoms: N_6  and  C_7
REMARK    4  A    between atoms: C_7  and  C_8
REMARK    5  A    between atoms: C_8  and  C_10
REMARK    6  A    between atoms: C_13  and  N_14
REMARK    7  A    between atoms: N_14  and  S_15
REMARK    8  A    between atoms: S_15  and  C_16
REMARK                            x       y       z     vdW  Elec       q    Type
REMARK                         _______ _______ _______ _____ _____    ______ ____
ROOT
ATOM      1  C   UNL     1       2.325   4.824  18.603  0.00  0.00    +0.000 A 
ATOM      2  C   UNL     1       1.871   4.545  19.897  0.00  0.00    +0.000 A 
ATOM      3  C   UNL     1       1.638   5.582  20.801  0.00  0.00    +0.000 A 
ATOM      4  C   UNL     1       1.869   6.904  20.417  0.00  0.00    +0.000 A 
ATOM      5  C   UNL     1       2.244   7.186  19.104  0.00  0.00    +0.000 A 
ATOM      6  C   UNL     1       2.493   6.153  18.198  0.00  0.00    +0.000 A 
ENDROOT
BRANCH   1   7
ATOM      7  C   UNL     1       2.604   3.687  17.691  0.00  0.00    +0.000 C 
ATOM      8  O   UNL     1       1.670   3.197  17.070  0.00  0.00    +0.000 OA
BRANCH   7   9
ATOM      9  C   UNL     1       4.046   3.173  17.595  0.00  0.00    +0.000 C 
BRANCH   9  13
ATOM     10  N   UNL     1       6.580   5.701  17.159  0.00  0.00    +0.000 N 
ATOM     11  C   UNL     1       6.199   5.557  15.844  0.00  0.00    +0.000 A 
ATOM     12  C   UNL     1       5.178   4.651  15.829  0.00  0.00    +0.000 A 
ATOM     13  N   UNL     1       5.027   4.186  17.134  0.00  0.00    +0.000 N 
ATOM     14  C   UNL     1       5.891   4.842  17.933  0.00  0.00    +0.000 A 
BRANCH  10  16
ATOM     15  C   UNL     1       8.037   6.291  19.053  0.00  0.00    +0.000 C 
ATOM     16  C   UNL     1       7.568   6.662  17.662  0.00  0.00    +0.000 C 
ENDBRANCH  10  16
ENDBRANCH   9  13
ENDBRANCH   7   9
ENDBRANCH   1   7
BRANCH   4  17
ATOM     17  N   UNL     1       1.716   7.907  21.403  0.00  0.00    +0.000 N 
ATOM     18  H   UNL     1       2.225   7.881  22.280  0.00  0.00    +0.000 HD
BRANCH  17  19
ATOM     19  S   UNL     1       0.323   8.865  21.441  0.00  0.00    +0.000 S 
ATOM     20  C   UNL     1       0.404   9.566  23.082  0.00  0.00    +0.000 C 
ATOM     21  O   UNL     1       0.424   9.919  20.471  0.00  0.00    +0.000 OA
ATOM     22  O   UNL     1      -0.785   7.920  21.434  0.00  0.00    +0.000 OA
ENDBRANCH  17  19
ENDBRANCH   4  17
TORSDOF 6
ENDMDL
MODEL 8
REMARK VINA RESULT:      -6.6      0.968      1.601
REMARK  Name = 
REMARK  8 active torsions:
REMARK  status: ('A' for Active; 'I' for Inactive)
REMARK    1  A    between atoms: C_1  and  C_2
REMARK    2  A    between atoms: C_2  and  N_3
REMARK    3  A    between atoms: N_6  and  C_7
REMARK    4  A    between atoms: C_7  and  C_8
REMARK    5  A    between atoms: C_8  and  C_10
REMARK    6  A    between atoms: C_13  and  N_14
REMARK    7  A    between atoms: N_14  and  S_15
REMARK    8  A    between atoms: S_15  and  C_16
REMARK                            x       y       z     vdW  Elec       q    Type
REMARK                         _______ _______ _______ _____ _____    ______ ____
ROOT
ATOM      1  C   UNL     1       5.329   5.014  17.133  0.00  0.00    +0.000 A 
ATOM      2  C   UNL     1       4.188   4.347  16.673  0.00  0.00    +0.000 A 
ATOM      3  C   UNL     1       3.389   3.624  17.559  0.00  0.00    +0.000 A 
ATOM      4  C   UNL     1       3.735   3.557  18.910  0.00  0.00    +0.000 A 
ATOM      5  C   UNL     1       4.825   4.287  19.381  0.00  0.00    +0.000 A 
ATOM      6  C   UNL     1       5.638   5.001  18.498  0.00  0.00    +0.000 A 
ENDROOT
BRANCH   1   7
ATOM      7  C   UNL     1       6.174   5.732  16.146  0.00  0.00    +0.000 C 
ATOM      8  O   UNL     1       5.907   6.898  15.891  0.00  0.00    +0.000 OA
BRANCH   7   9
ATOM      9  C   UNL     1       7.325   4.962  15.484  0.00  0.00    +0.000 C 
BRANCH   9  13
ATOM     10  N   UNL     1       6.228   3.471  12.389  0.00  0.00    +0.000 N 
ATOM     11  C   UNL     1       7.138   4.368  11.878  0.00  0.00    +0.000 A 
ATOM     12  C   UNL     1       7.707   5.000  12.947  0.00  0.00    +0.000 A 
ATOM     13  N   UNL     1       7.053   4.539  14.088  0.00  0.00    +0.000 N 
ATOM     14  C   UNL     1       6.155   3.603  13.727  0.00  0.00    +0.000 A 
BRANCH  10  16
ATOM     15  C   UNL     1       6.349   1.354  11.139  0.00  0.00    +0.000 C 
ATOM     16  C   UNL     1       5.465   2.491  11.608  0.00  0.00    +0.000 C 
ENDBRANCH  10  16
ENDBRANCH   9  13
ENDBRANCH   7   9
ENDBRANCH   1   7
BRANCH   4  17
ATOM     17  N   UNL     1       2.949   2.726  19.745  0.00  0.00    +0.000 N 
ATOM     18  H   UNL     1       3.102   1.725  19.804  0.00  0.00    +0.000 HD
BRANCH  17  19
ATOM     19  S   UNL     1       1.411   3.221  20.240  0.00  0.00    +0.000 S 
ATOM     20  C   UNL     1       1.343   2.593  21.911  0.00  0.00    +0.000 C 
ATOM     21  O   UNL     1       1.342   4.656  20.271  0.00  0.00    +0.000 OA
ATOM     22  O   UNL     1       0.484   2.426  19.447  0.00  0.00    +0.000 OA
ENDBRANCH  17  19
ENDBRANCH   4  17
TORSDOF 6
ENDMDL
MODEL 9
REMARK VINA RESULT:      -6.6      3.563      5.453
REMARK  Name = 
REMARK  8 active torsions:
REMARK  status: ('A' for Active; 'I' for Inactive)
REMARK    1  A    between atoms: C_1  and  C_2
REMARK    2  A    between atoms: C_2  and  N_3
REMARK    3  A    between atoms: N_6  and  C_7
REMARK    4  A    between atoms: C_7  and  C_8
REMARK    5  A    between atoms: C_8  and  C_10
REMARK    6  A    between atoms: C_13  and  N_14
REMARK    7  A    between atoms: N_14  and  S_15
REMARK    8  A    between atoms: S_15  and  C_16
REMARK                            x       y       z     vdW  Elec       q    Type
REMARK                         _______ _______ _______ _____ _____    ______ ____
ROOT
ATOM      1  C   UNL     1       2.026   5.205  18.895  0.00  0.00    +0.000 A 
ATOM      2  C   UNL     1       2.405   6.484  18.470  0.00  0.00    +0.000 A 
ATOM      3  C   UNL     1       2.355   7.563  19.352  0.00  0.00    +0.000 A 
ATOM      4  C   UNL     1       1.915   7.370  20.663  0.00  0.00    +0.000 A 
ATOM      5  C   UNL     1       1.615   6.083  21.108  0.00  0.00    +0.000 A 
ATOM      6  C   UNL     1       1.649   5.000  20.226  0.00  0.00    +0.000 A 
ENDROOT
BRANCH   1   7
ATOM      7  C   UNL     1       2.051   4.096  17.909  0.00  0.00    +0.000 C 
ATOM      8  O   UNL     1       1.110   3.984  17.136  0.00  0.00    +0.000 OA
BRANCH   7   9
ATOM      9  C   UNL     1       3.249   3.137  17.929  0.00  0.00    +0.000 C 
BRANCH   9  13
ATOM     10  N   UNL     1       6.486   4.683  17.564  0.00  0.00    +0.000 N 
ATOM     11  C   UNL     1       6.153   4.576  16.232  0.00  0.00    +0.000 A 
ATOM     12  C   UNL     1       4.896   4.046  16.184  0.00  0.00    +0.000 A 
ATOM     13  N   UNL     1       4.529   3.747  17.495  0.00  0.00    +0.000 N 
ATOM     14  C   UNL     1       5.513   4.147  18.324  0.00  0.00    +0.000 A 
BRANCH  10  16
ATOM     15  C   UNL     1       7.520   5.731  19.536  0.00  0.00    +0.000 C 
ATOM     16  C   UNL     1       7.702   5.310  18.092  0.00  0.00    +0.000 C 
ENDBRANCH  10  16
ENDBRANCH   9  13
ENDBRANCH   7   9
ENDBRANCH   1   7
BRANCH   4  17
ATOM     17  N   UNL     1       1.785   8.515  21.484  0.00  0.00    +0.000 N 
ATOM     18  H   UNL     1       2.525   8.813  22.111  0.00  0.00    +0.000 HD
BRANCH  17  19
ATOM     19  S   UNL     1       0.256   9.112  21.886  0.00  0.00    +0.000 S 
ATOM     20  C   UNL     1      -0.015  10.325  20.603  0.00  0.00    +0.000 C 
ATOM     21  O   UNL     1      -0.726   8.070  21.767  0.00  0.00    +0.000 OA
ATOM     22  O   UNL     1       0.450   9.843  23.130  0.00  0.00    +0.000 OA
ENDBRANCH  17  19
ENDBRANCH   4  17
TORSDOF 6
ENDMDL
