MODEL 1
REMARK VINA RESULT:      -7.2      0.000      0.000
REMARK  Name = 
REMARK  6 active torsions:
REMARK  status: ('A' for Active; 'I' for Inactive)
REMARK    1  A    between atoms: C_1  and  O_2
REMARK    2  A    between atoms: O_2  and  C_3
REMARK    3  A    between atoms: C_6  and  C_7
REMARK    4  A    between atoms: N_9  and  C_10
REMARK    5  A    between atoms: C_21  and  O_22
REMARK    6  A    between atoms: O_22  and  C_23
REMARK                            x       y       z     vdW  Elec       q    Type
REMARK                         _______ _______ _______ _____ _____    ______ ____
ROOT
ATOM      1  C   UNL     1       4.504   3.508  17.249  0.00  0.00    +0.000 C 
ATOM      2  O   UNL     1       3.890   2.480  16.982  0.00  0.00    +0.000 OA
ATOM      3  N   UNL     1       4.277   4.281  18.381  0.00  0.00    +0.000 N 
ATOM      4  H   UNL     1       4.450   5.276  18.277  0.00  0.00    +0.000 HD
ENDROOT
BRANCH   3   5
ATOM      5  C   UNL     1       3.346   3.894  19.376  0.00  0.00    +0.000 A 
ATOM      6  C   UNL     1       2.067   4.457  19.485  0.00  0.00    +0.000 A 
ATOM      7  F   UNL     1       1.622   5.323  18.563  0.00  0.00    +0.000 F 
ATOM      8  C   UNL     1       1.198   4.041  20.491  0.00  0.00    +0.000 A 
ATOM      9  F   UNL     1      -0.041   4.548  20.559  0.00  0.00    +0.000 F 
ATOM     10  C   UNL     1       1.600   3.077  21.405  0.00  0.00    +0.000 A 
ATOM     11  F   UNL     1       0.762   2.682  22.376  0.00  0.00    +0.000 F 
ATOM     12  C   UNL     1       2.857   2.499  21.297  0.00  0.00    +0.000 A 
ATOM     13  F   UNL     1       3.246   1.567  22.177  0.00  0.00    +0.000 F 
ATOM     14  C   UNL     1       3.713   2.888  20.274  0.00  0.00    +0.000 A 
ATOM     15  F   UNL     1       4.928   2.323  20.171  0.00  0.00    +0.000 F 
ENDBRANCH   3   5
BRANCH   1  19
ATOM     16  C   UNL     1       7.359   5.124  14.470  0.00  0.00    +0.000 A 
ATOM     17  C   UNL     1       6.123   4.645  14.040  0.00  0.00    +0.000 A 
ATOM     18  C   UNL     1       5.212   4.116  14.953  0.00  0.00    +0.000 A 
ATOM     19  C   UNL     1       5.536   4.056  16.316  0.00  0.00    +0.000 A 
ATOM     20  C   UNL     1       6.779   4.537  16.765  0.00  0.00    +0.000 A 
ATOM     21  C   UNL     1       7.684   5.066  15.828  0.00  0.00    +0.000 A 
BRANCH  16  23
ATOM     22  C   UNL     1       7.796   5.310  12.134  0.00  0.00    +0.000 C 
ATOM     23  O   UNL     1       8.152   5.624  13.475  0.00  0.00    +0.000 OA
ENDBRANCH  16  23
BRANCH  20  24
ATOM     24  O   UNL     1       7.058   4.436  18.105  0.00  0.00    +0.000 OA
ATOM     25  C   UNL     1       7.646   5.561  18.752  0.00  0.00    +0.000 C 
ENDBRANCH  20  24
ENDBRANCH   1  19
TORSDOF 4
ENDMDL
MODEL 2
REMARK VINA RESULT:      -7.1      1.190      1.190
REMARK  Name = 
REMARK  6 active torsions:
REMARK  status: ('A' for Active; 'I' for Inactive)
REMARK    1  A    between atoms: C_1  and  O_2
REMARK    2  A    between atoms: O_2  and  C_3
REMARK    3  A    between atoms: C_6  and  C_7
REMARK    4  A    between atoms: N_9  and  C_10
REMARK    5  A    between atoms: C_21  and  O_22
REMARK    6  A    between atoms: O_22  and  C_23
REMARK                            x       y       z     vdW  Elec       q    Type
REMARK                         _______ _______ _______ _____ _____    ______ ____
ROOT
ATOM      1  C   UNL     1       4.797   4.716  17.616  0.00  0.00    +0.000 C 
ATOM      2  O   UNL     1       4.840   5.632  18.431  0.00  0.00    +0.000 OA
ATOM      3  N   UNL     1       4.053   3.554  17.787  0.00  0.00    +0.000 N 
ATOM      4  H   UNL     1       4.435   2.719  17.353  0.00  0.00    +0.000 HD
ENDROOT
BRANCH   3   5
ATOM      5  C   UNL     1       3.211   3.365  18.909  0.00  0.00    +0.000 A 
ATOM      6  C   UNL     1       1.905   3.869  18.977  0.00  0.00    +0.000 A 
ATOM      7  F   UNL     1       1.349   4.468  17.914  0.00  0.00    +0.000 F 
ATOM      8  C   UNL     1       1.126   3.658  20.113  0.00  0.00    +0.000 A 
ATOM      9  F   UNL     1      -0.138   4.100  20.151  0.00  0.00    +0.000 F 
ATOM     10  C   UNL     1       1.645   2.959  21.194  0.00  0.00    +0.000 A 
ATOM     11  F   UNL     1       0.895   2.761  22.288  0.00  0.00    +0.000 F 
ATOM     12  C   UNL     1       2.931   2.439  21.132  0.00  0.00    +0.000 A 
ATOM     13  F   UNL     1       3.433   1.763  22.174  0.00  0.00    +0.000 F 
ATOM     14  C   UNL     1       3.697   2.620  19.987  0.00  0.00    +0.000 A 
ATOM     15  F   UNL     1       4.939   2.111  19.930  0.00  0.00    +0.000 F 
ENDBRANCH   3   5
BRANCH   1  19
ATOM     16  C   UNL     1       7.010   4.822  13.931  0.00  0.00    +0.000 A 
ATOM     17  C   UNL     1       5.764   4.204  14.008  0.00  0.00    +0.000 A 
ATOM     18  C   UNL     1       5.063   4.171  15.213  0.00  0.00    +0.000 A 
ATOM     19  C   UNL     1       5.612   4.756  16.363  0.00  0.00    +0.000 A 
ATOM     20  C   UNL     1       6.868   5.386  16.300  0.00  0.00    +0.000 A 
ATOM     21  C   UNL     1       7.559   5.408  15.076  0.00  0.00    +0.000 A 
BRANCH  16  23
ATOM     22  C   UNL     1       7.086   3.836  11.762  0.00  0.00    +0.000 C 
ATOM     23  O   UNL     1       7.583   4.793  12.690  0.00  0.00    +0.000 OA
ENDBRANCH  16  23
BRANCH  20  24
ATOM     24  O   UNL     1       7.371   5.925  17.457  0.00  0.00    +0.000 OA
ATOM     25  C   UNL     1       7.574   7.335  17.504  0.00  0.00    +0.000 C 
ENDBRANCH  20  24
ENDBRANCH   1  19
TORSDOF 4
ENDMDL
MODEL 3
REMARK VINA RESULT:      -7.1      0.162      2.171
REMARK  Name = 
REMARK  6 active torsions:
REMARK  status: ('A' for Active; 'I' for Inactive)
REMARK    1  A    between atoms: C_1  and  O_2
REMARK    2  A    between atoms: O_2  and  C_3
REMARK    3  A    between atoms: C_6  and  C_7
REMARK    4  A    between atoms: N_9  and  C_10
REMARK    5  A    between atoms: C_21  and  O_22
REMARK    6  A    between atoms: O_22  and  C_23
REMARK                            x       y       z     vdW  Elec       q    Type
REMARK                         _______ _______ _______ _____ _____    ______ ____
ROOT
ATOM      1  C   UNL     1       4.571   3.401  17.290  0.00  0.00    +0.000 C 
ATOM      2  O   UNL     1       4.044   2.309  17.102  0.00  0.00    +0.000 OA
ATOM      3  N   UNL     1       4.297   4.224  18.376  0.00  0.00    +0.000 N 
ATOM      4  H   UNL     1       4.382   5.221  18.206  0.00  0.00    +0.000 HD
ENDROOT
BRANCH   3   5
ATOM      5  C   UNL     1       3.421   3.824  19.414  0.00  0.00    +0.000 A 
ATOM      6  C   UNL     1       3.736   2.812  20.331  0.00  0.00    +0.000 A 
ATOM      7  F   UNL     1       4.952   2.247  20.333  0.00  0.00    +0.000 F 
ATOM      8  C   UNL     1       2.828   2.456  21.327  0.00  0.00    +0.000 A 
ATOM      9  F   UNL     1       3.156   1.522  22.230  0.00  0.00    +0.000 F 
ATOM     10  C   UNL     1       1.596   3.089  21.406  0.00  0.00    +0.000 A 
ATOM     11  F   UNL     1       0.722   2.741  22.362  0.00  0.00    +0.000 F 
ATOM     12  C   UNL     1       1.279   4.105  20.514  0.00  0.00    +0.000 A 
ATOM     13  F   UNL     1       0.091   4.720  20.590  0.00  0.00    +0.000 F 
ATOM     14  C   UNL     1       2.196   4.485  19.542  0.00  0.00    +0.000 A 
ATOM     15  F   UNL     1       1.887   5.471  18.684  0.00  0.00    +0.000 F 
ENDBRANCH   3   5
BRANCH   1  19
ATOM     16  C   UNL     1       7.228   5.084  14.357  0.00  0.00    +0.000 A 
ATOM     17  C   UNL     1       5.987   4.565  13.995  0.00  0.00    +0.000 A 
ATOM     18  C   UNL     1       5.140   4.015  14.957  0.00  0.00    +0.000 A 
ATOM     19  C   UNL     1       5.536   3.974  16.302  0.00  0.00    +0.000 A 
ATOM     20  C   UNL     1       6.785   4.496  16.683  0.00  0.00    +0.000 A 
ATOM     21  C   UNL     1       7.624   5.046  15.698  0.00  0.00    +0.000 A 
BRANCH  16  23
ATOM     22  C   UNL     1       7.619   5.165  12.007  0.00  0.00    +0.000 C 
ATOM     23  O   UNL     1       7.952   5.601  13.320  0.00  0.00    +0.000 OA
ENDBRANCH  16  23
BRANCH  20  24
ATOM     24  O   UNL     1       7.136   4.414  18.007  0.00  0.00    +0.000 OA
ATOM     25  C   UNL     1       7.574   5.602  18.658  0.00  0.00    +0.000 C 
ENDBRANCH  20  24
ENDBRANCH   1  19
TORSDOF 4
ENDMDL
MODEL 4
REMARK VINA RESULT:      -7.0      1.182      2.464
REMARK  Name = 
REMARK  6 active torsions:
REMARK  status: ('A' for Active; 'I' for Inactive)
REMARK    1  A    between atoms: C_1  and  O_2
REMARK    2  A    between atoms: O_2  and  C_3
REMARK    3  A    between atoms: C_6  and  C_7
REMARK    4  A    between atoms: N_9  and  C_10
REMARK    5  A    between atoms: C_21  and  O_22
REMARK    6  A    between atoms: O_22  and  C_23
REMARK                            x       y       z     vdW  Elec       q    Type
REMARK                         _______ _______ _______ _____ _____    ______ ____
ROOT
ATOM      1  C   UNL     1       5.021   4.564  17.801  0.00  0.00    +0.000 C 
ATOM      2  O   UNL     1       5.280   5.324  18.729  0.00  0.00    +0.000 OA
ATOM      3  N   UNL     1       4.089   3.535  17.873  0.00  0.00    +0.000 N 
ATOM      4  H   UNL     1       4.284   2.723  17.295  0.00  0.00    +0.000 HD
ENDROOT
BRANCH   3   5
ATOM      5  C   UNL     1       3.296   3.324  19.027  0.00  0.00    +0.000 A 
ATOM      6  C   UNL     1       3.705   2.518  20.097  0.00  0.00    +0.000 A 
ATOM      7  F   UNL     1       4.939   1.992  20.122  0.00  0.00    +0.000 F 
ATOM      8  C   UNL     1       2.877   2.340  21.203  0.00  0.00    +0.000 A 
ATOM      9  F   UNL     1       3.296   1.607  22.244  0.00  0.00    +0.000 F 
ATOM     10  C   UNL     1       1.630   2.949  21.246  0.00  0.00    +0.000 A 
ATOM     11  F   UNL     1       0.833   2.773  22.310  0.00  0.00    +0.000 F 
ATOM     12  C   UNL     1       1.221   3.765  20.200  0.00  0.00    +0.000 A 
ATOM     13  F   UNL     1       0.019   4.355  20.240  0.00  0.00    +0.000 F 
ATOM     14  C   UNL     1       2.059   3.970  19.111  0.00  0.00    +0.000 A 
ATOM     15  F   UNL     1       1.660   4.763  18.103  0.00  0.00    +0.000 F 
ENDBRANCH   3   5
BRANCH   1  19
ATOM     16  C   UNL     1       6.988   4.802  13.985  0.00  0.00    +0.000 A 
ATOM     17  C   UNL     1       5.806   4.081  14.146  0.00  0.00    +0.000 A 
ATOM     18  C   UNL     1       5.185   4.007  15.392  0.00  0.00    +0.000 A 
ATOM     19  C   UNL     1       5.752   4.654  16.500  0.00  0.00    +0.000 A 
ATOM     20  C   UNL     1       6.943   5.387  16.353  0.00  0.00    +0.000 A 
ATOM     21  C   UNL     1       7.553   5.450  15.088  0.00  0.00    +0.000 A 
BRANCH  16  23
ATOM     22  C   UNL     1       6.975   3.828  11.810  0.00  0.00    +0.000 C 
ATOM     23  O   UNL     1       7.485   4.802  12.712  0.00  0.00    +0.000 OA
ENDBRANCH  16  23
BRANCH  20  24
ATOM     24  O   UNL     1       7.468   5.984  17.471  0.00  0.00    +0.000 OA
ATOM     25  C   UNL     1       7.598   7.403  17.473  0.00  0.00    +0.000 C 
ENDBRANCH  20  24
ENDBRANCH   1  19
TORSDOF 4
ENDMDL
MODEL 5
REMARK VINA RESULT:      -6.9      4.976      7.551
REMARK  Name = 
REMARK  6 active torsions:
REMARK  status: ('A' for Active; 'I' for Inactive)
REMARK    1  A    between atoms: C_1  and  O_2
REMARK    2  A    between atoms: O_2  and  C_3
REMARK    3  A    between atoms: C_6  and  C_7
REMARK    4  A    between atoms: N_9  and  C_10
REMARK    5  A    between atoms: C_21  and  O_22
REMARK    6  A    between atoms: O_22  and  C_23
REMARK                            x       y       z     vdW  Elec       q    Type
REMARK                         _______ _______ _______ _____ _____    ______ ____
ROOT
ATOM      1  C   UNL     1       1.861   7.377  19.743  0.00  0.00    +0.000 C 
ATOM      2  O   UNL     1       2.193   7.456  18.564  0.00  0.00    +0.000 OA
ATOM      3  N   UNL     1       1.948   6.216  20.502  0.00  0.00    +0.000 N 
ATOM      4  H   UNL     1       1.252   6.115  21.234  0.00  0.00    +0.000 HD
ENDROOT
BRANCH   3   5
ATOM      5  C   UNL     1       2.507   5.024  19.982  0.00  0.00    +0.000 A 
ATOM      6  C   UNL     1       3.846   4.920  19.581  0.00  0.00    +0.000 A 
ATOM      7  F   UNL     1       4.699   5.935  19.782  0.00  0.00    +0.000 F 
ATOM      8  C   UNL     1       4.337   3.721  19.067  0.00  0.00    +0.000 A 
ATOM      9  F   UNL     1       5.631   3.615  18.732  0.00  0.00    +0.000 F 
ATOM     10  C   UNL     1       3.498   2.624  18.933  0.00  0.00    +0.000 A 
ATOM     11  F   UNL     1       3.972   1.473  18.435  0.00  0.00    +0.000 F 
ATOM     12  C   UNL     1       2.174   2.709  19.344  0.00  0.00    +0.000 A 
ATOM     13  F   UNL     1       1.363   1.650  19.218  0.00  0.00    +0.000 F 
ATOM     14  C   UNL     1       1.691   3.893  19.887  0.00  0.00    +0.000 A 
ATOM     15  F   UNL     1       0.411   3.969  20.286  0.00  0.00    +0.000 F 
ENDBRANCH   3   5
BRANCH   1  19
ATOM     16  C   UNL     1       0.206  10.687  21.934  0.00  0.00    +0.000 A 
ATOM     17  C   UNL     1       0.440   9.458  22.547  0.00  0.00    +0.000 A 
ATOM     18  C   UNL     1       0.970   8.391  21.821  0.00  0.00    +0.000 A 
ATOM     19  C   UNL     1       1.266   8.547  20.459  0.00  0.00    +0.000 A 
ATOM     20  C   UNL     1       1.038   9.782  19.826  0.00  0.00    +0.000 A 
ATOM     21  C   UNL     1       0.503  10.844  20.576  0.00  0.00    +0.000 A 
BRANCH  16  23
ATOM     22  C   UNL     1      -1.675  11.538  23.123  0.00  0.00    +0.000 C 
ATOM     23  O   UNL     1      -0.304  11.647  22.762  0.00  0.00    +0.000 OA
ENDBRANCH  16  23
BRANCH  20  24
ATOM     24  O   UNL     1       1.324   9.878  18.488  0.00  0.00    +0.000 OA
ATOM     25  C   UNL     1       2.094  10.992  18.047  0.00  0.00    +0.000 C 
ENDBRANCH  20  24
ENDBRANCH   1  19
TORSDOF 4
ENDMDL
MODEL 6
REMARK VINA RESULT:      -6.9      4.996      6.789
REMARK  Name = 
REMARK  6 active torsions:
REMARK  status: ('A' for Active; 'I' for Inactive)
REMARK    1  A    between atoms: C_1  and  O_2
REMARK    2  A    between atoms: O_2  and  C_3
REMARK    3  A    between atoms: C_6  and  C_7
REMARK    4  A    between atoms: N_9  and  C_10
REMARK    5  A    between atoms: C_21  and  O_22
REMARK    6  A    between atoms: O_22  and  C_23
REMARK                            x       y       z     vdW  Elec       q    Type
REMARK                         _______ _______ _______ _____ _____    ______ ____
ROOT
ATOM      1  C   UNL     1       2.044   7.564  18.803  0.00  0.00    +0.000 C 
ATOM      2  O   UNL     1       1.831   7.032  17.718  0.00  0.00    +0.000 OA
ATOM      3  N   UNL     1       2.585   6.906  19.902  0.00  0.00    +0.000 N 
ATOM      4  H   UNL     1       2.284   7.246  20.810  0.00  0.00    +0.000 HD
ENDROOT
BRANCH   3   5
ATOM      5  C   UNL     1       3.009   5.557  19.831  0.00  0.00    +0.000 A 
ATOM      6  C   UNL     1       2.256   4.493  20.346  0.00  0.00    +0.000 A 
ATOM      7  F   UNL     1       1.025   4.702  20.836  0.00  0.00    +0.000 F 
ATOM      8  C   UNL     1       2.729   3.185  20.255  0.00  0.00    +0.000 A 
ATOM      9  F   UNL     1       1.981   2.168  20.705  0.00  0.00    +0.000 F 
ATOM     10  C   UNL     1       3.960   2.929  19.668  0.00  0.00    +0.000 A 
ATOM     11  F   UNL     1       4.416   1.670  19.585  0.00  0.00    +0.000 F 
ATOM     12  C   UNL     1       4.707   3.973  19.137  0.00  0.00    +0.000 A 
ATOM     13  F   UNL     1       5.894   3.728  18.568  0.00  0.00    +0.000 F 
ATOM     14  C   UNL     1       4.221   5.273  19.198  0.00  0.00    +0.000 A 
ATOM     15  F   UNL     1       4.946   6.279  18.680  0.00  0.00    +0.000 F 
ENDBRANCH   3   5
BRANCH   1  19
ATOM     16  C   UNL     1       0.982  11.693  19.361  0.00  0.00    +0.000 A 
ATOM     17  C   UNL     1       1.719  11.279  18.254  0.00  0.00    +0.000 A 
ATOM     18  C   UNL     1       2.063   9.937  18.091  0.00  0.00    +0.000 A 
ATOM     19  C   UNL     1       1.673   8.991  19.051  0.00  0.00    +0.000 A 
ATOM     20  C   UNL     1       0.927   9.393  20.173  0.00  0.00    +0.000 A 
ATOM     21  C   UNL     1       0.591  10.750  20.318  0.00  0.00    +0.000 A 
BRANCH  16  23
ATOM     22  C   UNL     1      -0.189  13.537  18.407  0.00  0.00    +0.000 C 
ATOM     23  O   UNL     1       0.705  13.031  19.392  0.00  0.00    +0.000 OA
ENDBRANCH  16  23
BRANCH  20  24
ATOM     24  O   UNL     1       0.589   8.433  21.093  0.00  0.00    +0.000 OA
ATOM     25  C   UNL     1      -0.411   8.753  22.055  0.00  0.00    +0.000 C 
ENDBRANCH  20  24
ENDBRANCH   1  19
TORSDOF 4
ENDMDL
MODEL 7
REMARK VINA RESULT:      -6.8      5.009      6.891
REMARK  Name = 
REMARK  6 active torsions:
REMARK  status: ('A' for Active; 'I' for Inactive)
REMARK    1  A    between atoms: C_1  and  O_2
REMARK    2  A    between atoms: O_2  and  C_3
REMARK    3  A    between atoms: C_6  and  C_7
REMARK    4  A    between atoms: N_9  and  C_10
REMARK    5  A    between atoms: C_21  and  O_22
REMARK    6  A    between atoms: O_22  and  C_23
REMARK                            x       y       z     vdW  Elec       q    Type
REMARK                         _______ _______ _______ _____ _____    ______ ____
ROOT
ATOM      1  C   UNL     1       2.118   7.608  18.773  0.00  0.00    +0.000 C 
ATOM      2  O   UNL     1       1.967   7.100  17.666  0.00  0.00    +0.000 OA
ATOM      3  N   UNL     1       2.638   6.939  19.874  0.00  0.00    +0.000 N 
ATOM      4  H   UNL     1       2.289   7.242  20.778  0.00  0.00    +0.000 HD
ENDROOT
BRANCH   3   5
ATOM      5  C   UNL     1       3.113   5.608  19.784  0.00  0.00    +0.000 A 
ATOM      6  C   UNL     1       4.328   5.272  19.172  0.00  0.00    +0.000 A 
ATOM      7  F   UNL     1       5.161   6.228  18.736  0.00  0.00    +0.000 F 
ATOM      8  C   UNL     1       4.739   3.942  19.106  0.00  0.00    +0.000 A 
ATOM      9  F   UNL     1       5.925   3.633  18.563  0.00  0.00    +0.000 F 
ATOM     10  C   UNL     1       3.939   2.938  19.633  0.00  0.00    +0.000 A 
ATOM     11  F   UNL     1       4.335   1.658  19.564  0.00  0.00    +0.000 F 
ATOM     12  C   UNL     1       2.743   3.261  20.259  0.00  0.00    +0.000 A 
ATOM     13  F   UNL     1       1.970   2.293  20.769  0.00  0.00    +0.000 F 
ATOM     14  C   UNL     1       2.346   4.589  20.354  0.00  0.00    +0.000 A 
ATOM     15  F   UNL     1       1.189   4.896  20.964  0.00  0.00    +0.000 F 
ENDBRANCH   3   5
BRANCH   1  19
ATOM     16  C   UNL     1       0.885  11.680  19.399  0.00  0.00    +0.000 A 
ATOM     17  C   UNL     1       1.682  11.324  18.313  0.00  0.00    +0.000 A 
ATOM     18  C   UNL     1       2.080  10.000  18.128  0.00  0.00    +0.000 A 
ATOM     19  C   UNL     1       1.685   9.014  19.043  0.00  0.00    +0.000 A 
ATOM     20  C   UNL     1       0.879   9.357  20.143  0.00  0.00    +0.000 A 
ATOM     21  C   UNL     1       0.489  10.697  20.311  0.00  0.00    +0.000 A 
BRANCH  16  23
ATOM     22  C   UNL     1      -0.311  13.508  18.447  0.00  0.00    +0.000 C 
ATOM     23  O   UNL     1       0.558  13.006  19.454  0.00  0.00    +0.000 OA
ENDBRANCH  16  23
BRANCH  20  24
ATOM     24  O   UNL     1       0.537   8.359  21.021  0.00  0.00    +0.000 OA
ATOM     25  C   UNL     1      -0.321   8.691  22.109  0.00  0.00    +0.000 C 
ENDBRANCH  20  24
ENDBRANCH   1  19
TORSDOF 4
ENDMDL
MODEL 8
REMARK VINA RESULT:      -6.6      4.855      7.348
REMARK  Name = 
REMARK  6 active torsions:
REMARK  status: ('A' for Active; 'I' for Inactive)
REMARK    1  A    between atoms: C_1  and  O_2
REMARK    2  A    between atoms: O_2  and  C_3
REMARK    3  A    between atoms: C_6  and  C_7
REMARK    4  A    between atoms: N_9  and  C_10
REMARK    5  A    between atoms: C_21  and  O_22
REMARK    6  A    between atoms: O_22  and  C_23
REMARK                            x       y       z     vdW  Elec       q    Type
REMARK                         _______ _______ _______ _____ _____    ______ ____
ROOT
ATOM      1  C   UNL     1       1.984   7.221  20.035  0.00  0.00    +0.000 C 
ATOM      2  O   UNL     1       3.034   7.333  19.409  0.00  0.00    +0.000 OA
ATOM      3  N   UNL     1       1.337   6.012  20.263  0.00  0.00    +0.000 N 
ATOM      4  H   UNL     1       0.326   6.061  20.336  0.00  0.00    +0.000 HD
ENDROOT
BRANCH   3   5
ATOM      5  C   UNL     1       1.890   4.777  19.843  0.00  0.00    +0.000 A 
ATOM      6  C   UNL     1       1.842   4.333  18.515  0.00  0.00    +0.000 A 
ATOM      7  F   UNL     1       1.361   5.127  17.546  0.00  0.00    +0.000 F 
ATOM      8  C   UNL     1       2.396   3.104  18.162  0.00  0.00    +0.000 A 
ATOM      9  F   UNL     1       2.391   2.708  16.882  0.00  0.00    +0.000 F 
ATOM     10  C   UNL     1       2.985   2.302  19.130  0.00  0.00    +0.000 A 
ATOM     11  F   UNL     1       3.513   1.117  18.789  0.00  0.00    +0.000 F 
ATOM     12  C   UNL     1       3.054   2.739  20.446  0.00  0.00    +0.000 A 
ATOM     13  F   UNL     1       3.624   1.967  21.381  0.00  0.00    +0.000 F 
ATOM     14  C   UNL     1       2.532   3.979  20.793  0.00  0.00    +0.000 A 
ATOM     15  F   UNL     1       2.605   4.399  22.067  0.00  0.00    +0.000 F 
ENDBRANCH   3   5
BRANCH   1  19
ATOM     16  C   UNL     1      -0.006  10.647  21.703  0.00  0.00    +0.000 A 
ATOM     17  C   UNL     1       0.369   9.569  22.502  0.00  0.00    +0.000 A 
ATOM     18  C   UNL     1       1.007   8.462  21.944  0.00  0.00    +0.000 A 
ATOM     19  C   UNL     1       1.269   8.421  20.567  0.00  0.00    +0.000 A 
ATOM     20  C   UNL     1       0.898   9.502  19.748  0.00  0.00    +0.000 A 
ATOM     21  C   UNL     1       0.256  10.609  20.330  0.00  0.00    +0.000 A 
BRANCH  16  23
ATOM     22  C   UNL     1      -1.706  11.339  23.224  0.00  0.00    +0.000 C 
ATOM     23  O   UNL     1      -0.612  11.670  22.377  0.00  0.00    +0.000 OA
ENDBRANCH  16  23
BRANCH  20  24
ATOM     24  O   UNL     1       1.158   9.405  18.404  0.00  0.00    +0.000 OA
ATOM     25  C   UNL     1       2.040  10.361  17.824  0.00  0.00    +0.000 C 
ENDBRANCH  20  24
ENDBRANCH   1  19
TORSDOF 4
ENDMDL
MODEL 9
REMARK VINA RESULT:      -6.6      5.316      8.134
REMARK  Name = 
REMARK  6 active torsions:
REMARK  status: ('A' for Active; 'I' for Inactive)
REMARK    1  A    between atoms: C_1  and  O_2
REMARK    2  A    between atoms: O_2  and  C_3
REMARK    3  A    between atoms: C_6  and  C_7
REMARK    4  A    between atoms: N_9  and  C_10
REMARK    5  A    between atoms: C_21  and  O_22
REMARK    6  A    between atoms: O_22  and  C_23
REMARK                            x       y       z     vdW  Elec       q    Type
REMARK                         _______ _______ _______ _____ _____    ______ ____
ROOT
ATOM      1  C   UNL     1       1.854   8.098  18.814  0.00  0.00    +0.000 C 
ATOM      2  O   UNL     1       1.748   8.444  17.642  0.00  0.00    +0.000 OA
ATOM      3  N   UNL     1       2.535   6.961  19.233  0.00  0.00    +0.000 N 
ATOM      4  H   UNL     1       2.178   6.519  20.074  0.00  0.00    +0.000 HD
ENDROOT
BRANCH   3   5
ATOM      5  C   UNL     1       3.237   6.133  18.324  0.00  0.00    +0.000 A 
ATOM      6  C   UNL     1       4.344   6.575  17.588  0.00  0.00    +0.000 A 
ATOM      7  F   UNL     1       4.864   7.792  17.802  0.00  0.00    +0.000 F 
ATOM      8  C   UNL     1       4.990   5.716  16.700  0.00  0.00    +0.000 A 
ATOM      9  F   UNL     1       6.078   6.131  16.037  0.00  0.00    +0.000 F 
ATOM     10  C   UNL     1       4.529   4.419  16.526  0.00  0.00    +0.000 A 
ATOM     11  F   UNL     1       5.150   3.595  15.669  0.00  0.00    +0.000 F 
ATOM     12  C   UNL     1       3.444   3.963  17.264  0.00  0.00    +0.000 A 
ATOM     13  F   UNL     1       3.000   2.710  17.099  0.00  0.00    +0.000 F 
ATOM     14  C   UNL     1       2.820   4.807  18.173  0.00  0.00    +0.000 A 
ATOM     15  F   UNL     1       1.773   4.360  18.886  0.00  0.00    +0.000 F 
ENDBRANCH   3   5
BRANCH   1  19
ATOM     16  C   UNL     1       0.058  10.269  22.062  0.00  0.00    +0.000 A 
ATOM     17  C   UNL     1       0.910   9.191  22.296  0.00  0.00    +0.000 A 
ATOM     18  C   UNL     1       1.478   8.492  21.231  0.00  0.00    +0.000 A 
ATOM     19  C   UNL     1       1.189   8.866  19.911  0.00  0.00    +0.000 A 
ATOM     20  C   UNL     1       0.333   9.953  19.659  0.00  0.00    +0.000 A 
ATOM     21  C   UNL     1      -0.229  10.645  20.746  0.00  0.00    +0.000 A 
BRANCH  16  23
ATOM     22  C   UNL     1      -1.573  11.694  23.057  0.00  0.00    +0.000 C 
ATOM     23  O   UNL     1      -0.420  10.872  23.192  0.00  0.00    +0.000 OA
ENDBRANCH  16  23
BRANCH  20  24
ATOM     24  O   UNL     1       0.066  10.266  18.350  0.00  0.00    +0.000 OA
ATOM     25  C   UNL     1      -1.298  10.312  17.939  0.00  0.00    +0.000 C 
ENDBRANCH  20  24
ENDBRANCH   1  19
TORSDOF 4
ENDMDL
