MODEL 1
REMARK VINA RESULT:      -8.2      0.000      0.000
REMARK  Name = 
REMARK  7 active torsions:
REMARK  status: ('A' for Active; 'I' for Inactive)
REMARK    1  A    between atoms: C_1  and  C_2
REMARK    2  A    between atoms: C_2  and  C_3
REMARK    3  A    between atoms: C_7  and  C_8
REMARK    4  A    between atoms: C_9  and  N_10
REMARK    5  A    between atoms: N_10  and  C_11
REMARK    6  A    between atoms: C_12  and  C_13
REMARK    7  A    between atoms: C_16  and  N_17
REMARK                            x       y       z     vdW  Elec       q    Type
REMARK                         _______ _______ _______ _____ _____    ______ ____
ROOT
ATOM      1  C   UNL     1      -0.242  12.227  19.506  0.00  0.00    +0.000 A 
ATOM      2  C   UNL     1       0.940  11.564  19.193  0.00  0.00    +0.000 A 
ATOM      3  N   UNL     1       1.914  12.447  18.781  0.00  0.00    +0.000 NA
ATOM      4  C   UNL     1       1.379  13.645  18.861  0.00  0.00    +0.000 A 
ATOM      5  N   UNL     1       1.918  14.849  18.471  0.00  0.00    +0.000 NA
ATOM      6  C   UNL     1       1.191  15.898  18.672  0.00  0.00    +0.000 A 
ATOM      7  C   UNL     1      -0.163  15.927  19.306  0.00  0.00    +0.000 A 
ATOM      8  C   UNL     1      -0.658  14.725  19.634  0.00  0.00    +0.000 A 
ATOM      9  N   UNL     1       0.092  13.573  19.384  0.00  0.00    +0.000 N 
ENDROOT
BRANCH   2  10
ATOM     10  C   UNL     1       1.133  10.124  19.142  0.00  0.00    +0.000 A 
ATOM     11  C   UNL     1       1.025   9.386  20.321  0.00  0.00    +0.000 A 
ATOM     12  C   UNL     1       1.480   8.062  20.371  0.00  0.00    +0.000 A 
ATOM     13  C   UNL     1       2.063   7.448  19.255  0.00  0.00    +0.000 A 
ATOM     14  C   UNL     1       2.058   8.171  18.056  0.00  0.00    +0.000 A 
ATOM     15  C   UNL     1       1.558   9.474  17.987  0.00  0.00    +0.000 A 
BRANCH  13  16
ATOM     16  N   UNL     1       2.608   6.178  19.290  0.00  0.00    +0.000 N 
ATOM     17  C   UNL     1       3.015   5.473  18.071  0.00  0.00    +0.000 C 
ATOM     18  C   UNL     1       2.063   4.312  17.761  0.00  0.00    +0.000 C 
ATOM     19  O   UNL     1       1.942   3.420  18.883  0.00  0.00    +0.000 OA
ATOM     20  C   UNL     1       1.412   4.126  20.016  0.00  0.00    +0.000 C 
ATOM     21  C   UNL     1       2.314   5.300  20.440  0.00  0.00    +0.000 C 
ENDBRANCH  13  16
ENDBRANCH   2  10
BRANCH   1  22
ATOM     22  N   UNL     1      -1.504  11.861  19.876  0.00  0.00    +0.000 N 
ATOM     23  H   UNL     1      -1.560  11.352  20.752  0.00  0.00    +0.000 HD
BRANCH  22  30
ATOM     24  C   UNL     1      -3.035  11.179  17.959  0.00  0.00    +0.000 A 
ATOM     25  C   UNL     1      -4.340  11.279  17.407  0.00  0.00    +0.000 A 
ATOM     26  C   UNL     1      -5.355  11.996  18.024  0.00  0.00    +0.000 A 
ATOM     27  C   UNL     1      -5.112  12.600  19.242  0.00  0.00    +0.000 A 
ATOM     28  C   UNL     1      -3.843  12.514  19.841  0.00  0.00    +0.000 A 
ATOM     29  C   UNL     1      -3.711  13.116  21.222  0.00  0.00    +0.000 C 
ATOM     30  C   UNL     1      -2.758  11.834  19.191  0.00  0.00    +0.000 A 
BRANCH  24  32
ATOM     31  C   UNL     1      -2.516   9.918  15.761  0.00  0.00    +0.000 C 
ATOM     32  C   UNL     1      -2.084  10.290  17.178  0.00  0.00    +0.000 C 
ENDBRANCH  24  32
ENDBRANCH  22  30
ENDBRANCH   1  22
TORSDOF 5
ENDMDL
MODEL 2
REMARK VINA RESULT:      -8.1      3.008      9.536
REMARK  Name = 
REMARK  7 active torsions:
REMARK  status: ('A' for Active; 'I' for Inactive)
REMARK    1  A    between atoms: C_1  and  C_2
REMARK    2  A    between atoms: C_2  and  C_3
REMARK    3  A    between atoms: C_7  and  C_8
REMARK    4  A    between atoms: C_9  and  N_10
REMARK    5  A    between atoms: N_10  and  C_11
REMARK    6  A    between atoms: C_12  and  C_13
REMARK    7  A    between atoms: C_16  and  N_17
REMARK                            x       y       z     vdW  Elec       q    Type
REMARK                         _______ _______ _______ _____ _____    ______ ____
ROOT
ATOM      1  C   UNL     1       3.562   5.536  19.662  0.00  0.00    +0.000 A 
ATOM      2  C   UNL     1       2.442   6.243  20.084  0.00  0.00    +0.000 A 
ATOM      3  N   UNL     1       1.593   5.444  20.818  0.00  0.00    +0.000 NA
ATOM      4  C   UNL     1       2.172   4.266  20.891  0.00  0.00    +0.000 A 
ATOM      5  N   UNL     1       1.679   3.105  21.438  0.00  0.00    +0.000 NA
ATOM      6  C   UNL     1       2.457   2.073  21.399  0.00  0.00    +0.000 A 
ATOM      7  C   UNL     1       3.844   2.033  20.840  0.00  0.00    +0.000 A 
ATOM      8  C   UNL     1       4.263   3.180  20.287  0.00  0.00    +0.000 A 
ATOM      9  N   UNL     1       3.420   4.295  20.277  0.00  0.00    +0.000 N 
ENDROOT
BRANCH   2  10
ATOM     10  C   UNL     1       2.086   7.601  19.705  0.00  0.00    +0.000 A 
ATOM     11  C   UNL     1       1.490   8.434  20.653  0.00  0.00    +0.000 A 
ATOM     12  C   UNL     1       0.877   9.629  20.258  0.00  0.00    +0.000 A 
ATOM     13  C   UNL     1       0.833  10.018  18.913  0.00  0.00    +0.000 A 
ATOM     14  C   UNL     1       1.534   9.223  17.998  0.00  0.00    +0.000 A 
ATOM     15  C   UNL     1       2.192   8.055  18.393  0.00  0.00    +0.000 A 
BRANCH  13  16
ATOM     16  N   UNL     1       0.159  11.141  18.472  0.00  0.00    +0.000 N 
ATOM     17  C   UNL     1       0.692  12.494  18.663  0.00  0.00    +0.000 C 
ATOM     18  C   UNL     1      -0.116  13.262  19.715  0.00  0.00    +0.000 C 
ATOM     19  O   UNL     1      -1.516  13.278  19.391  0.00  0.00    +0.000 OA
ATOM     20  C   UNL     1      -2.025  11.935  19.348  0.00  0.00    +0.000 C 
ATOM     21  C   UNL     1      -1.305  11.077  18.291  0.00  0.00    +0.000 C 
ENDBRANCH  13  16
ENDBRANCH   2  10
BRANCH   1  22
ATOM     22  N   UNL     1       4.645   5.794  18.872  0.00  0.00    +0.000 N 
ATOM     23  H   UNL     1       5.133   6.657  19.086  0.00  0.00    +0.000 HD
BRANCH  22  30
ATOM     24  C   UNL     1       4.400   4.376  16.771  0.00  0.00    +0.000 A 
ATOM     25  C   UNL     1       5.045   3.885  15.605  0.00  0.00    +0.000 A 
ATOM     26  C   UNL     1       6.360   4.202  15.294  0.00  0.00    +0.000 A 
ATOM     27  C   UNL     1       7.060   5.065  16.115  0.00  0.00    +0.000 A 
ATOM     28  C   UNL     1       6.460   5.595  17.270  0.00  0.00    +0.000 A 
ATOM     29  C   UNL     1       7.272   6.611  18.042  0.00  0.00    +0.000 C 
ATOM     30  C   UNL     1       5.124   5.229  17.650  0.00  0.00    +0.000 A 
BRANCH  24  32
ATOM     31  C   UNL     1       2.667   2.534  17.309  0.00  0.00    +0.000 C 
ATOM     32  C   UNL     1       2.940   3.980  16.901  0.00  0.00    +0.000 C 
ENDBRANCH  24  32
ENDBRANCH  22  30
ENDBRANCH   1  22
TORSDOF 5
ENDMDL
MODEL 3
REMARK VINA RESULT:      -7.8      3.392      9.537
REMARK  Name = 
REMARK  7 active torsions:
REMARK  status: ('A' for Active; 'I' for Inactive)
REMARK    1  A    between atoms: C_1  and  C_2
REMARK    2  A    between atoms: C_2  and  C_3
REMARK    3  A    between atoms: C_7  and  C_8
REMARK    4  A    between atoms: C_9  and  N_10
REMARK    5  A    between atoms: N_10  and  C_11
REMARK    6  A    between atoms: C_12  and  C_13
REMARK    7  A    between atoms: C_16  and  N_17
REMARK                            x       y       z     vdW  Elec       q    Type
REMARK                         _______ _______ _______ _____ _____    ______ ____
ROOT
ATOM      1  C   UNL     1       3.497   5.814  19.385  0.00  0.00    +0.000 A 
ATOM      2  C   UNL     1       2.365   6.459  19.872  0.00  0.00    +0.000 A 
ATOM      3  N   UNL     1       1.656   5.644  20.728  0.00  0.00    +0.000 NA
ATOM      4  C   UNL     1       2.334   4.522  20.811  0.00  0.00    +0.000 A 
ATOM      5  N   UNL     1       1.990   3.363  21.467  0.00  0.00    +0.000 NA
ATOM      6  C   UNL     1       2.844   2.394  21.411  0.00  0.00    +0.000 A 
ATOM      7  C   UNL     1       4.172   2.424  20.724  0.00  0.00    +0.000 A 
ATOM      8  C   UNL     1       4.443   3.563  20.070  0.00  0.00    +0.000 A 
ATOM      9  N   UNL     1       3.514   4.607  20.079  0.00  0.00    +0.000 N 
ENDROOT
BRANCH   2  10
ATOM     10  C   UNL     1       1.866   7.758  19.453  0.00  0.00    +0.000 A 
ATOM     11  C   UNL     1       2.185   8.225  18.177  0.00  0.00    +0.000 A 
ATOM     12  C   UNL     1       1.975   9.569  17.843  0.00  0.00    +0.000 A 
ATOM     13  C   UNL     1       1.456  10.480  18.771  0.00  0.00    +0.000 A 
ATOM     14  C   UNL     1       1.042   9.964  20.005  0.00  0.00    +0.000 A 
ATOM     15  C   UNL     1       1.201   8.613  20.327  0.00  0.00    +0.000 A 
BRANCH  13  16
ATOM     16  N   UNL     1       1.321  11.830  18.511  0.00  0.00    +0.000 N 
ATOM     17  C   UNL     1       2.480  12.696  18.269  0.00  0.00    +0.000 C 
ATOM     18  C   UNL     1       2.715  13.646  19.449  0.00  0.00    +0.000 C 
ATOM     19  O   UNL     1       1.533  14.404  19.754  0.00  0.00    +0.000 OA
ATOM     20  C   UNL     1       0.461  13.519  20.117  0.00  0.00    +0.000 C 
ATOM     21  C   UNL     1       0.113  12.538  18.983  0.00  0.00    +0.000 C 
ENDBRANCH  13  16
ENDBRANCH   2  10
BRANCH   1  22
ATOM     22  N   UNL     1       4.478   6.103  18.482  0.00  0.00    +0.000 N 
ATOM     23  H   UNL     1       4.791   7.069  18.486  0.00  0.00    +0.000 HD
BRANCH  22  30
ATOM     24  C   UNL     1       4.372   4.374  16.615  0.00  0.00    +0.000 A 
ATOM     25  C   UNL     1       5.071   3.764  15.540  0.00  0.00    +0.000 A 
ATOM     26  C   UNL     1       6.364   4.129  15.191  0.00  0.00    +0.000 A 
ATOM     27  C   UNL     1       6.985   5.154  15.878  0.00  0.00    +0.000 A 
ATOM     28  C   UNL     1       6.329   5.804  16.937  0.00  0.00    +0.000 A 
ATOM     29  C   UNL     1       7.052   6.982  17.552  0.00  0.00    +0.000 C 
ATOM     30  C   UNL     1       5.018   5.400  17.360  0.00  0.00    +0.000 A 
BRANCH  24  32
ATOM     31  C   UNL     1       2.770   2.449  17.258  0.00  0.00    +0.000 C 
ATOM     32  C   UNL     1       2.944   3.894  16.795  0.00  0.00    +0.000 C 
ENDBRANCH  24  32
ENDBRANCH  22  30
ENDBRANCH   1  22
TORSDOF 5
ENDMDL
MODEL 4
REMARK VINA RESULT:      -7.7      3.119      9.595
REMARK  Name = 
REMARK  7 active torsions:
REMARK  status: ('A' for Active; 'I' for Inactive)
REMARK    1  A    between atoms: C_1  and  C_2
REMARK    2  A    between atoms: C_2  and  C_3
REMARK    3  A    between atoms: C_7  and  C_8
REMARK    4  A    between atoms: C_9  and  N_10
REMARK    5  A    between atoms: N_10  and  C_11
REMARK    6  A    between atoms: C_12  and  C_13
REMARK    7  A    between atoms: C_16  and  N_17
REMARK                            x       y       z     vdW  Elec       q    Type
REMARK                         _______ _______ _______ _____ _____    ______ ____
ROOT
ATOM      1  C   UNL     1       3.493   5.898  19.211  0.00  0.00    +0.000 A 
ATOM      2  C   UNL     1       2.436   6.513  19.874  0.00  0.00    +0.000 A 
ATOM      3  N   UNL     1       1.838   5.652  20.768  0.00  0.00    +0.000 NA
ATOM      4  C   UNL     1       2.518   4.529  20.704  0.00  0.00    +0.000 A 
ATOM      5  N   UNL     1       2.256   3.336  21.335  0.00  0.00    +0.000 NA
ATOM      6  C   UNL     1       3.092   2.374  21.119  0.00  0.00    +0.000 A 
ATOM      7  C   UNL     1       4.321   2.444  20.270  0.00  0.00    +0.000 A 
ATOM      8  C   UNL     1       4.510   3.618  19.649  0.00  0.00    +0.000 A 
ATOM      9  N   UNL     1       3.594   4.656  19.832  0.00  0.00    +0.000 N 
ENDROOT
BRANCH   2  10
ATOM     10  C   UNL     1       1.892   7.832  19.592  0.00  0.00    +0.000 A 
ATOM     11  C   UNL     1       1.212   8.512  20.603  0.00  0.00    +0.000 A 
ATOM     12  C   UNL     1       0.435   9.637  20.299  0.00  0.00    +0.000 A 
ATOM     13  C   UNL     1       0.307  10.103  18.984  0.00  0.00    +0.000 A 
ATOM     14  C   UNL     1       1.087   9.472  18.007  0.00  0.00    +0.000 A 
ATOM     15  C   UNL     1       1.905   8.380  18.313  0.00  0.00    +0.000 A 
BRANCH  13  16
ATOM     16  N   UNL     1      -0.522  11.150  18.630  0.00  0.00    +0.000 N 
ATOM     17  C   UNL     1      -0.764  12.288  19.523  0.00  0.00    +0.000 C 
ATOM     18  C   UNL     1      -2.188  12.252  20.089  0.00  0.00    +0.000 C 
ATOM     19  O   UNL     1      -3.167  12.177  19.038  0.00  0.00    +0.000 OA
ATOM     20  C   UNL     1      -2.974  10.977  18.272  0.00  0.00    +0.000 C 
ATOM     21  C   UNL     1      -1.578  10.924  17.623  0.00  0.00    +0.000 C 
ENDBRANCH  13  16
ENDBRANCH   2  10
BRANCH   1  22
ATOM     22  N   UNL     1       4.351   6.239  18.206  0.00  0.00    +0.000 N 
ATOM     23  H   UNL     1       4.239   7.183  17.851  0.00  0.00    +0.000 HD
BRANCH  22  30
ATOM     24  C   UNL     1       6.654   5.602  17.323  0.00  0.00    +0.000 A 
ATOM     25  C   UNL     1       7.376   4.786  16.413  0.00  0.00    +0.000 A 
ATOM     26  C   UNL     1       6.751   3.880  15.568  0.00  0.00    +0.000 A 
ATOM     27  C   UNL     1       5.380   3.725  15.640  0.00  0.00    +0.000 A 
ATOM     28  C   UNL     1       4.620   4.494  16.538  0.00  0.00    +0.000 A 
ATOM     29  C   UNL     1       3.144   4.172  16.615  0.00  0.00    +0.000 C 
ATOM     30  C   UNL     1       5.236   5.485  17.375  0.00  0.00    +0.000 A 
BRANCH  24  32
ATOM     31  C   UNL     1       7.814   7.882  17.699  0.00  0.00    +0.000 C 
ATOM     32  C   UNL     1       7.518   6.475  18.214  0.00  0.00    +0.000 C 
ENDBRANCH  24  32
ENDBRANCH  22  30
ENDBRANCH   1  22
TORSDOF 5
ENDMDL
MODEL 5
REMARK VINA RESULT:      -7.6      0.532      2.058
REMARK  Name = 
REMARK  7 active torsions:
REMARK  status: ('A' for Active; 'I' for Inactive)
REMARK    1  A    between atoms: C_1  and  C_2
REMARK    2  A    between atoms: C_2  and  C_3
REMARK    3  A    between atoms: C_7  and  C_8
REMARK    4  A    between atoms: C_9  and  N_10
REMARK    5  A    between atoms: N_10  and  C_11
REMARK    6  A    between atoms: C_12  and  C_13
REMARK    7  A    between atoms: C_16  and  N_17
REMARK                            x       y       z     vdW  Elec       q    Type
REMARK                         _______ _______ _______ _____ _____    ______ ____
ROOT
ATOM      1  C   UNL     1      -0.251  11.855  19.432  0.00  0.00    +0.000 A 
ATOM      2  C   UNL     1       0.981  11.262  19.177  0.00  0.00    +0.000 A 
ATOM      3  N   UNL     1       1.928  12.204  18.837  0.00  0.00    +0.000 NA
ATOM      4  C   UNL     1       1.325  13.370  18.906  0.00  0.00    +0.000 A 
ATOM      5  N   UNL     1       1.819  14.608  18.568  0.00  0.00    +0.000 NA
ATOM      6  C   UNL     1       1.026  15.613  18.744  0.00  0.00    +0.000 A 
ATOM      7  C   UNL     1      -0.362  15.557  19.298  0.00  0.00    +0.000 A 
ATOM      8  C   UNL     1      -0.809  14.324  19.577  0.00  0.00    +0.000 A 
ATOM      9  N   UNL     1       0.016  13.219  19.352  0.00  0.00    +0.000 N 
ENDROOT
BRANCH   2  10
ATOM     10  C   UNL     1       1.255   9.836  19.113  0.00  0.00    +0.000 A 
ATOM     11  C   UNL     1       1.137   9.072  20.276  0.00  0.00    +0.000 A 
ATOM     12  C   UNL     1       1.661   7.775  20.326  0.00  0.00    +0.000 A 
ATOM     13  C   UNL     1       2.324   7.212  19.228  0.00  0.00    +0.000 A 
ATOM     14  C   UNL     1       2.331   7.954  18.041  0.00  0.00    +0.000 A 
ATOM     15  C   UNL     1       1.764   9.230  17.969  0.00  0.00    +0.000 A 
BRANCH  13  16
ATOM     16  N   UNL     1       2.936   5.974  19.268  0.00  0.00    +0.000 N 
ATOM     17  C   UNL     1       3.523   5.357  18.074  0.00  0.00    +0.000 C 
ATOM     18  C   UNL     1       2.684   4.165  17.599  0.00  0.00    +0.000 C 
ATOM     19  O   UNL     1       2.487   3.210  18.655  0.00  0.00    +0.000 OA
ATOM     20  C   UNL     1       1.787   3.825  19.749  0.00  0.00    +0.000 C 
ATOM     21  C   UNL     1       2.562   5.020  20.333  0.00  0.00    +0.000 C 
ENDBRANCH  13  16
ENDBRANCH   2  10
BRANCH   1  22
ATOM     22  N   UNL     1      -1.510  11.415  19.722  0.00  0.00    +0.000 N 
ATOM     23  H   UNL     1      -1.561  10.731  20.471  0.00  0.00    +0.000 HD
BRANCH  22  30
ATOM     24  C   UNL     1      -3.871  12.332  19.460  0.00  0.00    +0.000 A 
ATOM     25  C   UNL     1      -5.060  12.306  18.684  0.00  0.00    +0.000 A 
ATOM     26  C   UNL     1      -5.189  11.523  17.546  0.00  0.00    +0.000 A 
ATOM     27  C   UNL     1      -4.110  10.774  17.116  0.00  0.00    +0.000 A 
ATOM     28  C   UNL     1      -2.903  10.780  17.836  0.00  0.00    +0.000 A 
ATOM     29  C   UNL     1      -1.752  10.014  17.225  0.00  0.00    +0.000 C 
ATOM     30  C   UNL     1      -2.768  11.530  19.054  0.00  0.00    +0.000 A 
BRANCH  24  32
ATOM     31  C   UNL     1      -4.006  12.689  22.017  0.00  0.00    +0.000 C 
ATOM     32  C   UNL     1      -3.896  13.305  20.624  0.00  0.00    +0.000 C 
ENDBRANCH  24  32
ENDBRANCH  22  30
ENDBRANCH   1  22
TORSDOF 5
ENDMDL
MODEL 6
REMARK VINA RESULT:      -7.5      0.878      2.078
REMARK  Name = 
REMARK  7 active torsions:
REMARK  status: ('A' for Active; 'I' for Inactive)
REMARK    1  A    between atoms: C_1  and  C_2
REMARK    2  A    between atoms: C_2  and  C_3
REMARK    3  A    between atoms: C_7  and  C_8
REMARK    4  A    between atoms: C_9  and  N_10
REMARK    5  A    between atoms: N_10  and  C_11
REMARK    6  A    between atoms: C_12  and  C_13
REMARK    7  A    between atoms: C_16  and  N_17
REMARK                            x       y       z     vdW  Elec       q    Type
REMARK                         _______ _______ _______ _____ _____    ______ ____
ROOT
ATOM      1  C   UNL     1       0.030  12.437  18.604  0.00  0.00    +0.000 A 
ATOM      2  C   UNL     1       1.017  11.690  19.239  0.00  0.00    +0.000 A 
ATOM      3  N   UNL     1       1.978  12.504  19.798  0.00  0.00    +0.000 NA
ATOM      4  C   UNL     1       1.596  13.739  19.556  0.00  0.00    +0.000 A 
ATOM      5  N   UNL     1       2.266  14.908  19.829  0.00  0.00    +0.000 NA
ATOM      6  C   UNL     1       1.665  16.006  19.505  0.00  0.00    +0.000 A 
ATOM      7  C   UNL     1       0.309  16.122  18.885  0.00  0.00    +0.000 A 
ATOM      8  C   UNL     1      -0.285  14.953  18.606  0.00  0.00    +0.000 A 
ATOM      9  N   UNL     1       0.366  13.754  18.907  0.00  0.00    +0.000 N 
ENDROOT
BRANCH   2  10
ATOM     10  C   UNL     1       1.151  10.243  19.216  0.00  0.00    +0.000 A 
ATOM     11  C   UNL     1       0.951   9.527  20.398  0.00  0.00    +0.000 A 
ATOM     12  C   UNL     1       1.347   8.187  20.488  0.00  0.00    +0.000 A 
ATOM     13  C   UNL     1       1.959   7.532  19.412  0.00  0.00    +0.000 A 
ATOM     14  C   UNL     1       2.047   8.236  18.206  0.00  0.00    +0.000 A 
ATOM     15  C   UNL     1       1.607   9.558  18.093  0.00  0.00    +0.000 A 
BRANCH  13  16
ATOM     16  N   UNL     1       2.447   6.241  19.491  0.00  0.00    +0.000 N 
ATOM     17  C   UNL     1       2.834   5.481  18.299  0.00  0.00    +0.000 C 
ATOM     18  C   UNL     1       1.835   4.354  18.015  0.00  0.00    +0.000 C 
ATOM     19  O   UNL     1       1.664   3.504  19.162  0.00  0.00    +0.000 OA
ATOM     20  C   UNL     1       1.155   4.267  20.267  0.00  0.00    +0.000 C 
ATOM     21  C   UNL     1       2.104   5.413  20.665  0.00  0.00    +0.000 C 
ENDBRANCH  13  16
ENDBRANCH   2  10
BRANCH   1  22
ATOM     22  N   UNL     1      -1.073  12.163  17.848  0.00  0.00    +0.000 N 
ATOM     23  H   UNL     1      -0.957  12.319  16.852  0.00  0.00    +0.000 HD
BRANCH  22  30
ATOM     24  C   UNL     1      -3.109  12.271  19.375  0.00  0.00    +0.000 A 
ATOM     25  C   UNL     1      -4.477  11.924  19.532  0.00  0.00    +0.000 A 
ATOM     26  C   UNL     1      -5.190  11.249  18.552  0.00  0.00    +0.000 A 
ATOM     27  C   UNL     1      -4.570  10.941  17.356  0.00  0.00    +0.000 A 
ATOM     28  C   UNL     1      -3.223  11.279  17.142  0.00  0.00    +0.000 A 
ATOM     29  C   UNL     1      -2.670  10.994  15.764  0.00  0.00    +0.000 C 
ATOM     30  C   UNL     1      -2.444  11.917  18.167  0.00  0.00    +0.000 A 
BRANCH  24  32
ATOM     31  C   UNL     1      -1.901  12.264  21.662  0.00  0.00    +0.000 C 
ATOM     32  C   UNL     1      -2.522  13.071  20.524  0.00  0.00    +0.000 C 
ENDBRANCH  24  32
ENDBRANCH  22  30
ENDBRANCH   1  22
TORSDOF 5
ENDMDL
MODEL 7
REMARK VINA RESULT:      -7.5      0.859      1.207
REMARK  Name = 
REMARK  7 active torsions:
REMARK  status: ('A' for Active; 'I' for Inactive)
REMARK    1  A    between atoms: C_1  and  C_2
REMARK    2  A    between atoms: C_2  and  C_3
REMARK    3  A    between atoms: C_7  and  C_8
REMARK    4  A    between atoms: C_9  and  N_10
REMARK    5  A    between atoms: N_10  and  C_11
REMARK    6  A    between atoms: C_12  and  C_13
REMARK    7  A    between atoms: C_16  and  N_17
REMARK                            x       y       z     vdW  Elec       q    Type
REMARK                         _______ _______ _______ _____ _____    ______ ____
ROOT
ATOM      1  C   UNL     1       0.004  11.991  19.498  0.00  0.00    +0.000 A 
ATOM      2  C   UNL     1       1.167  11.353  19.080  0.00  0.00    +0.000 A 
ATOM      3  N   UNL     1       2.140  12.265  18.733  0.00  0.00    +0.000 NA
ATOM      4  C   UNL     1       1.623  13.453  18.955  0.00  0.00    +0.000 A 
ATOM      5  N   UNL     1       2.165  14.686  18.676  0.00  0.00    +0.000 NA
ATOM      6  C   UNL     1       1.457  15.715  19.008  0.00  0.00    +0.000 A 
ATOM      7  C   UNL     1       0.123  15.691  19.683  0.00  0.00    +0.000 A 
ATOM      8  C   UNL     1      -0.377  14.465  19.900  0.00  0.00    +0.000 A 
ATOM      9  N   UNL     1       0.351  13.339  19.507  0.00  0.00    +0.000 N 
ENDROOT
BRANCH   2  10
ATOM     10  C   UNL     1       1.340   9.925  18.873  0.00  0.00    +0.000 A 
ATOM     11  C   UNL     1       1.410   9.084  19.985  0.00  0.00    +0.000 A 
ATOM     12  C   UNL     1       1.858   7.765  19.847  0.00  0.00    +0.000 A 
ATOM     13  C   UNL     1       2.259   7.256  18.604  0.00  0.00    +0.000 A 
ATOM     14  C   UNL     1       2.074   8.082  17.489  0.00  0.00    +0.000 A 
ATOM     15  C   UNL     1       1.578   9.383  17.613  0.00  0.00    +0.000 A 
BRANCH  13  16
ATOM     16  N   UNL     1       2.794   5.992  18.442  0.00  0.00    +0.000 N 
ATOM     17  C   UNL     1       2.186   4.805  19.052  0.00  0.00    +0.000 C 
ATOM     18  C   UNL     1       3.047   4.275  20.204  0.00  0.00    +0.000 C 
ATOM     19  O   UNL     1       4.397   4.027  19.778  0.00  0.00    +0.000 OA
ATOM     20  C   UNL     1       4.997   5.248  19.314  0.00  0.00    +0.000 C 
ATOM     21  C   UNL     1       4.230   5.853  18.124  0.00  0.00    +0.000 C 
ENDBRANCH  13  16
ENDBRANCH   2  10
BRANCH   1  22
ATOM     22  N   UNL     1      -1.250  11.600  19.867  0.00  0.00    +0.000 N 
ATOM     23  H   UNL     1      -1.285  10.978  20.668  0.00  0.00    +0.000 HD
BRANCH  22  30
ATOM     24  C   UNL     1      -2.900  11.111  17.989  0.00  0.00    +0.000 A 
ATOM     25  C   UNL     1      -4.216  11.321  17.500  0.00  0.00    +0.000 A 
ATOM     26  C   UNL     1      -5.156  12.072  18.192  0.00  0.00    +0.000 A 
ATOM     27  C   UNL     1      -4.824  12.599  19.425  0.00  0.00    +0.000 A 
ATOM     28  C   UNL     1      -3.541  12.403  19.964  0.00  0.00    +0.000 A 
ATOM     29  C   UNL     1      -3.313  12.928  21.364  0.00  0.00    +0.000 C 
ATOM     30  C   UNL     1      -2.530  11.687  19.237  0.00  0.00    +0.000 A 
BRANCH  24  32
ATOM     31  C   UNL     1      -2.622   9.813  15.770  0.00  0.00    +0.000 C 
ATOM     32  C   UNL     1      -2.042  10.202  17.128  0.00  0.00    +0.000 C 
ENDBRANCH  24  32
ENDBRANCH  22  30
ENDBRANCH   1  22
TORSDOF 5
ENDMDL
MODEL 8
REMARK VINA RESULT:      -7.4      3.805      9.017
REMARK  Name = 
REMARK  7 active torsions:
REMARK  status: ('A' for Active; 'I' for Inactive)
REMARK    1  A    between atoms: C_1  and  C_2
REMARK    2  A    between atoms: C_2  and  C_3
REMARK    3  A    between atoms: C_7  and  C_8
REMARK    4  A    between atoms: C_9  and  N_10
REMARK    5  A    between atoms: N_10  and  C_11
REMARK    6  A    between atoms: C_12  and  C_13
REMARK    7  A    between atoms: C_16  and  N_17
REMARK                            x       y       z     vdW  Elec       q    Type
REMARK                         _______ _______ _______ _____ _____    ______ ____
ROOT
ATOM      1  C   UNL     1       3.627   5.282  17.260  0.00  0.00    +0.000 A 
ATOM      2  C   UNL     1       3.715   6.666  17.366  0.00  0.00    +0.000 A 
ATOM      3  N   UNL     1       4.739   7.163  16.589  0.00  0.00    +0.000 NA
ATOM      4  C   UNL     1       5.270   6.127  15.978  0.00  0.00    +0.000 A 
ATOM      5  N   UNL     1       6.380   6.091  15.167  0.00  0.00    +0.000 NA
ATOM      6  C   UNL     1       6.692   4.940  14.669  0.00  0.00    +0.000 A 
ATOM      7  C   UNL     1       5.950   3.657  14.872  0.00  0.00    +0.000 A 
ATOM      8  C   UNL     1       4.897   3.740  15.699  0.00  0.00    +0.000 A 
ATOM      9  N   UNL     1       4.570   4.965  16.285  0.00  0.00    +0.000 N 
ENDROOT
BRANCH   2  10
ATOM     10  C   UNL     1       2.956   7.511  18.273  0.00  0.00    +0.000 A 
ATOM     11  C   UNL     1       2.711   7.060  19.571  0.00  0.00    +0.000 A 
ATOM     12  C   UNL     1       1.756   7.697  20.372  0.00  0.00    +0.000 A 
ATOM     13  C   UNL     1       1.015   8.787  19.899  0.00  0.00    +0.000 A 
ATOM     14  C   UNL     1       1.357   9.289  18.637  0.00  0.00    +0.000 A 
ATOM     15  C   UNL     1       2.346   8.689  17.852  0.00  0.00    +0.000 A 
BRANCH  13  16
ATOM     16  N   UNL     1       0.000   9.384  20.623  0.00  0.00    +0.000 N 
ATOM     17  C   UNL     1      -0.328  10.805  20.478  0.00  0.00    +0.000 C 
ATOM     18  C   UNL     1       0.094  11.599  21.720  0.00  0.00    +0.000 C 
ATOM     19  O   UNL     1      -0.469  11.037  22.917  0.00  0.00    +0.000 OA
ATOM     20  C   UNL     1      -0.012   9.686  23.089  0.00  0.00    +0.000 C 
ATOM     21  C   UNL     1      -0.415   8.784  21.908  0.00  0.00    +0.000 C 
ENDBRANCH  13  16
ENDBRANCH   2  10
BRANCH   1  22
ATOM     22  N   UNL     1       2.882   4.299  17.843  0.00  0.00    +0.000 N 
ATOM     23  H   UNL     1       1.978   4.136  17.412  0.00  0.00    +0.000 HD
BRANCH  22  30
ATOM     24  C   UNL     1       4.194   3.204  19.731  0.00  0.00    +0.000 A 
ATOM     25  C   UNL     1       4.113   2.477  20.948  0.00  0.00    +0.000 A 
ATOM     26  C   UNL     1       2.901   2.123  21.524  0.00  0.00    +0.000 A 
ATOM     27  C   UNL     1       1.724   2.529  20.924  0.00  0.00    +0.000 A 
ATOM     28  C   UNL     1       1.750   3.268  19.729  0.00  0.00    +0.000 A 
ATOM     29  C   UNL     1       0.414   3.755  19.213  0.00  0.00    +0.000 C 
ATOM     30  C   UNL     1       2.989   3.589  19.079  0.00  0.00    +0.000 A 
BRANCH  24  32
ATOM     31  C   UNL     1       6.028   5.014  19.510  0.00  0.00    +0.000 C 
ATOM     32  C   UNL     1       5.605   3.562  19.300  0.00  0.00    +0.000 C 
ENDBRANCH  24  32
ENDBRANCH  22  30
ENDBRANCH   1  22
TORSDOF 5
ENDMDL
MODEL 9
REMARK VINA RESULT:      -7.4      3.399      9.675
REMARK  Name = 
REMARK  7 active torsions:
REMARK  status: ('A' for Active; 'I' for Inactive)
REMARK    1  A    between atoms: C_1  and  C_2
REMARK    2  A    between atoms: C_2  and  C_3
REMARK    3  A    between atoms: C_7  and  C_8
REMARK    4  A    between atoms: C_9  and  N_10
REMARK    5  A    between atoms: N_10  and  C_11
REMARK    6  A    between atoms: C_12  and  C_13
REMARK    7  A    between atoms: C_16  and  N_17
REMARK                            x       y       z     vdW  Elec       q    Type
REMARK                         _______ _______ _______ _____ _____    ______ ____
ROOT
ATOM      1  C   UNL     1       3.476   5.865  19.271  0.00  0.00    +0.000 A 
ATOM      2  C   UNL     1       2.361   6.458  19.854  0.00  0.00    +0.000 A 
ATOM      3  N   UNL     1       1.725   5.588  20.713  0.00  0.00    +0.000 NA
ATOM      4  C   UNL     1       2.434   4.482  20.704  0.00  0.00    +0.000 A 
ATOM      5  N   UNL     1       2.158   3.286  21.326  0.00  0.00    +0.000 NA
ATOM      6  C   UNL     1       3.030   2.344  21.175  0.00  0.00    +0.000 A 
ATOM      7  C   UNL     1       4.313   2.440  20.411  0.00  0.00    +0.000 A 
ATOM      8  C   UNL     1       4.516   3.613  19.795  0.00  0.00    +0.000 A 
ATOM      9  N   UNL     1       3.564   4.630  19.907  0.00  0.00    +0.000 N 
ENDROOT
BRANCH   2  10
ATOM     10  C   UNL     1       1.806   7.761  19.525  0.00  0.00    +0.000 A 
ATOM     11  C   UNL     1       2.036   8.292  18.255  0.00  0.00    +0.000 A 
ATOM     12  C   UNL     1       1.774   9.643  17.996  0.00  0.00    +0.000 A 
ATOM     13  C   UNL     1       1.289  10.498  18.994  0.00  0.00    +0.000 A 
ATOM     14  C   UNL     1       0.962   9.917  20.225  0.00  0.00    +0.000 A 
ATOM     15  C   UNL     1       1.173   8.557  20.475  0.00  0.00    +0.000 A 
BRANCH  13  16
ATOM     16  N   UNL     1       1.106  11.854  18.805  0.00  0.00    +0.000 N 
ATOM     17  C   UNL     1       2.170  12.718  18.285  0.00  0.00    +0.000 C 
ATOM     18  C   UNL     1       2.717  13.641  19.381  0.00  0.00    +0.000 C 
ATOM     19  O   UNL     1       1.664  14.400  19.999  0.00  0.00    +0.000 OA
ATOM     20  C   UNL     1       0.714  13.512  20.612  0.00  0.00    +0.000 C 
ATOM     21  C   UNL     1       0.071  12.558  19.590  0.00  0.00    +0.000 C 
ENDBRANCH  13  16
ENDBRANCH   2  10
BRANCH   1  22
ATOM     22  N   UNL     1       4.392   6.220  18.324  0.00  0.00    +0.000 N 
ATOM     23  H   UNL     1       4.393   7.205  18.080  0.00  0.00    +0.000 HD
BRANCH  22  30
ATOM     24  C   UNL     1       6.624   5.572  17.281  0.00  0.00    +0.000 A 
ATOM     25  C   UNL     1       7.274   4.766  16.311  0.00  0.00    +0.000 A 
ATOM     26  C   UNL     1       6.583   3.886  15.489  0.00  0.00    +0.000 A 
ATOM     27  C   UNL     1       5.218   3.748  15.646  0.00  0.00    +0.000 A 
ATOM     28  C   UNL     1       4.528   4.508  16.606  0.00  0.00    +0.000 A 
ATOM     29  C   UNL     1       3.056   4.204  16.772  0.00  0.00    +0.000 C 
ATOM     30  C   UNL     1       5.211   5.473  17.422  0.00  0.00    +0.000 A 
BRANCH  24  32
ATOM     31  C   UNL     1       7.762   7.859  17.682  0.00  0.00    +0.000 C 
ATOM     32  C   UNL     1       7.555   6.415  18.133  0.00  0.00    +0.000 C 
ENDBRANCH  24  32
ENDBRANCH  22  30
ENDBRANCH   1  22
TORSDOF 5
ENDMDL
