MODEL 1
REMARK VINA RESULT:      -7.1      0.000      0.000
REMARK  Name = 
REMARK  10 active torsions:
REMARK  status: ('A' for Active; 'I' for Inactive)
REMARK    1  A    between atoms: C_1  and  C_2
REMARK    2  A    between atoms: C_7  and  N_8
REMARK    3  A    between atoms: C_9  and  C_10
REMARK    4  A    between atoms: C_13  and  O_14
REMARK    5  A    between atoms: O_14  and  C_15
REMARK    6  A    between atoms: C_15  and  C_16
REMARK    7  A    between atoms: N_18  and  N_19
REMARK    8  A    between atoms: N_19  and  C_20
REMARK    9  A    between atoms: C_20  and  N_22
REMARK   10  A    between atoms: N_22  and  N_23
REMARK                            x       y       z     vdW  Elec       q    Type
REMARK                         _______ _______ _______ _____ _____    ______ ____
ROOT
ATOM      1  N   UNL     1       2.526   6.850  19.293  0.00  0.00    +0.000 N 
ATOM      2  C   UNL     1       2.520   7.950  18.452  0.00  0.00    +0.000 A 
ATOM      3  C   UNL     1       3.228   7.909  17.112  0.00  0.00    +0.000 C 
ATOM      4  N   UNL     1       1.893   9.057  18.721  0.00  0.00    +0.000 NA
ATOM      5  C   UNL     1       1.181   9.172  19.927  0.00  0.00    +0.000 A 
ATOM      6  C   UNL     1       0.534  10.381  20.261  0.00  0.00    +0.000 A 
ATOM      7  C   UNL     1      -0.133  10.506  21.488  0.00  0.00    +0.000 A 
ATOM      8  C   UNL     1      -0.207   9.422  22.365  0.00  0.00    +0.000 A 
ATOM      9  C   UNL     1       0.385   8.216  22.021  0.00  0.00    +0.000 A 
ATOM     10  C   UNL     1       1.081   8.101  20.810  0.00  0.00    +0.000 A 
ATOM     11  C   UNL     1       1.738   6.834  20.449  0.00  0.00    +0.000 A 
ATOM     12  O   UNL     1       1.567   5.863  21.185  0.00  0.00    +0.000 OA
ENDROOT
BRANCH   1  19
ATOM     13  C   UNL     1       1.290   4.701  17.644  0.00  0.00    +0.000 C 
ATOM     14  C   UNL     1       2.666   4.605  18.242  0.00  0.00    +0.000 A 
ATOM     15  C   UNL     1       3.431   3.452  17.990  0.00  0.00    +0.000 A 
ATOM     16  C   UNL     1       4.753   3.356  18.426  0.00  0.00    +0.000 A 
ATOM     17  C   UNL     1       5.336   4.413  19.116  0.00  0.00    +0.000 A 
ATOM     18  C   UNL     1       4.588   5.556  19.393  0.00  0.00    +0.000 A 
ATOM     19  C   UNL     1       3.245   5.655  18.984  0.00  0.00    +0.000 A 
ENDBRANCH   1  19
BRANCH   6  20
ATOM     20  O   UNL     1       0.633  11.409  19.353  0.00  0.00    +0.000 OA
BRANCH  20  21
ATOM     21  C   UNL     1      -0.242  12.515  19.548  0.00  0.00    +0.000 C 
BRANCH  21  22
ATOM     22  C   UNL     1      -1.576  12.383  18.819  0.00  0.00    +0.000 C 
ATOM     23  O   UNL     1      -2.660  12.369  19.402  0.00  0.00    +0.000 OA
ATOM     24  N   UNL     1      -1.460  12.240  17.453  0.00  0.00    +0.000 N 
ATOM     25  H   UNL     1      -0.548  12.168  17.000  0.00  0.00    +0.000 HD
BRANCH  24  26
ATOM     26  N   UNL     1      -2.595  11.876  16.726  0.00  0.00    +0.000 N 
ATOM     27  H   UNL     1      -3.197  12.647  16.443  0.00  0.00    +0.000 HD
BRANCH  26  28
ATOM     28  C   UNL     1      -2.722  10.623  16.148  0.00  0.00    +0.000 C 
ATOM     29  S   UNL     1      -3.434  10.336  14.655  0.00  0.00    +0.000 S 
BRANCH  28  30
ATOM     30  N   UNL     1      -2.156   9.637  16.962  0.00  0.00    +0.000 N 
ATOM     31  H   UNL     1      -2.694   9.388  17.791  0.00  0.00    +0.000 HD
BRANCH  30  32
ATOM     32  N   UNL     1      -0.757   9.463  17.053  0.00  0.00    +0.000 NA
ATOM     33  H   UNL     1      -0.577   8.483  17.310  0.00  0.00    +0.000 HD
ATOM     34  H   UNL     1      -0.419  10.006  17.851  0.00  0.00    +0.000 HD
ENDBRANCH  30  32
ENDBRANCH  28  30
ENDBRANCH  26  28
ENDBRANCH  24  26
ENDBRANCH  21  22
ENDBRANCH  20  21
ENDBRANCH   6  20
TORSDOF 8
ENDMDL
MODEL 2
REMARK VINA RESULT:      -7.0      1.214      1.326
REMARK  Name = 
REMARK  10 active torsions:
REMARK  status: ('A' for Active; 'I' for Inactive)
REMARK    1  A    between atoms: C_1  and  C_2
REMARK    2  A    between atoms: C_7  and  N_8
REMARK    3  A    between atoms: C_9  and  C_10
REMARK    4  A    between atoms: C_13  and  O_14
REMARK    5  A    between atoms: O_14  and  C_15
REMARK    6  A    between atoms: C_15  and  C_16
REMARK    7  A    between atoms: N_18  and  N_19
REMARK    8  A    between atoms: N_19  and  C_20
REMARK    9  A    between atoms: C_20  and  N_22
REMARK   10  A    between atoms: N_22  and  N_23
REMARK                            x       y       z     vdW  Elec       q    Type
REMARK                         _______ _______ _______ _____ _____    ______ ____
ROOT
ATOM      1  N   UNL     1       2.572   6.723  19.304  0.00  0.00    +0.000 N 
ATOM      2  C   UNL     1       2.583   7.840  18.486  0.00  0.00    +0.000 A 
ATOM      3  C   UNL     1       3.300   7.820  17.150  0.00  0.00    +0.000 C 
ATOM      4  N   UNL     1       1.963   8.948  18.773  0.00  0.00    +0.000 NA
ATOM      5  C   UNL     1       1.244   9.045  19.976  0.00  0.00    +0.000 A 
ATOM      6  C   UNL     1       0.606  10.253  20.329  0.00  0.00    +0.000 A 
ATOM      7  C   UNL     1      -0.068  10.359  21.555  0.00  0.00    +0.000 A 
ATOM      8  C   UNL     1      -0.159   9.259  22.409  0.00  0.00    +0.000 A 
ATOM      9  C   UNL     1       0.425   8.054  22.044  0.00  0.00    +0.000 A 
ATOM     10  C   UNL     1       1.128   7.957  20.836  0.00  0.00    +0.000 A 
ATOM     11  C   UNL     1       1.776   6.691  20.454  0.00  0.00    +0.000 A 
ATOM     12  O   UNL     1       1.591   5.707  21.169  0.00  0.00    +0.000 OA
ENDROOT
BRANCH   1  19
ATOM     13  C   UNL     1       1.305   4.591  17.657  0.00  0.00    +0.000 C 
ATOM     14  C   UNL     1       2.689   4.486  18.235  0.00  0.00    +0.000 A 
ATOM     15  C   UNL     1       3.447   3.333  17.963  0.00  0.00    +0.000 A 
ATOM     16  C   UNL     1       4.774   3.229  18.380  0.00  0.00    +0.000 A 
ATOM     17  C   UNL     1       5.371   4.279  19.069  0.00  0.00    +0.000 A 
ATOM     18  C   UNL     1       4.631   5.422  19.365  0.00  0.00    +0.000 A 
ATOM     19  C   UNL     1       3.283   5.529  18.976  0.00  0.00    +0.000 A 
ENDBRANCH   1  19
BRANCH   6  20
ATOM     20  O   UNL     1       0.720  11.298  19.444  0.00  0.00    +0.000 OA
BRANCH  20  21
ATOM     21  C   UNL     1      -0.487  11.958  19.081  0.00  0.00    +0.000 C 
BRANCH  21  22
ATOM     22  C   UNL     1      -1.280  11.240  17.991  0.00  0.00    +0.000 C 
ATOM     23  O   UNL     1      -1.354  10.014  17.914  0.00  0.00    +0.000 OA
ATOM     24  N   UNL     1      -1.873  12.086  17.077  0.00  0.00    +0.000 N 
ATOM     25  H   UNL     1      -1.727  13.095  17.111  0.00  0.00    +0.000 HD
BRANCH  24  26
ATOM     26  N   UNL     1      -2.416  11.531  15.917  0.00  0.00    +0.000 N 
ATOM     27  H   UNL     1      -1.740  11.285  15.195  0.00  0.00    +0.000 HD
BRANCH  26  28
ATOM     28  C   UNL     1      -3.712  11.044  15.876  0.00  0.00    +0.000 C 
ATOM     29  S   UNL     1      -4.960  11.588  16.858  0.00  0.00    +0.000 S 
BRANCH  28  30
ATOM     30  N   UNL     1      -3.846  10.061  14.890  0.00  0.00    +0.000 N 
ATOM     31  H   UNL     1      -3.807   9.098  15.221  0.00  0.00    +0.000 HD
BRANCH  30  32
ATOM     32  N   UNL     1      -3.421  10.280  13.560  0.00  0.00    +0.000 NA
ATOM     33  H   UNL     1      -2.449  10.616  13.591  0.00  0.00    +0.000 HD
ATOM     34  H   UNL     1      -3.954  11.065  13.180  0.00  0.00    +0.000 HD
ENDBRANCH  30  32
ENDBRANCH  28  30
ENDBRANCH  26  28
ENDBRANCH  24  26
ENDBRANCH  21  22
ENDBRANCH  20  21
ENDBRANCH   6  20
TORSDOF 8
ENDMDL
MODEL 3
REMARK VINA RESULT:      -7.0      0.745      1.198
REMARK  Name = 
REMARK  10 active torsions:
REMARK  status: ('A' for Active; 'I' for Inactive)
REMARK    1  A    between atoms: C_1  and  C_2
REMARK    2  A    between atoms: C_7  and  N_8
REMARK    3  A    between atoms: C_9  and  C_10
REMARK    4  A    between atoms: C_13  and  O_14
REMARK    5  A    between atoms: O_14  and  C_15
REMARK    6  A    between atoms: C_15  and  C_16
REMARK    7  A    between atoms: N_18  and  N_19
REMARK    8  A    between atoms: N_19  and  C_20
REMARK    9  A    between atoms: C_20  and  N_22
REMARK   10  A    between atoms: N_22  and  N_23
REMARK                            x       y       z     vdW  Elec       q    Type
REMARK                         _______ _______ _______ _____ _____    ______ ____
ROOT
ATOM      1  N   UNL     1       2.584   6.767  19.203  0.00  0.00    +0.000 N 
ATOM      2  C   UNL     1       2.600   7.810  18.292  0.00  0.00    +0.000 A 
ATOM      3  C   UNL     1       3.305   7.667  16.957  0.00  0.00    +0.000 C 
ATOM      4  N   UNL     1       1.996   8.945  18.488  0.00  0.00    +0.000 NA
ATOM      5  C   UNL     1       1.288   9.154  19.684  0.00  0.00    +0.000 A 
ATOM      6  C   UNL     1       0.667  10.395  19.937  0.00  0.00    +0.000 A 
ATOM      7  C   UNL     1       0.005  10.614  21.154  0.00  0.00    +0.000 A 
ATOM      8  C   UNL     1      -0.091   9.592  22.100  0.00  0.00    +0.000 A 
ATOM      9  C   UNL     1       0.476   8.353  21.836  0.00  0.00    +0.000 A 
ATOM     10  C   UNL     1       1.167   8.145  20.635  0.00  0.00    +0.000 A 
ATOM     11  C   UNL     1       1.797   6.844  20.358  0.00  0.00    +0.000 A 
ATOM     12  O   UNL     1       1.607   5.927  21.156  0.00  0.00    +0.000 OA
ENDROOT
BRANCH   1  19
ATOM     13  C   UNL     1       1.304   4.544  17.691  0.00  0.00    +0.000 C 
ATOM     14  C   UNL     1       2.677   4.457  18.299  0.00  0.00    +0.000 A 
ATOM     15  C   UNL     1       3.418   3.275  18.123  0.00  0.00    +0.000 A 
ATOM     16  C   UNL     1       4.737   3.179  18.568  0.00  0.00    +0.000 A 
ATOM     17  C   UNL     1       5.341   4.265  19.191  0.00  0.00    +0.000 A 
ATOM     18  C   UNL     1       4.617   5.439  19.392  0.00  0.00    +0.000 A 
ATOM     19  C   UNL     1       3.278   5.540  18.974  0.00  0.00    +0.000 A 
ENDBRANCH   1  19
BRANCH   6  20
ATOM     20  O   UNL     1       0.786  11.359  18.964  0.00  0.00    +0.000 OA
BRANCH  20  21
ATOM     21  C   UNL     1      -0.307  12.260  18.826  0.00  0.00    +0.000 C 
BRANCH  21  22
ATOM     22  C   UNL     1      -1.600  11.597  18.359  0.00  0.00    +0.000 C 
ATOM     23  O   UNL     1      -2.678  11.754  18.931  0.00  0.00    +0.000 OA
ATOM     24  N   UNL     1      -1.446  10.774  17.263  0.00  0.00    +0.000 N 
ATOM     25  H   UNL     1      -0.528  10.592  16.857  0.00  0.00    +0.000 HD
BRANCH  24  26
ATOM     26  N   UNL     1      -2.509   9.942  16.906  0.00  0.00    +0.000 N 
ATOM     27  H   UNL     1      -2.674   9.155  17.532  0.00  0.00    +0.000 HD
BRANCH  26  28
ATOM     28  C   UNL     1      -3.463  10.330  15.981  0.00  0.00    +0.000 C 
ATOM     29  S   UNL     1      -3.298  10.159  14.319  0.00  0.00    +0.000 S 
BRANCH  28  30
ATOM     30  N   UNL     1      -4.591  10.858  16.617  0.00  0.00    +0.000 N 
ATOM     31  H   UNL     1      -5.437  10.293  16.555  0.00  0.00    +0.000 HD
BRANCH  30  32
ATOM     32  N   UNL     1      -4.782  12.251  16.755  0.00  0.00    +0.000 NA
ATOM     33  H   UNL     1      -5.590  12.517  16.177  0.00  0.00    +0.000 HD
ATOM     34  H   UNL     1      -3.987  12.726  16.323  0.00  0.00    +0.000 HD
ENDBRANCH  30  32
ENDBRANCH  28  30
ENDBRANCH  26  28
ENDBRANCH  24  26
ENDBRANCH  21  22
ENDBRANCH  20  21
ENDBRANCH   6  20
TORSDOF 8
ENDMDL
MODEL 4
REMARK VINA RESULT:      -6.8      2.856      4.934
REMARK  Name = 
REMARK  10 active torsions:
REMARK  status: ('A' for Active; 'I' for Inactive)
REMARK    1  A    between atoms: C_1  and  C_2
REMARK    2  A    between atoms: C_7  and  N_8
REMARK    3  A    between atoms: C_9  and  C_10
REMARK    4  A    between atoms: C_13  and  O_14
REMARK    5  A    between atoms: O_14  and  C_15
REMARK    6  A    between atoms: C_15  and  C_16
REMARK    7  A    between atoms: N_18  and  N_19
REMARK    8  A    between atoms: N_19  and  C_20
REMARK    9  A    between atoms: C_20  and  N_22
REMARK   10  A    between atoms: N_22  and  N_23
REMARK                            x       y       z     vdW  Elec       q    Type
REMARK                         _______ _______ _______ _____ _____    ______ ____
ROOT
ATOM      1  N   UNL     1       4.300   4.759  17.333  0.00  0.00    +0.000 N 
ATOM      2  C   UNL     1       3.670   5.930  17.721  0.00  0.00    +0.000 A 
ATOM      3  C   UNL     1       3.970   7.243  17.024  0.00  0.00    +0.000 C 
ATOM      4  N   UNL     1       2.769   5.985  18.658  0.00  0.00    +0.000 NA
ATOM      5  C   UNL     1       2.403   4.810  19.334  0.00  0.00    +0.000 A 
ATOM      6  C   UNL     1       1.464   4.856  20.387  0.00  0.00    +0.000 A 
ATOM      7  C   UNL     1       1.140   3.687  21.091  0.00  0.00    +0.000 A 
ATOM      8  C   UNL     1       1.702   2.464  20.726  0.00  0.00    +0.000 A 
ATOM      9  C   UNL     1       2.589   2.404  19.660  0.00  0.00    +0.000 A 
ATOM     10  C   UNL     1       2.939   3.576  18.978  0.00  0.00    +0.000 A 
ATOM     11  C   UNL     1       3.902   3.528  17.865  0.00  0.00    +0.000 A 
ATOM     12  O   UNL     1       4.300   2.425  17.491  0.00  0.00    +0.000 OA
ENDROOT
BRANCH   1  19
ATOM     13  C   UNL     1       7.176   5.113  18.017  0.00  0.00    +0.000 C 
ATOM     14  C   UNL     1       6.668   4.941  16.612  0.00  0.00    +0.000 A 
ATOM     15  C   UNL     1       7.599   4.914  15.559  0.00  0.00    +0.000 A 
ATOM     16  C   UNL     1       7.197   4.646  14.250  0.00  0.00    +0.000 A 
ATOM     17  C   UNL     1       5.858   4.393  13.972  0.00  0.00    +0.000 A 
ATOM     18  C   UNL     1       4.918   4.434  14.999  0.00  0.00    +0.000 A 
ATOM     19  C   UNL     1       5.305   4.731  16.319  0.00  0.00    +0.000 A 
ENDBRANCH   1  19
BRANCH   6  20
ATOM     20  O   UNL     1       0.936   6.088  20.694  0.00  0.00    +0.000 OA
BRANCH  20  21
ATOM     21  C   UNL     1       1.829   7.036  21.267  0.00  0.00    +0.000 C 
BRANCH  21  22
ATOM     22  C   UNL     1       1.284   8.462  21.290  0.00  0.00    +0.000 C 
ATOM     23  O   UNL     1       1.234   9.144  22.313  0.00  0.00    +0.000 OA
ATOM     24  N   UNL     1       0.817   8.906  20.071  0.00  0.00    +0.000 N 
ATOM     25  H   UNL     1       0.789   8.293  19.255  0.00  0.00    +0.000 HD
BRANCH  24  26
ATOM     26  N   UNL     1       0.086  10.095  20.035  0.00  0.00    +0.000 N 
ATOM     27  H   UNL     1      -0.066  10.540  20.939  0.00  0.00    +0.000 HD
BRANCH  26  28
ATOM     28  C   UNL     1      -0.126  10.788  18.854  0.00  0.00    +0.000 C 
ATOM     29  S   UNL     1      -0.947  12.248  18.746  0.00  0.00    +0.000 S 
BRANCH  28  30
ATOM     30  N   UNL     1       0.458  10.122  17.773  0.00  0.00    +0.000 N 
ATOM     31  H   UNL     1      -0.022   9.278  17.463  0.00  0.00    +0.000 HD
BRANCH  30  32
ATOM     32  N   UNL     1       1.851  10.167  17.537  0.00  0.00    +0.000 NA
ATOM     33  H   UNL     1       1.997  10.507  16.577  0.00  0.00    +0.000 HD
ATOM     34  H   UNL     1       2.204   9.207  17.528  0.00  0.00    +0.000 HD
ENDBRANCH  30  32
ENDBRANCH  28  30
ENDBRANCH  26  28
ENDBRANCH  24  26
ENDBRANCH  21  22
ENDBRANCH  20  21
ENDBRANCH   6  20
TORSDOF 8
ENDMDL
MODEL 5
REMARK VINA RESULT:      -6.7      4.219      7.959
REMARK  Name = 
REMARK  10 active torsions:
REMARK  status: ('A' for Active; 'I' for Inactive)
REMARK    1  A    between atoms: C_1  and  C_2
REMARK    2  A    between atoms: C_7  and  N_8
REMARK    3  A    between atoms: C_9  and  C_10
REMARK    4  A    between atoms: C_13  and  O_14
REMARK    5  A    between atoms: O_14  and  C_15
REMARK    6  A    between atoms: C_15  and  C_16
REMARK    7  A    between atoms: N_18  and  N_19
REMARK    8  A    between atoms: N_19  and  C_20
REMARK    9  A    between atoms: C_20  and  N_22
REMARK   10  A    between atoms: N_22  and  N_23
REMARK                            x       y       z     vdW  Elec       q    Type
REMARK                         _______ _______ _______ _____ _____    ______ ____
ROOT
ATOM      1  N   UNL     1       1.287   9.264  19.497  0.00  0.00    +0.000 N 
ATOM      2  C   UNL     1       2.105   9.320  18.381  0.00  0.00    +0.000 A 
ATOM      3  C   UNL     1       2.261  10.607  17.594  0.00  0.00    +0.000 C 
ATOM      4  N   UNL     1       2.814   8.315  17.959  0.00  0.00    +0.000 NA
ATOM      5  C   UNL     1       2.759   7.092  18.648  0.00  0.00    +0.000 A 
ATOM      6  C   UNL     1       3.482   5.975  18.178  0.00  0.00    +0.000 A 
ATOM      7  C   UNL     1       3.383   4.744  18.842  0.00  0.00    +0.000 A 
ATOM      8  C   UNL     1       2.613   4.626  20.000  0.00  0.00    +0.000 A 
ATOM      9  C   UNL     1       1.938   5.733  20.495  0.00  0.00    +0.000 A 
ATOM     10  C   UNL     1       2.009   6.954  19.812  0.00  0.00    +0.000 A 
ATOM     11  C   UNL     1       1.273   8.128  20.313  0.00  0.00    +0.000 A 
ATOM     12  O   UNL     1       0.691   8.028  21.392  0.00  0.00    +0.000 OA
ENDROOT
BRANCH   1  19
ATOM     13  C   UNL     1      -1.376   9.810  18.282  0.00  0.00    +0.000 C 
ATOM     14  C   UNL     1      -0.745  10.680  19.333  0.00  0.00    +0.000 A 
ATOM     15  C   UNL     1      -1.458  11.801  19.796  0.00  0.00    +0.000 A 
ATOM     16  C   UNL     1      -0.972  12.579  20.846  0.00  0.00    +0.000 A 
ATOM     17  C   UNL     1       0.232  12.248  21.458  0.00  0.00    +0.000 A 
ATOM     18  C   UNL     1       0.963  11.153  21.001  0.00  0.00    +0.000 A 
ATOM     19  C   UNL     1       0.499  10.376  19.924  0.00  0.00    +0.000 A 
ENDBRANCH   1  19
BRANCH   6  20
ATOM     20  O   UNL     1       4.232   6.155  17.040  0.00  0.00    +0.000 OA
BRANCH  20  21
ATOM     21  C   UNL     1       5.643   6.215  17.212  0.00  0.00    +0.000 C 
BRANCH  21  22
ATOM     22  C   UNL     1       6.401   5.106  16.486  0.00  0.00    +0.000 C 
ATOM     23  O   UNL     1       7.516   4.717  16.834  0.00  0.00    +0.000 OA
ATOM     24  N   UNL     1       5.745   4.606  15.381  0.00  0.00    +0.000 N 
ATOM     25  H   UNL     1       4.860   5.001  15.061  0.00  0.00    +0.000 HD
BRANCH  24  26
ATOM     26  N   UNL     1       6.449   3.765  14.517  0.00  0.00    +0.000 N 
ATOM     27  H   UNL     1       6.814   2.913  14.939  0.00  0.00    +0.000 HD
BRANCH  26  28
ATOM     28  C   UNL     1       6.375   3.904  13.140  0.00  0.00    +0.000 C 
ATOM     29  S   UNL     1       5.127   3.301  12.193  0.00  0.00    +0.000 S 
BRANCH  28  30
ATOM     30  N   UNL     1       7.462   4.634  12.652  0.00  0.00    +0.000 N 
ATOM     31  H   UNL     1       8.060   4.144  11.988  0.00  0.00    +0.000 HD
BRANCH  30  32
ATOM     32  N   UNL     1       8.084   5.644  13.421  0.00  0.00    +0.000 NA
ATOM     33  H   UNL     1       9.059   5.358  13.587  0.00  0.00    +0.000 HD
ATOM     34  H   UNL     1       7.654   5.648  14.349  0.00  0.00    +0.000 HD
ENDBRANCH  30  32
ENDBRANCH  28  30
ENDBRANCH  26  28
ENDBRANCH  24  26
ENDBRANCH  21  22
ENDBRANCH  20  21
ENDBRANCH   6  20
TORSDOF 8
ENDMDL
MODEL 6
REMARK VINA RESULT:      -6.5      0.794      1.744
REMARK  Name = 
REMARK  10 active torsions:
REMARK  status: ('A' for Active; 'I' for Inactive)
REMARK    1  A    between atoms: C_1  and  C_2
REMARK    2  A    between atoms: C_7  and  N_8
REMARK    3  A    between atoms: C_9  and  C_10
REMARK    4  A    between atoms: C_13  and  O_14
REMARK    5  A    between atoms: O_14  and  C_15
REMARK    6  A    between atoms: C_15  and  C_16
REMARK    7  A    between atoms: N_18  and  N_19
REMARK    8  A    between atoms: N_19  and  C_20
REMARK    9  A    between atoms: C_20  and  N_22
REMARK   10  A    between atoms: N_22  and  N_23
REMARK                            x       y       z     vdW  Elec       q    Type
REMARK                         _______ _______ _______ _____ _____    ______ ____
ROOT
ATOM      1  N   UNL     1       2.399   6.447  18.993  0.00  0.00    +0.000 N 
ATOM      2  C   UNL     1       2.530   7.586  18.216  0.00  0.00    +0.000 A 
ATOM      3  C   UNL     1       3.134   7.516  16.827  0.00  0.00    +0.000 C 
ATOM      4  N   UNL     1       2.122   8.763  18.591  0.00  0.00    +0.000 NA
ATOM      5  C   UNL     1       1.519   8.916  19.851  0.00  0.00    +0.000 A 
ATOM      6  C   UNL     1       1.113  10.192  20.297  0.00  0.00    +0.000 A 
ATOM      7  C   UNL     1       0.558  10.345  21.576  0.00  0.00    +0.000 A 
ATOM      8  C   UNL     1       0.353   9.234  22.395  0.00  0.00    +0.000 A 
ATOM      9  C   UNL     1       0.705   7.970  21.943  0.00  0.00    +0.000 A 
ATOM     10  C   UNL     1       1.292   7.821  20.679  0.00  0.00    +0.000 A 
ATOM     11  C   UNL     1       1.696   6.487  20.202  0.00  0.00    +0.000 A 
ATOM     12  O   UNL     1       1.407   5.512  20.894  0.00  0.00    +0.000 OA
ENDROOT
BRANCH   1  19
ATOM     13  C   UNL     1       5.224   5.638  19.474  0.00  0.00    +0.000 C 
ATOM     14  C   UNL     1       4.225   4.783  18.744  0.00  0.00    +0.000 A 
ATOM     15  C   UNL     1       4.629   3.517  18.285  0.00  0.00    +0.000 A 
ATOM     16  C   UNL     1       3.717   2.638  17.701  0.00  0.00    +0.000 A 
ATOM     17  C   UNL     1       2.382   3.006  17.570  0.00  0.00    +0.000 A 
ATOM     18  C   UNL     1       1.966   4.264  18.002  0.00  0.00    +0.000 A 
ATOM     19  C   UNL     1       2.881   5.172  18.567  0.00  0.00    +0.000 A 
ENDBRANCH   1  19
BRANCH   6  20
ATOM     20  O   UNL     1       1.330  11.246  19.442  0.00  0.00    +0.000 OA
BRANCH  20  21
ATOM     21  C   UNL     1       0.281  12.202  19.335  0.00  0.00    +0.000 C 
BRANCH  21  22
ATOM     22  C   UNL     1      -1.016  11.635  18.765  0.00  0.00    +0.000 C 
ATOM     23  O   UNL     1      -2.094  11.706  19.353  0.00  0.00    +0.000 OA
ATOM     24  N   UNL     1      -0.867  11.001  17.549  0.00  0.00    +0.000 N 
ATOM     25  H   UNL     1       0.051  10.879  17.120  0.00  0.00    +0.000 HD
BRANCH  24  26
ATOM     26  N   UNL     1      -1.936  10.247  17.060  0.00  0.00    +0.000 N 
ATOM     27  H   UNL     1      -2.170   9.419  17.606  0.00  0.00    +0.000 HD
BRANCH  26  28
ATOM     28  C   UNL     1      -2.814  10.750  16.115  0.00  0.00    +0.000 C 
ATOM     29  S   UNL     1      -3.107  10.044  14.621  0.00  0.00    +0.000 S 
BRANCH  28  30
ATOM     30  N   UNL     1      -3.442  11.908  16.584  0.00  0.00    +0.000 N 
ATOM     31  H   UNL     1      -2.849  12.734  16.653  0.00  0.00    +0.000 HD
BRANCH  30  32
ATOM     32  N   UNL     1      -4.535  11.850  17.479  0.00  0.00    +0.000 NA
ATOM     33  H   UNL     1      -5.398  11.808  16.921  0.00  0.00    +0.000 HD
ATOM     34  H   UNL     1      -4.589  12.744  17.974  0.00  0.00    +0.000 HD
ENDBRANCH  30  32
ENDBRANCH  28  30
ENDBRANCH  26  28
ENDBRANCH  24  26
ENDBRANCH  21  22
ENDBRANCH  20  21
ENDBRANCH   6  20
TORSDOF 8
ENDMDL
MODEL 7
REMARK VINA RESULT:      -6.5      1.110      1.410
REMARK  Name = 
REMARK  10 active torsions:
REMARK  status: ('A' for Active; 'I' for Inactive)
REMARK    1  A    between atoms: C_1  and  C_2
REMARK    2  A    between atoms: C_7  and  N_8
REMARK    3  A    between atoms: C_9  and  C_10
REMARK    4  A    between atoms: C_13  and  O_14
REMARK    5  A    between atoms: O_14  and  C_15
REMARK    6  A    between atoms: C_15  and  C_16
REMARK    7  A    between atoms: N_18  and  N_19
REMARK    8  A    between atoms: N_19  and  C_20
REMARK    9  A    between atoms: C_20  and  N_22
REMARK   10  A    between atoms: N_22  and  N_23
REMARK                            x       y       z     vdW  Elec       q    Type
REMARK                         _______ _______ _______ _____ _____    ______ ____
ROOT
ATOM      1  N   UNL     1       2.580   6.381  19.284  0.00  0.00    +0.000 N 
ATOM      2  C   UNL     1       2.787   7.505  18.501  0.00  0.00    +0.000 A 
ATOM      3  C   UNL     1       3.610   7.428  17.230  0.00  0.00    +0.000 C 
ATOM      4  N   UNL     1       2.274   8.671  18.767  0.00  0.00    +0.000 NA
ATOM      5  C   UNL     1       1.469   8.827  19.908  0.00  0.00    +0.000 A 
ATOM      6  C   UNL     1       0.942  10.093  20.241  0.00  0.00    +0.000 A 
ATOM      7  C   UNL     1       0.181  10.253  21.408  0.00  0.00    +0.000 A 
ATOM      8  C   UNL     1      -0.107   9.155  22.219  0.00  0.00    +0.000 A 
ATOM      9  C   UNL     1       0.367   7.898  21.871  0.00  0.00    +0.000 A 
ATOM     10  C   UNL     1       1.157   7.744  20.724  0.00  0.00    +0.000 A 
ATOM     11  C   UNL     1       1.689   6.420  20.362  0.00  0.00    +0.000 A 
ATOM     12  O   UNL     1       1.333   5.450  21.031  0.00  0.00    +0.000 OA
ENDROOT
BRANCH   1  19
ATOM     13  C   UNL     1       1.200   4.415  17.524  0.00  0.00    +0.000 C 
ATOM     14  C   UNL     1       2.524   4.155  18.188  0.00  0.00    +0.000 A 
ATOM     15  C   UNL     1       3.169   2.928  17.947  0.00  0.00    +0.000 A 
ATOM     16  C   UNL     1       4.447   2.677  18.446  0.00  0.00    +0.000 A 
ATOM     17  C   UNL     1       5.107   3.649  19.189  0.00  0.00    +0.000 A 
ATOM     18  C   UNL     1       4.478   4.864  19.455  0.00  0.00    +0.000 A 
ATOM     19  C   UNL     1       3.177   5.120  18.983  0.00  0.00    +0.000 A 
ENDBRANCH   1  19
BRANCH   6  20
ATOM     20  O   UNL     1       1.250  11.135  19.398  0.00  0.00    +0.000 OA
BRANCH  20  21
ATOM     21  C   UNL     1       0.594  12.372  19.651  0.00  0.00    +0.000 C 
BRANCH  21  22
ATOM     22  C   UNL     1      -0.309  12.837  18.511  0.00  0.00    +0.000 C 
ATOM     23  O   UNL     1      -0.442  14.020  18.201  0.00  0.00    +0.000 OA
ATOM     24  N   UNL     1      -0.994  11.817  17.883  0.00  0.00    +0.000 N 
ATOM     25  H   UNL     1      -0.934  10.853  18.212  0.00  0.00    +0.000 HD
BRANCH  24  26
ATOM     26  N   UNL     1      -2.017  12.156  16.995  0.00  0.00    +0.000 N 
ATOM     27  H   UNL     1      -1.864  13.010  16.460  0.00  0.00    +0.000 HD
BRANCH  26  28
ATOM     28  C   UNL     1      -2.993  11.246  16.623  0.00  0.00    +0.000 C 
ATOM     29  S   UNL     1      -2.716   9.610  16.367  0.00  0.00    +0.000 S 
BRANCH  28  30
ATOM     30  N   UNL     1      -4.241  11.868  16.517  0.00  0.00    +0.000 N 
ATOM     31  H   UNL     1      -4.222  12.884  16.449  0.00  0.00    +0.000 HD
BRANCH  30  32
ATOM     32  N   UNL     1      -5.403  11.304  17.091  0.00  0.00    +0.000 NA
ATOM     33  H   UNL     1      -5.119  10.469  17.622  0.00  0.00    +0.000 HD
ATOM     34  H   UNL     1      -5.989  10.943  16.335  0.00  0.00    +0.000 HD
ENDBRANCH  30  32
ENDBRANCH  28  30
ENDBRANCH  26  28
ENDBRANCH  24  26
ENDBRANCH  21  22
ENDBRANCH  20  21
ENDBRANCH   6  20
TORSDOF 8
ENDMDL
MODEL 8
REMARK VINA RESULT:      -6.5      0.666      1.417
REMARK  Name = 
REMARK  10 active torsions:
REMARK  status: ('A' for Active; 'I' for Inactive)
REMARK    1  A    between atoms: C_1  and  C_2
REMARK    2  A    between atoms: C_7  and  N_8
REMARK    3  A    between atoms: C_9  and  C_10
REMARK    4  A    between atoms: C_13  and  O_14
REMARK    5  A    between atoms: O_14  and  C_15
REMARK    6  A    between atoms: C_15  and  C_16
REMARK    7  A    between atoms: N_18  and  N_19
REMARK    8  A    between atoms: N_19  and  C_20
REMARK    9  A    between atoms: C_20  and  N_22
REMARK   10  A    between atoms: N_22  and  N_23
REMARK                            x       y       z     vdW  Elec       q    Type
REMARK                         _______ _______ _______ _____ _____    ______ ____
ROOT
ATOM      1  N   UNL     1       2.415   6.525  18.969  0.00  0.00    +0.000 N 
ATOM      2  C   UNL     1       2.554   7.655  18.181  0.00  0.00    +0.000 A 
ATOM      3  C   UNL     1       3.162   7.567  16.795  0.00  0.00    +0.000 C 
ATOM      4  N   UNL     1       2.150   8.838  18.542  0.00  0.00    +0.000 NA
ATOM      5  C   UNL     1       1.543   9.007  19.798  0.00  0.00    +0.000 A 
ATOM      6  C   UNL     1       1.142  10.289  20.229  0.00  0.00    +0.000 A 
ATOM      7  C   UNL     1       0.582  10.459  21.504  0.00  0.00    +0.000 A 
ATOM      8  C   UNL     1       0.370   9.358  22.334  0.00  0.00    +0.000 A 
ATOM      9  C   UNL     1       0.717   8.087  21.896  0.00  0.00    +0.000 A 
ATOM     10  C   UNL     1       1.308   7.922  20.637  0.00  0.00    +0.000 A 
ATOM     11  C   UNL     1       1.708   6.582  20.175  0.00  0.00    +0.000 A 
ATOM     12  O   UNL     1       1.412   5.615  20.877  0.00  0.00    +0.000 OA
ENDROOT
BRANCH   1  19
ATOM     13  C   UNL     1       5.252   5.734  19.409  0.00  0.00    +0.000 C 
ATOM     14  C   UNL     1       4.241   4.862  18.716  0.00  0.00    +0.000 A 
ATOM     15  C   UNL     1       4.640   3.588  18.274  0.00  0.00    +0.000 A 
ATOM     16  C   UNL     1       3.719   2.695  17.726  0.00  0.00    +0.000 A 
ATOM     17  C   UNL     1       2.381   3.057  17.616  0.00  0.00    +0.000 A 
ATOM     18  C   UNL     1       1.969   4.322  18.031  0.00  0.00    +0.000 A 
ATOM     19  C   UNL     1       2.892   5.243  18.559  0.00  0.00    +0.000 A 
ENDBRANCH   1  19
BRANCH   6  20
ATOM     20  O   UNL     1       1.367  11.334  19.363  0.00  0.00    +0.000 OA
BRANCH  20  21
ATOM     21  C   UNL     1       0.686  12.551  19.647  0.00  0.00    +0.000 C 
BRANCH  21  22
ATOM     22  C   UNL     1      -0.722  12.622  19.060  0.00  0.00    +0.000 C 
ATOM     23  O   UNL     1      -1.716  12.887  19.735  0.00  0.00    +0.000 OA
ATOM     24  N   UNL     1      -0.787  12.325  17.715  0.00  0.00    +0.000 N 
ATOM     25  H   UNL     1       0.038  12.025  17.194  0.00  0.00    +0.000 HD
BRANCH  24  26
ATOM     26  N   UNL     1      -2.044  12.130  17.140  0.00  0.00    +0.000 N 
ATOM     27  H   UNL     1      -2.569  12.980  16.942  0.00  0.00    +0.000 HD
BRANCH  26  28
ATOM     28  C   UNL     1      -2.411  10.918  16.579  0.00  0.00    +0.000 C 
ATOM     29  S   UNL     1      -3.312  10.760  15.171  0.00  0.00    +0.000 S 
BRANCH  28  30
ATOM     30  N   UNL     1      -1.909   9.848  17.326  0.00  0.00    +0.000 N 
ATOM     31  H   UNL     1      -2.378   9.672  18.213  0.00  0.00    +0.000 HD
BRANCH  30  32
ATOM     32  N   UNL     1      -0.550   9.465  17.253  0.00  0.00    +0.000 NA
ATOM     33  H   UNL     1      -0.498   8.454  17.434  0.00  0.00    +0.000 HD
ATOM     34  H   UNL     1      -0.056   9.894  18.039  0.00  0.00    +0.000 HD
ENDBRANCH  30  32
ENDBRANCH  28  30
ENDBRANCH  26  28
ENDBRANCH  24  26
ENDBRANCH  21  22
ENDBRANCH  20  21
ENDBRANCH   6  20
TORSDOF 8
ENDMDL
MODEL 9
REMARK VINA RESULT:      -6.4      1.967      2.150
REMARK  Name = 
REMARK  10 active torsions:
REMARK  status: ('A' for Active; 'I' for Inactive)
REMARK    1  A    between atoms: C_1  and  C_2
REMARK    2  A    between atoms: C_7  and  N_8
REMARK    3  A    between atoms: C_9  and  C_10
REMARK    4  A    between atoms: C_13  and  O_14
REMARK    5  A    between atoms: O_14  and  C_15
REMARK    6  A    between atoms: C_15  and  C_16
REMARK    7  A    between atoms: N_18  and  N_19
REMARK    8  A    between atoms: N_19  and  C_20
REMARK    9  A    between atoms: C_20  and  N_22
REMARK   10  A    between atoms: N_22  and  N_23
REMARK                            x       y       z     vdW  Elec       q    Type
REMARK                         _______ _______ _______ _____ _____    ______ ____
ROOT
ATOM      1  N   UNL     1       2.599   6.783  19.178  0.00  0.00    +0.000 N 
ATOM      2  C   UNL     1       2.584   7.804  18.243  0.00  0.00    +0.000 A 
ATOM      3  C   UNL     1       3.294   7.650  16.911  0.00  0.00    +0.000 C 
ATOM      4  N   UNL     1       1.946   8.925  18.412  0.00  0.00    +0.000 NA
ATOM      5  C   UNL     1       1.233   9.141  19.602  0.00  0.00    +0.000 A 
ATOM      6  C   UNL     1       0.574  10.369  19.826  0.00  0.00    +0.000 A 
ATOM      7  C   UNL     1      -0.095  10.596  21.038  0.00  0.00    +0.000 A 
ATOM      8  C   UNL     1      -0.160   9.595  22.008  0.00  0.00    +0.000 A 
ATOM      9  C   UNL     1       0.444   8.368  21.773  0.00  0.00    +0.000 A 
ATOM     10  C   UNL     1       1.141   8.152  20.578  0.00  0.00    +0.000 A 
ATOM     11  C   UNL     1       1.811   6.864  20.331  0.00  0.00    +0.000 A 
ATOM     12  O   UNL     1       1.647   5.961  21.151  0.00  0.00    +0.000 OA
ENDROOT
BRANCH   1  19
ATOM     13  C   UNL     1       1.388   4.488  17.718  0.00  0.00    +0.000 C 
ATOM     14  C   UNL     1       2.762   4.457  18.328  0.00  0.00    +0.000 A 
ATOM     15  C   UNL     1       3.538   3.293  18.180  0.00  0.00    +0.000 A 
ATOM     16  C   UNL     1       4.859   3.247  18.628  0.00  0.00    +0.000 A 
ATOM     17  C   UNL     1       5.430   4.365  19.226  0.00  0.00    +0.000 A 
ATOM     18  C   UNL     1       4.671   5.521  19.399  0.00  0.00    +0.000 A 
ATOM     19  C   UNL     1       3.329   5.573  18.978  0.00  0.00    +0.000 A 
ENDBRANCH   1  19
BRANCH   6  20
ATOM     20  O   UNL     1       0.664  11.312  18.830  0.00  0.00    +0.000 OA
BRANCH  20  21
ATOM     21  C   UNL     1      -0.411  12.239  18.735  0.00  0.00    +0.000 C 
BRANCH  21  22
ATOM     22  C   UNL     1      -1.680  11.652  18.124  0.00  0.00    +0.000 C 
ATOM     23  O   UNL     1      -1.666  10.757  17.280  0.00  0.00    +0.000 OA
ATOM     24  N   UNL     1      -2.845  12.240  18.572  0.00  0.00    +0.000 N 
ATOM     25  H   UNL     1      -2.829  13.038  19.208  0.00  0.00    +0.000 HD
BRANCH  24  26
ATOM     26  N   UNL     1      -4.035  11.944  17.905  0.00  0.00    +0.000 N 
ATOM     27  H   UNL     1      -3.925  11.501  16.994  0.00  0.00    +0.000 HD
BRANCH  26  28
ATOM     28  C   UNL     1      -5.257  11.939  18.558  0.00  0.00    +0.000 C 
ATOM     29  S   UNL     1      -5.606  12.849  19.924  0.00  0.00    +0.000 S 
BRANCH  28  30
ATOM     30  N   UNL     1      -6.166  11.097  17.910  0.00  0.00    +0.000 N 
ATOM     31  H   UNL     1      -6.426  11.374  16.964  0.00  0.00    +0.000 HD
BRANCH  30  32
ATOM     32  N   UNL     1      -7.129  10.352  18.627  0.00  0.00    +0.000 NA
ATOM     33  H   UNL     1      -7.906  10.141  17.986  0.00  0.00    +0.000 HD
ATOM     34  H   UNL     1      -7.539  10.961  19.338  0.00  0.00    +0.000 HD
ENDBRANCH  30  32
ENDBRANCH  28  30
ENDBRANCH  26  28
ENDBRANCH  24  26
ENDBRANCH  21  22
ENDBRANCH  20  21
ENDBRANCH   6  20
TORSDOF 8
ENDMDL
