MODEL 1
REMARK VINA RESULT:      -6.3      0.000      0.000
REMARK  Name = 
REMARK  11 active torsions:
REMARK  status: ('A' for Active; 'I' for Inactive)
REMARK    1  A    between atoms: C_1  and  C_2
REMARK    2  A    between atoms: C_2  and  O_3
REMARK    3  A    between atoms: O_3  and  C_4
REMARK    4  A    between atoms: C_9  and  N_10
REMARK    5  A    between atoms: N_10  and  C_22
REMARK    6  A    between atoms: C_11  and  C_13
REMARK    7  A    between atoms: C_16  and  C_17
REMARK    8  A    between atoms: C_20  and  N_21
REMARK    9  A    between atoms: C_22  and  C_23
REMARK   10  A    between atoms: C_22  and  C_31
REMARK   11  A    between atoms: N_25  and  C_26
REMARK                            x       y       z     vdW  Elec       q    Type
REMARK                         _______ _______ _______ _____ _____    ______ ____
ROOT
ATOM      1  N   UNL     1      -2.127  12.765  21.684  0.00  0.00    +0.000 N 
ATOM      2  C   UNL     1      -1.714  13.917  20.969  0.00  0.00    +0.000 C 
ATOM      3  O   UNL     1      -2.533  14.810  20.718  0.00  0.00    +0.000 OA
ENDROOT
BRANCH   1   9
ATOM      4  C   UNL     1      -1.070  10.804  20.540  0.00  0.00    +0.000 A 
ATOM      5  C   UNL     1      -0.325   9.619  20.660  0.00  0.00    +0.000 A 
ATOM      6  C   UNL     1       0.063   9.131  21.907  0.00  0.00    +0.000 A 
ATOM      7  C   UNL     1      -0.258   9.838  23.056  0.00  0.00    +0.000 A 
ATOM      8  C   UNL     1      -0.945  11.050  22.961  0.00  0.00    +0.000 A 
ATOM      9  C   UNL     1      -1.356  11.551  21.712  0.00  0.00    +0.000 A 
BRANCH   4  10
ATOM     10  O   UNL     1      -1.575  11.229  19.325  0.00  0.00    +0.000 OA
BRANCH  10  12
ATOM     11  C   UNL     1      -2.506   9.914  17.482  0.00  0.00    +0.000 C 
ATOM     12  C   UNL     1      -1.254  10.374  18.210  0.00  0.00    +0.000 C 
ENDBRANCH  10  12
ENDBRANCH   4  10
ENDBRANCH   1   9
BRANCH   2  13
ATOM     13  C   UNL     1      -0.323  14.062  20.532  0.00  0.00    +0.000 A 
ATOM     14  S   UNL     1       0.967  14.440  21.596  0.00  0.00    +0.000 S 
ATOM     15  N   UNL     1       2.192  14.209  20.514  0.00  0.00    +0.000 NA
ATOM     16  C   UNL     1       1.662  14.053  19.291  0.00  0.00    +0.000 A 
ATOM     17  C   UNL     1       0.213  14.054  19.252  0.00  0.00    +0.000 A 
BRANCH  16  18
ATOM     18  C   UNL     1       2.559  13.874  18.135  0.00  0.00    +0.000 C 
ATOM     19  N   UNL     1       2.601  12.600  17.631  0.00  0.00    +0.000 N 
ATOM     20  O   UNL     1       3.211  14.778  17.619  0.00  0.00    +0.000 OA
ATOM     21  H   UNL     1       2.023  11.881  18.048  0.00  0.00    +0.000 HD
ATOM     22  H   UNL     1       3.132  12.414  16.795  0.00  0.00    +0.000 HD
ENDBRANCH  16  18
BRANCH  17  23
ATOM     23  N   UNL     1      -0.519  13.982  18.112  0.00  0.00    +0.000 N 
ATOM     24  H   UNL     1      -0.686  14.829  17.561  0.00  0.00    +0.000 HD
ATOM     25  H   UNL     1      -1.253  13.282  18.006  0.00  0.00    +0.000 HD
ENDBRANCH  17  23
ENDBRANCH   2  13
BRANCH   1  26
ATOM     26  C   UNL     1      -3.564  12.595  22.026  0.00  0.00    +0.000 C 
BRANCH  26  27
ATOM     27  C   UNL     1      -4.561  12.784  20.891  0.00  0.00    +0.000 A 
ATOM     28  C   UNL     1      -4.614  12.241  19.614  0.00  0.00    +0.000 A 
ATOM     29  C   UNL     1      -5.747  12.779  18.967  0.00  0.00    +0.000 A 
ATOM     30  C   UNL     1      -6.325  13.641  19.878  0.00  0.00    +0.000 A 
ATOM     31  O   UNL     1      -5.607  13.660  21.041  0.00  0.00    +0.000 OA
ENDBRANCH  26  27
BRANCH  26  32
ATOM     32  C   UNL     1      -4.015  13.410  23.270  0.00  0.00    +0.000 C 
ATOM     33  O   UNL     1      -4.285  12.857  24.340  0.00  0.00    +0.000 OA
ATOM     34  N   UNL     1      -4.107  14.785  23.122  0.00  0.00    +0.000 N 
ATOM     35  H   UNL     1      -3.550  15.180  22.362  0.00  0.00    +0.000 HD
BRANCH  34  36
ATOM     36  C   UNL     1      -4.504  15.654  24.210  0.00  0.00    +0.000 C 
ATOM     37  C   UNL     1      -3.404  16.628  24.616  0.00  0.00    +0.000 C 
ATOM     38  C   UNL     1      -4.142  17.725  25.374  0.00  0.00    +0.000 C 
ATOM     39  C   UNL     1      -5.558  17.757  24.801  0.00  0.00    +0.000 C 
ATOM     40  C   UNL     1      -5.662  16.576  23.838  0.00  0.00    +0.000 C 
ENDBRANCH  34  36
ENDBRANCH  26  32
ENDBRANCH   1  26
TORSDOF 10
ENDMDL
MODEL 2
REMARK VINA RESULT:      -6.1      2.839      5.982
REMARK  Name = 
REMARK  11 active torsions:
REMARK  status: ('A' for Active; 'I' for Inactive)
REMARK    1  A    between atoms: C_1  and  C_2
REMARK    2  A    between atoms: C_2  and  O_3
REMARK    3  A    between atoms: O_3  and  C_4
REMARK    4  A    between atoms: C_9  and  N_10
REMARK    5  A    between atoms: N_10  and  C_22
REMARK    6  A    between atoms: C_11  and  C_13
REMARK    7  A    between atoms: C_16  and  C_17
REMARK    8  A    between atoms: C_20  and  N_21
REMARK    9  A    between atoms: C_22  and  C_23
REMARK   10  A    between atoms: C_22  and  C_31
REMARK   11  A    between atoms: N_25  and  C_26
REMARK                            x       y       z     vdW  Elec       q    Type
REMARK                         _______ _______ _______ _____ _____    ______ ____
ROOT
ATOM      1  N   UNL     1      -0.298  13.095  21.177  0.00  0.00    +0.000 N 
ATOM      2  C   UNL     1      -1.345  13.687  20.426  0.00  0.00    +0.000 C 
ATOM      3  O   UNL     1      -1.445  14.919  20.377  0.00  0.00    +0.000 OA
ENDROOT
BRANCH   1   9
ATOM      4  C   UNL     1       0.173  10.676  20.733  0.00  0.00    +0.000 A 
ATOM      5  C   UNL     1       0.105   9.349  21.190  0.00  0.00    +0.000 A 
ATOM      6  C   UNL     1      -0.498   9.034  22.408  0.00  0.00    +0.000 A 
ATOM      7  C   UNL     1      -1.014  10.044  23.206  0.00  0.00    +0.000 A 
ATOM      8  C   UNL     1      -0.904  11.376  22.803  0.00  0.00    +0.000 A 
ATOM      9  C   UNL     1      -0.312  11.712  21.572  0.00  0.00    +0.000 A 
BRANCH   4  10
ATOM     10  O   UNL     1       0.646  10.989  19.472  0.00  0.00    +0.000 OA
BRANCH  10  12
ATOM     11  C   UNL     1       2.051   9.698  17.940  0.00  0.00    +0.000 C 
ATOM     12  C   UNL     1       0.671   9.884  18.549  0.00  0.00    +0.000 C 
ENDBRANCH  10  12
ENDBRANCH   4  10
ENDBRANCH   1   9
BRANCH   2  13
ATOM     13  C   UNL     1      -2.305  12.850  19.701  0.00  0.00    +0.000 A 
ATOM     14  S   UNL     1      -3.704  12.174  20.426  0.00  0.00    +0.000 S 
ATOM     15  N   UNL     1      -4.389  11.600  19.039  0.00  0.00    +0.000 NA
ATOM     16  C   UNL     1      -3.498  11.711  18.041  0.00  0.00    +0.000 A 
ATOM     17  C   UNL     1      -2.249  12.345  18.410  0.00  0.00    +0.000 A 
BRANCH  16  18
ATOM     18  C   UNL     1      -3.857  11.221  16.698  0.00  0.00    +0.000 C 
ATOM     19  N   UNL     1      -5.200  11.236  16.420  0.00  0.00    +0.000 N 
ATOM     20  O   UNL     1      -3.044  10.848  15.856  0.00  0.00    +0.000 OA
ATOM     21  H   UNL     1      -5.847  11.587  17.115  0.00  0.00    +0.000 HD
ATOM     22  H   UNL     1      -5.519  10.988  15.496  0.00  0.00    +0.000 HD
ENDBRANCH  16  18
BRANCH  17  23
ATOM     23  N   UNL     1      -1.191  12.490  17.573  0.00  0.00    +0.000 N 
ATOM     24  H   UNL     1      -0.844  11.682  17.048  0.00  0.00    +0.000 HD
ATOM     25  H   UNL     1      -0.472  13.190  17.757  0.00  0.00    +0.000 HD
ENDBRANCH  17  23
ENDBRANCH   2  13
BRANCH   1  26
ATOM     26  C   UNL     1       0.599  13.962  21.985  0.00  0.00    +0.000 C 
BRANCH  26  27
ATOM     27  C   UNL     1      -0.070  15.054  22.811  0.00  0.00    +0.000 A 
ATOM     28  C   UNL     1      -1.053  14.992  23.790  0.00  0.00    +0.000 A 
ATOM     29  C   UNL     1      -1.320  16.313  24.210  0.00  0.00    +0.000 A 
ATOM     30  C   UNL     1      -0.495  17.121  23.453  0.00  0.00    +0.000 A 
ATOM     31  O   UNL     1       0.257  16.369  22.595  0.00  0.00    +0.000 OA
ENDBRANCH  26  27
BRANCH  26  32
ATOM     32  C   UNL     1       1.789  14.558  21.183  0.00  0.00    +0.000 C 
ATOM     33  O   UNL     1       2.954  14.441  21.573  0.00  0.00    +0.000 OA
ATOM     34  N   UNL     1       1.483  15.234  20.012  0.00  0.00    +0.000 N 
ATOM     35  H   UNL     1       0.585  14.989  19.589  0.00  0.00    +0.000 HD
BRANCH  34  36
ATOM     36  C   UNL     1       2.503  15.822  19.170  0.00  0.00    +0.000 C 
ATOM     37  C   UNL     1       3.043  14.847  18.131  0.00  0.00    +0.000 C 
ATOM     38  C   UNL     1       3.690  15.743  17.083  0.00  0.00    +0.000 C 
ATOM     39  C   UNL     1       2.935  17.070  17.135  0.00  0.00    +0.000 C 
ATOM     40  C   UNL     1       1.975  16.975  18.320  0.00  0.00    +0.000 C 
ENDBRANCH  34  36
ENDBRANCH  26  32
ENDBRANCH   1  26
TORSDOF 10
ENDMDL
MODEL 3
REMARK VINA RESULT:      -6.0      2.524      5.378
REMARK  Name = 
REMARK  11 active torsions:
REMARK  status: ('A' for Active; 'I' for Inactive)
REMARK    1  A    between atoms: C_1  and  C_2
REMARK    2  A    between atoms: C_2  and  O_3
REMARK    3  A    between atoms: O_3  and  C_4
REMARK    4  A    between atoms: C_9  and  N_10
REMARK    5  A    between atoms: N_10  and  C_22
REMARK    6  A    between atoms: C_11  and  C_13
REMARK    7  A    between atoms: C_16  and  C_17
REMARK    8  A    between atoms: C_20  and  N_21
REMARK    9  A    between atoms: C_22  and  C_23
REMARK   10  A    between atoms: C_22  and  C_31
REMARK   11  A    between atoms: N_25  and  C_26
REMARK                            x       y       z     vdW  Elec       q    Type
REMARK                         _______ _______ _______ _____ _____    ______ ____
ROOT
ATOM      1  N   UNL     1      -1.448  13.667  20.771  0.00  0.00    +0.000 N 
ATOM      2  C   UNL     1      -2.769  14.183  20.765  0.00  0.00    +0.000 C 
ATOM      3  O   UNL     1      -2.951  15.404  20.671  0.00  0.00    +0.000 OA
ENDROOT
BRANCH   1   9
ATOM      4  C   UNL     1      -0.953  11.254  20.324  0.00  0.00    +0.000 A 
ATOM      5  C   UNL     1      -0.669   9.982  20.850  0.00  0.00    +0.000 A 
ATOM      6  C   UNL     1      -0.647   9.757  22.226  0.00  0.00    +0.000 A 
ATOM      7  C   UNL     1      -0.874  10.807  23.102  0.00  0.00    +0.000 A 
ATOM      8  C   UNL     1      -1.098  12.093  22.606  0.00  0.00    +0.000 A 
ATOM      9  C   UNL     1      -1.137  12.337  21.221  0.00  0.00    +0.000 A 
BRANCH   4  10
ATOM     10  O   UNL     1      -1.110  11.463  18.966  0.00  0.00    +0.000 OA
BRANCH  10  12
ATOM     11  C   UNL     1      -1.796   9.965  17.157  0.00  0.00    +0.000 C 
ATOM     12  C   UNL     1      -0.704  10.357  18.137  0.00  0.00    +0.000 C 
ENDBRANCH  10  12
ENDBRANCH   4  10
ENDBRANCH   1   9
BRANCH   2  13
ATOM     13  C   UNL     1      -3.920  13.281  20.861  0.00  0.00    +0.000 A 
ATOM     14  S   UNL     1      -4.720  12.924  22.334  0.00  0.00    +0.000 S 
ATOM     15  N   UNL     1      -5.985  12.092  21.677  0.00  0.00    +0.000 NA
ATOM     16  C   UNL     1      -5.732  11.881  20.376  0.00  0.00    +0.000 A 
ATOM     17  C   UNL     1      -4.502  12.476  19.893  0.00  0.00    +0.000 A 
BRANCH  16  18
ATOM     18  C   UNL     1      -6.698  11.114  19.571  0.00  0.00    +0.000 C 
ATOM     19  N   UNL     1      -7.750  10.590  20.278  0.00  0.00    +0.000 N 
ATOM     20  O   UNL     1      -6.618  10.958  18.355  0.00  0.00    +0.000 OA
ATOM     21  H   UNL     1      -7.816  10.768  21.273  0.00  0.00    +0.000 HD
ATOM     22  H   UNL     1      -8.493  10.117  19.788  0.00  0.00    +0.000 HD
ENDBRANCH  16  18
BRANCH  17  23
ATOM     23  N   UNL     1      -4.026  12.323  18.632  0.00  0.00    +0.000 N 
ATOM     24  H   UNL     1      -3.229  12.885  18.318  0.00  0.00    +0.000 HD
ATOM     25  H   UNL     1      -4.643  12.039  17.871  0.00  0.00    +0.000 HD
ENDBRANCH  17  23
ENDBRANCH   2  13
BRANCH   1  26
ATOM     26  C   UNL     1      -0.298  14.609  20.777  0.00  0.00    +0.000 C 
BRANCH  26  27
ATOM     27  C   UNL     1       0.893  14.236  19.904  0.00  0.00    +0.000 A 
ATOM     28  C   UNL     1       1.894  13.288  20.072  0.00  0.00    +0.000 A 
ATOM     29  C   UNL     1       2.762  13.383  18.963  0.00  0.00    +0.000 A 
ATOM     30  C   UNL     1       2.257  14.400  18.178  0.00  0.00    +0.000 A 
ATOM     31  O   UNL     1       1.132  14.930  18.745  0.00  0.00    +0.000 OA
ENDBRANCH  26  27
BRANCH  26  32
ATOM     32  C   UNL     1       0.189  14.998  22.201  0.00  0.00    +0.000 C 
ATOM     33  O   UNL     1       1.327  14.722  22.592  0.00  0.00    +0.000 OA
ATOM     34  N   UNL     1      -0.715  15.661  23.016  0.00  0.00    +0.000 N 
ATOM     35  H   UNL     1      -1.467  16.149  22.525  0.00  0.00    +0.000 HD
BRANCH  34  36
ATOM     36  C   UNL     1      -0.377  16.088  24.357  0.00  0.00    +0.000 C 
ATOM     37  C   UNL     1       0.019  17.558  24.426  0.00  0.00    +0.000 C 
ATOM     38  C   UNL     1      -0.149  17.919  25.896  0.00  0.00    +0.000 C 
ATOM     39  C   UNL     1      -1.235  16.991  26.439  0.00  0.00    +0.000 C 
ATOM     40  C   UNL     1      -1.559  16.004  25.319  0.00  0.00    +0.000 C 
ENDBRANCH  34  36
ENDBRANCH  26  32
ENDBRANCH   1  26
TORSDOF 10
ENDMDL
MODEL 4
REMARK VINA RESULT:      -5.9      3.100      6.558
REMARK  Name = 
REMARK  11 active torsions:
REMARK  status: ('A' for Active; 'I' for Inactive)
REMARK    1  A    between atoms: C_1  and  C_2
REMARK    2  A    between atoms: C_2  and  O_3
REMARK    3  A    between atoms: O_3  and  C_4
REMARK    4  A    between atoms: C_9  and  N_10
REMARK    5  A    between atoms: N_10  and  C_22
REMARK    6  A    between atoms: C_11  and  C_13
REMARK    7  A    between atoms: C_16  and  C_17
REMARK    8  A    between atoms: C_20  and  N_21
REMARK    9  A    between atoms: C_22  and  C_23
REMARK   10  A    between atoms: C_22  and  C_31
REMARK   11  A    between atoms: N_25  and  C_26
REMARK                            x       y       z     vdW  Elec       q    Type
REMARK                         _______ _______ _______ _____ _____    ______ ____
ROOT
ATOM      1  N   UNL     1      -0.054  12.978  20.673  0.00  0.00    +0.000 N 
ATOM      2  C   UNL     1      -1.132  13.651  20.046  0.00  0.00    +0.000 C 
ATOM      3  O   UNL     1      -1.080  14.877  19.884  0.00  0.00    +0.000 OA
ENDROOT
BRANCH   1   9
ATOM      4  C   UNL     1       0.057  10.488  20.427  0.00  0.00    +0.000 A 
ATOM      5  C   UNL     1      -0.102   9.227  21.026  0.00  0.00    +0.000 A 
ATOM      6  C   UNL     1      -0.557   9.102  22.338  0.00  0.00    +0.000 A 
ATOM      7  C   UNL     1      -0.829  10.237  23.087  0.00  0.00    +0.000 A 
ATOM      8  C   UNL     1      -0.621  11.503  22.535  0.00  0.00    +0.000 A 
ATOM      9  C   UNL     1      -0.175  11.648  21.209  0.00  0.00    +0.000 A 
BRANCH   4  10
ATOM     10  O   UNL     1       0.378  10.625  19.090  0.00  0.00    +0.000 OA
BRANCH  10  12
ATOM     11  C   UNL     1       1.680   9.001  17.802  0.00  0.00    +0.000 C 
ATOM     12  C   UNL     1       1.708  10.192  18.744  0.00  0.00    +0.000 C 
ENDBRANCH  10  12
ENDBRANCH   4  10
ENDBRANCH   1   9
BRANCH   2  13
ATOM     13  C   UNL     1      -2.305  12.905  19.582  0.00  0.00    +0.000 A 
ATOM     14  S   UNL     1      -3.667  12.577  20.569  0.00  0.00    +0.000 S 
ATOM     15  N   UNL     1      -4.630  11.956  19.381  0.00  0.00    +0.000 NA
ATOM     16  C   UNL     1      -3.891  11.785  18.274  0.00  0.00    +0.000 A 
ATOM     17  C   UNL     1      -2.518  12.238  18.384  0.00  0.00    +0.000 A 
BRANCH  16  18
ATOM     18  C   UNL     1      -4.515  11.197  17.075  0.00  0.00    +0.000 C 
ATOM     19  N   UNL     1      -5.845  11.490  16.917  0.00  0.00    +0.000 N 
ATOM     20  O   UNL     1      -3.917  10.517  16.246  0.00  0.00    +0.000 OA
ATOM     21  H   UNL     1      -6.306  12.088  17.593  0.00  0.00    +0.000 HD
ATOM     22  H   UNL     1      -6.325  11.189  16.083  0.00  0.00    +0.000 HD
ENDBRANCH  16  18
BRANCH  17  23
ATOM     23  N   UNL     1      -1.587  12.093  17.409  0.00  0.00    +0.000 N 
ATOM     24  H   UNL     1      -0.965  11.279  17.418  0.00  0.00    +0.000 HD
ATOM     25  H   UNL     1      -1.177  12.907  16.951  0.00  0.00    +0.000 HD
ENDBRANCH  17  23
ENDBRANCH   2  13
BRANCH   1  26
ATOM     26  C   UNL     1       1.077  13.769  21.227  0.00  0.00    +0.000 C 
BRANCH  26  27
ATOM     27  C   UNL     1       0.710  15.009  22.032  0.00  0.00    +0.000 A 
ATOM     28  C   UNL     1      -0.123  15.178  23.131  0.00  0.00    +0.000 A 
ATOM     29  C   UNL     1      -0.117  16.550  23.464  0.00  0.00    +0.000 A 
ATOM     30  C   UNL     1       0.710  17.157  22.540  0.00  0.00    +0.000 A 
ATOM     31  O   UNL     1       1.206  16.234  21.662  0.00  0.00    +0.000 OA
ENDBRANCH  26  27
BRANCH  26  32
ATOM     32  C   UNL     1       2.171  14.120  20.181  0.00  0.00    +0.000 C 
ATOM     33  O   UNL     1       2.018  13.878  18.980  0.00  0.00    +0.000 OA
ATOM     34  N   UNL     1       3.331  14.710  20.658  0.00  0.00    +0.000 N 
ATOM     35  H   UNL     1       3.240  15.185  21.559  0.00  0.00    +0.000 HD
BRANCH  34  36
ATOM     36  C   UNL     1       4.417  15.096  19.782  0.00  0.00    +0.000 C 
ATOM     37  C   UNL     1       4.326  16.550  19.335  0.00  0.00    +0.000 C 
ATOM     38  C   UNL     1       5.738  16.884  18.871  0.00  0.00    +0.000 C 
ATOM     39  C   UNL     1       6.673  15.981  19.673  0.00  0.00    +0.000 C 
ATOM     40  C   UNL     1       5.780  15.031  20.467  0.00  0.00    +0.000 C 
ENDBRANCH  34  36
ENDBRANCH  26  32
ENDBRANCH   1  26
TORSDOF 10
ENDMDL
MODEL 5
REMARK VINA RESULT:      -5.9      3.071      6.332
REMARK  Name = 
REMARK  11 active torsions:
REMARK  status: ('A' for Active; 'I' for Inactive)
REMARK    1  A    between atoms: C_1  and  C_2
REMARK    2  A    between atoms: C_2  and  O_3
REMARK    3  A    between atoms: O_3  and  C_4
REMARK    4  A    between atoms: C_9  and  N_10
REMARK    5  A    between atoms: N_10  and  C_22
REMARK    6  A    between atoms: C_11  and  C_13
REMARK    7  A    between atoms: C_16  and  C_17
REMARK    8  A    between atoms: C_20  and  N_21
REMARK    9  A    between atoms: C_22  and  C_23
REMARK   10  A    between atoms: C_22  and  C_31
REMARK   11  A    between atoms: N_25  and  C_26
REMARK                            x       y       z     vdW  Elec       q    Type
REMARK                         _______ _______ _______ _____ _____    ______ ____
ROOT
ATOM      1  N   UNL     1       0.011  13.141  20.936  0.00  0.00    +0.000 N 
ATOM      2  C   UNL     1      -0.975  13.719  20.097  0.00  0.00    +0.000 C 
ATOM      3  O   UNL     1      -0.951  14.935  19.868  0.00  0.00    +0.000 OA
ENDROOT
BRANCH   1   9
ATOM      4  C   UNL     1       0.378  10.664  20.926  0.00  0.00    +0.000 A 
ATOM      5  C   UNL     1       0.169   9.429  21.564  0.00  0.00    +0.000 A 
ATOM      6  C   UNL     1      -0.600   9.335  22.723  0.00  0.00    +0.000 A 
ATOM      7  C   UNL     1      -1.146  10.479  23.285  0.00  0.00    +0.000 A 
ATOM      8  C   UNL     1      -0.903  11.726  22.706  0.00  0.00    +0.000 A 
ATOM      9  C   UNL     1      -0.140  11.839  21.528  0.00  0.00    +0.000 A 
BRANCH   4  10
ATOM     10  O   UNL     1       1.024  10.755  19.707  0.00  0.00    +0.000 OA
BRANCH  10  12
ATOM     11  C   UNL     1       1.348   9.204  17.842  0.00  0.00    +0.000 C 
ATOM     12  C   UNL     1       1.681   9.545  19.284  0.00  0.00    +0.000 C 
ENDBRANCH  10  12
ENDBRANCH   4  10
ENDBRANCH   1   9
BRANCH   2  13
ATOM     13  C   UNL     1      -2.018  12.885  19.492  0.00  0.00    +0.000 A 
ATOM     14  S   UNL     1      -3.567  12.656  20.191  0.00  0.00    +0.000 S 
ATOM     15  N   UNL     1      -4.243  11.855  18.916  0.00  0.00    +0.000 NA
ATOM     16  C   UNL     1      -3.277  11.556  18.034  0.00  0.00    +0.000 A 
ATOM     17  C   UNL     1      -1.962  12.057  18.381  0.00  0.00    +0.000 A 
BRANCH  16  18
ATOM     18  C   UNL     1      -3.621  10.795  16.820  0.00  0.00    +0.000 C 
ATOM     19  N   UNL     1      -4.850  11.087  16.287  0.00  0.00    +0.000 N 
ATOM     20  O   UNL     1      -2.880   9.977  16.282  0.00  0.00    +0.000 OA
ATOM     21  H   UNL     1      -5.426  11.796  16.725  0.00  0.00    +0.000 HD
ATOM     22  H   UNL     1      -5.127  10.665  15.414  0.00  0.00    +0.000 HD
ENDBRANCH  16  18
BRANCH  17  23
ATOM     23  N   UNL     1      -0.837  11.807  17.664  0.00  0.00    +0.000 N 
ATOM     24  H   UNL     1       0.069  11.767  18.140  0.00  0.00    +0.000 HD
ATOM     25  H   UNL     1      -0.767  12.088  16.687  0.00  0.00    +0.000 HD
ENDBRANCH  17  23
ENDBRANCH   2  13
BRANCH   1  26
ATOM     26  C   UNL     1       0.994  14.023  21.619  0.00  0.00    +0.000 C 
BRANCH  26  27
ATOM     27  C   UNL     1       0.443  15.289  22.261  0.00  0.00    +0.000 A 
ATOM     28  C   UNL     1      -0.583  15.484  23.177  0.00  0.00    +0.000 A 
ATOM     29  C   UNL     1      -0.685  16.871  23.414  0.00  0.00    +0.000 A 
ATOM     30  C   UNL     1       0.276  17.461  22.617  0.00  0.00    +0.000 A 
ATOM     31  O   UNL     1       0.956  16.512  21.906  0.00  0.00    +0.000 OA
ENDBRANCH  26  27
BRANCH  26  32
ATOM     32  C   UNL     1       2.239  14.364  20.754  0.00  0.00    +0.000 C 
ATOM     33  O   UNL     1       3.355  13.907  21.020  0.00  0.00    +0.000 OA
ATOM     34  N   UNL     1       2.043  15.211  19.675  0.00  0.00    +0.000 N 
ATOM     35  H   UNL     1       1.084  15.254  19.323  0.00  0.00    +0.000 HD
BRANCH  34  36
ATOM     36  C   UNL     1       3.120  15.593  18.787  0.00  0.00    +0.000 C 
ATOM     37  C   UNL     1       4.206  16.399  19.491  0.00  0.00    +0.000 C 
ATOM     38  C   UNL     1       5.415  16.273  18.573  0.00  0.00    +0.000 C 
ATOM     39  C   UNL     1       5.258  14.938  17.847  0.00  0.00    +0.000 C 
ATOM     40  C   UNL     1       3.885  14.393  18.235  0.00  0.00    +0.000 C 
ENDBRANCH  34  36
ENDBRANCH  26  32
ENDBRANCH   1  26
TORSDOF 10
ENDMDL
MODEL 6
REMARK VINA RESULT:      -5.9      2.287      3.855
REMARK  Name = 
REMARK  11 active torsions:
REMARK  status: ('A' for Active; 'I' for Inactive)
REMARK    1  A    between atoms: C_1  and  C_2
REMARK    2  A    between atoms: C_2  and  O_3
REMARK    3  A    between atoms: O_3  and  C_4
REMARK    4  A    between atoms: C_9  and  N_10
REMARK    5  A    between atoms: N_10  and  C_22
REMARK    6  A    between atoms: C_11  and  C_13
REMARK    7  A    between atoms: C_16  and  C_17
REMARK    8  A    between atoms: C_20  and  N_21
REMARK    9  A    between atoms: C_22  and  C_23
REMARK   10  A    between atoms: C_22  and  C_31
REMARK   11  A    between atoms: N_25  and  C_26
REMARK                            x       y       z     vdW  Elec       q    Type
REMARK                         _______ _______ _______ _____ _____    ______ ____
ROOT
ATOM      1  N   UNL     1      -1.476  11.799  19.686  0.00  0.00    +0.000 N 
ATOM      2  C   UNL     1      -0.692  12.716  18.941  0.00  0.00    +0.000 C 
ATOM      3  O   UNL     1      -1.134  13.183  17.884  0.00  0.00    +0.000 OA
ENDROOT
BRANCH   1   9
ATOM      4  C   UNL     1      -1.091  11.223  22.093  0.00  0.00    +0.000 A 
ATOM      5  C   UNL     1      -0.497  10.357  23.026  0.00  0.00    +0.000 A 
ATOM      6  C   UNL     1       0.314   9.299  22.618  0.00  0.00    +0.000 A 
ATOM      7  C   UNL     1       0.519   9.067  21.266  0.00  0.00    +0.000 A 
ATOM      8  C   UNL     1      -0.108   9.876  20.316  0.00  0.00    +0.000 A 
ATOM      9  C   UNL     1      -0.919  10.956  20.710  0.00  0.00    +0.000 A 
BRANCH   4  10
ATOM     10  O   UNL     1      -1.786  12.351  22.484  0.00  0.00    +0.000 OA
BRANCH  10  12
ATOM     11  C   UNL     1      -3.308  13.397  24.091  0.00  0.00    +0.000 C 
ATOM     12  C   UNL     1      -2.836  12.108  23.440  0.00  0.00    +0.000 C 
ENDBRANCH  10  12
ENDBRANCH   4  10
ENDBRANCH   1   9
BRANCH   2  13
ATOM     13  C   UNL     1       0.634  13.120  19.417  0.00  0.00    +0.000 A 
ATOM     14  S   UNL     1       2.097  12.536  18.742  0.00  0.00    +0.000 S 
ATOM     15  N   UNL     1       3.112  13.547  19.563  0.00  0.00    +0.000 NA
ATOM     16  C   UNL     1       2.407  14.191  20.506  0.00  0.00    +0.000 A 
ATOM     17  C   UNL     1       0.988  13.898  20.509  0.00  0.00    +0.000 A 
BRANCH  16  18
ATOM     18  C   UNL     1       3.100  15.126  21.410  0.00  0.00    +0.000 C 
ATOM     19  N   UNL     1       4.462  15.175  21.252  0.00  0.00    +0.000 N 
ATOM     20  O   UNL     1       2.536  15.842  22.232  0.00  0.00    +0.000 OA
ATOM     21  H   UNL     1       4.900  14.605  20.539  0.00  0.00    +0.000 HD
ATOM     22  H   UNL     1       4.999  15.844  21.780  0.00  0.00    +0.000 HD
ENDBRANCH  16  18
BRANCH  17  23
ATOM     23  N   UNL     1       0.111  14.386  21.422  0.00  0.00    +0.000 N 
ATOM     24  H   UNL     1       0.129  15.381  21.663  0.00  0.00    +0.000 HD
ATOM     25  H   UNL     1      -0.241  13.796  22.177  0.00  0.00    +0.000 HD
ENDBRANCH  17  23
ENDBRANCH   2  13
BRANCH   1  26
ATOM     26  C   UNL     1      -2.771  11.327  19.130  0.00  0.00    +0.000 C 
BRANCH  26  27
ATOM     27  C   UNL     1      -2.767  10.883  17.673  0.00  0.00    +0.000 A 
ATOM     28  C   UNL     1      -2.087   9.858  17.027  0.00  0.00    +0.000 A 
ATOM     29  C   UNL     1      -2.435   9.910  15.661  0.00  0.00    +0.000 A 
ATOM     30  C   UNL     1      -3.301  10.979  15.534  0.00  0.00    +0.000 A 
ATOM     31  O   UNL     1      -3.498  11.581  16.745  0.00  0.00    +0.000 OA
ENDBRANCH  26  27
BRANCH  26  32
ATOM     32  C   UNL     1      -3.956  12.300  19.385  0.00  0.00    +0.000 C 
ATOM     33  O   UNL     1      -5.078  12.088  18.914  0.00  0.00    +0.000 OA
ATOM     34  N   UNL     1      -3.696  13.420  20.157  0.00  0.00    +0.000 N 
ATOM     35  H   UNL     1      -2.887  13.344  20.778  0.00  0.00    +0.000 HD
BRANCH  34  36
ATOM     36  C   UNL     1      -4.719  14.394  20.476  0.00  0.00    +0.000 C 
ATOM     37  C   UNL     1      -5.672  13.912  21.564  0.00  0.00    +0.000 C 
ATOM     38  C   UNL     1      -6.317  15.190  22.084  0.00  0.00    +0.000 C 
ATOM     39  C   UNL     1      -5.295  16.303  21.856  0.00  0.00    +0.000 C 
ATOM     40  C   UNL     1      -4.148  15.681  21.063  0.00  0.00    +0.000 C 
ENDBRANCH  34  36
ENDBRANCH  26  32
ENDBRANCH   1  26
TORSDOF 10
ENDMDL
MODEL 7
REMARK VINA RESULT:      -5.8      1.860      4.515
REMARK  Name = 
REMARK  11 active torsions:
REMARK  status: ('A' for Active; 'I' for Inactive)
REMARK    1  A    between atoms: C_1  and  C_2
REMARK    2  A    between atoms: C_2  and  O_3
REMARK    3  A    between atoms: O_3  and  C_4
REMARK    4  A    between atoms: C_9  and  N_10
REMARK    5  A    between atoms: N_10  and  C_22
REMARK    6  A    between atoms: C_11  and  C_13
REMARK    7  A    between atoms: C_16  and  C_17
REMARK    8  A    between atoms: C_20  and  N_21
REMARK    9  A    between atoms: C_22  and  C_23
REMARK   10  A    between atoms: C_22  and  C_31
REMARK   11  A    between atoms: N_25  and  C_26
REMARK                            x       y       z     vdW  Elec       q    Type
REMARK                         _______ _______ _______ _____ _____    ______ ____
ROOT
ATOM      1  N   UNL     1      -1.136  14.253  21.099  0.00  0.00    +0.000 N 
ATOM      2  C   UNL     1      -0.201  15.312  20.978  0.00  0.00    +0.000 C 
ATOM      3  O   UNL     1      -0.495  16.441  21.391  0.00  0.00    +0.000 OA
ENDROOT
BRANCH   1   9
ATOM      4  C   UNL     1      -0.640  11.804  20.947  0.00  0.00    +0.000 A 
ATOM      5  C   UNL     1      -0.540  10.660  20.137  0.00  0.00    +0.000 A 
ATOM      6  C   UNL     1      -0.734  10.731  18.758  0.00  0.00    +0.000 A 
ATOM      7  C   UNL     1      -1.065  11.941  18.168  0.00  0.00    +0.000 A 
ATOM      8  C   UNL     1      -1.231  13.081  18.959  0.00  0.00    +0.000 A 
ATOM      9  C   UNL     1      -1.026  13.031  20.350  0.00  0.00    +0.000 A 
BRANCH   4  10
ATOM     10  O   UNL     1      -0.321  11.775  22.292  0.00  0.00    +0.000 OA
BRANCH  10  12
ATOM     11  C   UNL     1      -0.055   9.599  23.381  0.00  0.00    +0.000 C 
ATOM     12  C   UNL     1      -0.992  10.747  23.047  0.00  0.00    +0.000 C 
ENDBRANCH  10  12
ENDBRANCH   4  10
ENDBRANCH   1   9
BRANCH   2  13
ATOM     13  C   UNL     1       1.113  15.077  20.373  0.00  0.00    +0.000 A 
ATOM     14  S   UNL     1       2.311  14.075  21.080  0.00  0.00    +0.000 S 
ATOM     15  N   UNL     1       3.358  14.086  19.804  0.00  0.00    +0.000 NA
ATOM     16  C   UNL     1       2.941  15.000  18.913  0.00  0.00    +0.000 A 
ATOM     17  C   UNL     1       1.695  15.656  19.255  0.00  0.00    +0.000 A 
BRANCH  16  18
ATOM     18  C   UNL     1       3.737  15.234  17.696  0.00  0.00    +0.000 C 
ATOM     19  N   UNL     1       4.947  14.588  17.667  0.00  0.00    +0.000 N 
ATOM     20  O   UNL     1       3.369  15.923  16.748  0.00  0.00    +0.000 OA
ATOM     21  H   UNL     1       5.210  13.992  18.442  0.00  0.00    +0.000 HD
ATOM     22  H   UNL     1       5.516  14.636  16.836  0.00  0.00    +0.000 HD
ENDBRANCH  16  18
BRANCH  17  23
ATOM     23  N   UNL     1       1.137  16.658  18.530  0.00  0.00    +0.000 N 
ATOM     24  H   UNL     1       0.401  17.236  18.945  0.00  0.00    +0.000 HD
ATOM     25  H   UNL     1       1.074  16.595  17.514  0.00  0.00    +0.000 HD
ENDBRANCH  17  23
ENDBRANCH   2  13
BRANCH   1  26
ATOM     26  C   UNL     1      -2.499  14.541  21.621  0.00  0.00    +0.000 C 
BRANCH  26  27
ATOM     27  C   UNL     1      -2.601  14.906  23.096  0.00  0.00    +0.000 A 
ATOM     28  C   UNL     1      -3.482  15.736  23.778  0.00  0.00    +0.000 A 
ATOM     29  C   UNL     1      -3.106  15.731  25.139  0.00  0.00    +0.000 A 
ATOM     30  C   UNL     1      -1.999  14.909  25.219  0.00  0.00    +0.000 A 
ATOM     31  O   UNL     1      -1.679  14.415  23.986  0.00  0.00    +0.000 OA
ENDBRANCH  26  27
BRANCH  26  32
ATOM     32  C   UNL     1      -3.549  13.451  21.270  0.00  0.00    +0.000 C 
ATOM     33  O   UNL     1      -3.758  12.491  22.018  0.00  0.00    +0.000 OA
ATOM     34  N   UNL     1      -4.236  13.600  20.076  0.00  0.00    +0.000 N 
ATOM     35  H   UNL     1      -4.270  14.554  19.709  0.00  0.00    +0.000 HD
BRANCH  34  36
ATOM     36  C   UNL     1      -5.248  12.659  19.644  0.00  0.00    +0.000 C 
ATOM     37  C   UNL     1      -6.425  13.336  18.952  0.00  0.00    +0.000 C 
ATOM     38  C   UNL     1      -7.091  12.213  18.168  0.00  0.00    +0.000 C 
ATOM     39  C   UNL     1      -5.985  11.209  17.845  0.00  0.00    +0.000 C 
ATOM     40  C   UNL     1      -4.737  11.687  18.584  0.00  0.00    +0.000 C 
ENDBRANCH  34  36
ENDBRANCH  26  32
ENDBRANCH   1  26
TORSDOF 10
ENDMDL
MODEL 8
REMARK VINA RESULT:      -5.8      2.475      5.450
REMARK  Name = 
REMARK  11 active torsions:
REMARK  status: ('A' for Active; 'I' for Inactive)
REMARK    1  A    between atoms: C_1  and  C_2
REMARK    2  A    between atoms: C_2  and  O_3
REMARK    3  A    between atoms: O_3  and  C_4
REMARK    4  A    between atoms: C_9  and  N_10
REMARK    5  A    between atoms: N_10  and  C_22
REMARK    6  A    between atoms: C_11  and  C_13
REMARK    7  A    between atoms: C_16  and  C_17
REMARK    8  A    between atoms: C_20  and  N_21
REMARK    9  A    between atoms: C_22  and  C_23
REMARK   10  A    between atoms: C_22  and  C_31
REMARK   11  A    between atoms: N_25  and  C_26
REMARK                            x       y       z     vdW  Elec       q    Type
REMARK                         _______ _______ _______ _____ _____    ______ ____
ROOT
ATOM      1  N   UNL     1      -1.749  14.001  20.640  0.00  0.00    +0.000 N 
ATOM      2  C   UNL     1      -3.084  14.455  20.789  0.00  0.00    +0.000 C 
ATOM      3  O   UNL     1      -3.337  15.662  20.691  0.00  0.00    +0.000 OA
ENDROOT
BRANCH   1   9
ATOM      4  C   UNL     1      -1.139  11.616  20.179  0.00  0.00    +0.000 A 
ATOM      5  C   UNL     1      -0.733  10.373  20.694  0.00  0.00    +0.000 A 
ATOM      6  C   UNL     1      -0.585  10.172  22.066  0.00  0.00    +0.000 A 
ATOM      7  C   UNL     1      -0.806  11.220  22.946  0.00  0.00    +0.000 A 
ATOM      8  C   UNL     1      -1.151  12.481  22.457  0.00  0.00    +0.000 A 
ATOM      9  C   UNL     1      -1.318  12.700  21.077  0.00  0.00    +0.000 A 
BRANCH   4  10
ATOM     10  O   UNL     1      -1.419  11.794  18.837  0.00  0.00    +0.000 OA
BRANCH  10  12
ATOM     11  C   UNL     1      -2.310  10.045  17.375  0.00  0.00    +0.000 C 
ATOM     12  C   UNL     1      -1.076  10.673  17.999  0.00  0.00    +0.000 C 
ENDBRANCH  10  12
ENDBRANCH   4  10
ENDBRANCH   1   9
BRANCH   2  13
ATOM     13  C   UNL     1      -4.168  13.503  21.049  0.00  0.00    +0.000 A 
ATOM     14  S   UNL     1      -4.765  13.158  22.618  0.00  0.00    +0.000 S 
ATOM     15  N   UNL     1      -6.056  12.246  22.145  0.00  0.00    +0.000 NA
ATOM     16  C   UNL     1      -5.952  12.003  20.828  0.00  0.00    +0.000 A 
ATOM     17  C   UNL     1      -4.821  12.639  20.182  0.00  0.00    +0.000 A 
BRANCH  16  18
ATOM     18  C   UNL     1      -6.967  11.164  20.169  0.00  0.00    +0.000 C 
ATOM     19  N   UNL     1      -7.525  10.200  20.969  0.00  0.00    +0.000 N 
ATOM     20  O   UNL     1      -7.333  11.305  19.005  0.00  0.00    +0.000 OA
ATOM     21  H   UNL     1      -7.236  10.130  21.937  0.00  0.00    +0.000 HD
ATOM     22  H   UNL     1      -8.281   9.636  20.613  0.00  0.00    +0.000 HD
ENDBRANCH  16  18
BRANCH  17  23
ATOM     23  N   UNL     1      -4.492  12.465  18.877  0.00  0.00    +0.000 N 
ATOM     24  H   UNL     1      -5.093  12.858  18.146  0.00  0.00    +0.000 HD
ATOM     25  H   UNL     1      -3.975  11.641  18.573  0.00  0.00    +0.000 HD
ENDBRANCH  17  23
ENDBRANCH   2  13
BRANCH   1  26
ATOM     26  C   UNL     1      -0.655  14.995  20.480  0.00  0.00    +0.000 C 
BRANCH  26  27
ATOM     27  C   UNL     1       0.748  14.438  20.274  0.00  0.00    +0.000 A 
ATOM     28  C   UNL     1       1.390  13.963  19.139  0.00  0.00    +0.000 A 
ATOM     29  C   UNL     1       2.683  13.545  19.523  0.00  0.00    +0.000 A 
ATOM     30  C   UNL     1       2.761  13.771  20.883  0.00  0.00    +0.000 A 
ATOM     31  O   UNL     1       1.590  14.300  21.349  0.00  0.00    +0.000 OA
ENDBRANCH  26  27
BRANCH  26  32
ATOM     32  C   UNL     1      -0.635  16.091  21.581  0.00  0.00    +0.000 C 
ATOM     33  O   UNL     1      -0.376  17.269  21.315  0.00  0.00    +0.000 OA
ATOM     34  N   UNL     1      -0.914  15.686  22.877  0.00  0.00    +0.000 N 
ATOM     35  H   UNL     1      -1.445  14.817  22.957  0.00  0.00    +0.000 HD
BRANCH  34  36
ATOM     36  C   UNL     1      -0.939  16.615  23.987  0.00  0.00    +0.000 C 
ATOM     37  C   UNL     1      -2.307  17.255  24.189  0.00  0.00    +0.000 C 
ATOM     38  C   UNL     1      -2.267  17.772  25.621  0.00  0.00    +0.000 C 
ATOM     39  C   UNL     1      -1.299  16.861  26.373  0.00  0.00    +0.000 C 
ATOM     40  C   UNL     1      -0.674  15.937  25.329  0.00  0.00    +0.000 C 
ENDBRANCH  34  36
ENDBRANCH  26  32
ENDBRANCH   1  26
TORSDOF 10
ENDMDL
MODEL 9
REMARK VINA RESULT:      -5.7      2.659      6.107
REMARK  Name = 
REMARK  11 active torsions:
REMARK  status: ('A' for Active; 'I' for Inactive)
REMARK    1  A    between atoms: C_1  and  C_2
REMARK    2  A    between atoms: C_2  and  O_3
REMARK    3  A    between atoms: O_3  and  C_4
REMARK    4  A    between atoms: C_9  and  N_10
REMARK    5  A    between atoms: N_10  and  C_22
REMARK    6  A    between atoms: C_11  and  C_13
REMARK    7  A    between atoms: C_16  and  C_17
REMARK    8  A    between atoms: C_20  and  N_21
REMARK    9  A    between atoms: C_22  and  C_23
REMARK   10  A    between atoms: C_22  and  C_31
REMARK   11  A    between atoms: N_25  and  C_26
REMARK                            x       y       z     vdW  Elec       q    Type
REMARK                         _______ _______ _______ _____ _____    ______ ____
ROOT
ATOM      1  N   UNL     1      -0.292  13.444  21.245  0.00  0.00    +0.000 N 
ATOM      2  C   UNL     1      -1.258  13.906  20.315  0.00  0.00    +0.000 C 
ATOM      3  O   UNL     1      -1.415  15.121  20.146  0.00  0.00    +0.000 OA
ENDROOT
BRANCH   1   9
ATOM      4  C   UNL     1      -1.154  11.674  22.793  0.00  0.00    +0.000 A 
ATOM      5  C   UNL     1      -1.068  10.346  23.243  0.00  0.00    +0.000 A 
ATOM      6  C   UNL     1      -0.099   9.475  22.747  0.00  0.00    +0.000 A 
ATOM      7  C   UNL     1       0.780   9.905  21.765  0.00  0.00    +0.000 A 
ATOM      8  C   UNL     1       0.677  11.202  21.256  0.00  0.00    +0.000 A 
ATOM      9  C   UNL     1      -0.285  12.099  21.754  0.00  0.00    +0.000 A 
BRANCH   4  10
ATOM     10  O   UNL     1      -2.018  12.586  23.369  0.00  0.00    +0.000 OA
BRANCH  10  12
ATOM     11  C   UNL     1      -4.271  13.145  24.144  0.00  0.00    +0.000 C 
ATOM     12  C   UNL     1      -3.307  12.049  23.724  0.00  0.00    +0.000 C 
ENDBRANCH  10  12
ENDBRANCH   4  10
ENDBRANCH   1   9
BRANCH   2  13
ATOM     13  C   UNL     1      -2.066  12.953  19.548  0.00  0.00    +0.000 A 
ATOM     14  S   UNL     1      -3.667  12.515  19.974  0.00  0.00    +0.000 S 
ATOM     15  N   UNL     1      -4.008  11.652  18.610  0.00  0.00    +0.000 NA
ATOM     16  C   UNL     1      -2.875  11.494  17.907  0.00  0.00    +0.000 A 
ATOM     17  C   UNL     1      -1.715  12.155  18.469  0.00  0.00    +0.000 A 
BRANCH  16  18
ATOM     18  C   UNL     1      -2.907  10.712  16.658  0.00  0.00    +0.000 C 
ATOM     19  N   UNL     1      -3.158  11.445  15.527  0.00  0.00    +0.000 N 
ATOM     20  O   UNL     1      -2.701   9.503  16.592  0.00  0.00    +0.000 OA
ATOM     21  H   UNL     1      -3.283  12.447  15.602  0.00  0.00    +0.000 HD
ATOM     22  H   UNL     1      -3.120  10.996  14.625  0.00  0.00    +0.000 HD
ENDBRANCH  16  18
BRANCH  17  23
ATOM     23  N   UNL     1      -0.462  12.063  17.956  0.00  0.00    +0.000 N 
ATOM     24  H   UNL     1      -0.307  12.236  16.959  0.00  0.00    +0.000 HD
ATOM     25  H   UNL     1       0.225  11.430  18.366  0.00  0.00    +0.000 HD
ENDBRANCH  17  23
ENDBRANCH   2  13
BRANCH   1  26
ATOM     26  C   UNL     1       0.441  14.429  22.084  0.00  0.00    +0.000 C 
BRANCH  26  27
ATOM     27  C   UNL     1      -0.403  15.302  23.004  0.00  0.00    +0.000 A 
ATOM     28  C   UNL     1      -1.113  16.471  22.765  0.00  0.00    +0.000 A 
ATOM     29  C   UNL     1      -1.699  16.871  23.985  0.00  0.00    +0.000 A 
ATOM     30  C   UNL     1      -1.302  15.933  24.917  0.00  0.00    +0.000 A 
ATOM     31  O   UNL     1      -0.508  14.986  24.335  0.00  0.00    +0.000 OA
ENDBRANCH  26  27
BRANCH  26  32
ATOM     32  C   UNL     1       1.443  15.311  21.288  0.00  0.00    +0.000 C 
ATOM     33  O   UNL     1       2.051  16.242  21.824  0.00  0.00    +0.000 OA
ATOM     34  N   UNL     1       1.618  15.011  19.946  0.00  0.00    +0.000 N 
ATOM     35  H   UNL     1       1.372  14.055  19.678  0.00  0.00    +0.000 HD
BRANCH  34  36
ATOM     36  C   UNL     1       2.532  15.750  19.102  0.00  0.00    +0.000 C 
ATOM     37  C   UNL     1       3.162  14.885  18.017  0.00  0.00    +0.000 C 
ATOM     38  C   UNL     1       3.662  15.889  16.986  0.00  0.00    +0.000 C 
ATOM     39  C   UNL     1       2.747  17.107  17.103  0.00  0.00    +0.000 C 
ATOM     40  C   UNL     1       1.840  16.853  18.305  0.00  0.00    +0.000 C 
ENDBRANCH  34  36
ENDBRANCH  26  32
ENDBRANCH   1  26
TORSDOF 10
ENDMDL
