MODEL 1
REMARK VINA RESULT:      -6.1      0.000      0.000
REMARK  Name = 
REMARK  21 active torsions:
REMARK  status: ('A' for Active; 'I' for Inactive)
REMARK    1  A    between atoms: C_1  and  C_2
REMARK    2  A    between atoms: C_2  and  C_3
REMARK    3  A    between atoms: C_3  and  C_4
REMARK    4  A    between atoms: C_4  and  C_5
REMARK    5  A    between atoms: C_5  and  C_6
REMARK    6  A    between atoms: C_6  and  C_7
REMARK    7  A    between atoms: C_7  and  C_8
REMARK    8  A    between atoms: C_8  and  C_9
REMARK    9  A    between atoms: C_9  and  C_10
REMARK   10  A    between atoms: C_10  and  C_11
REMARK   11  A    between atoms: C_11  and  C_12
REMARK   12  A    between atoms: C_12  and  C_13
REMARK   13  A    between atoms: C_13  and  C_14
REMARK   14  A    between atoms: C_14  and  C_15
REMARK   15  A    between atoms: C_15  and  C_17
REMARK   16  A    between atoms: N_19  and  C_20
REMARK   17  A    between atoms: C_20  and  C_21
REMARK   18  A    between atoms: C_21  and  C_22
REMARK   19  A    between atoms: C_22  and  C_23
REMARK   20  A    between atoms: C_23  and  C_24
REMARK   21  A    between atoms: C_24  and  C_25
REMARK                            x       y       z     vdW  Elec       q    Type
REMARK                         _______ _______ _______ _____ _____    ______ ____
ROOT
ATOM      1  C   UNL     1       7.135   5.553  18.121  0.00  0.00    +0.000 C 
ENDROOT
BRANCH   1   2
ATOM      2  C   UNL     1       5.807   5.614  18.865  0.00  0.00    +0.000 C 
BRANCH   2   3
ATOM      3  C   UNL     1       5.242   4.210  19.045  0.00  0.00    +0.000 C 
BRANCH   3   4
ATOM      4  C   UNL     1       4.143   3.951  18.028  0.00  0.00    +0.000 C 
BRANCH   4   5
ATOM      5  C   UNL     1       3.832   2.467  17.962  0.00  0.00    +0.000 C 
BRANCH   5   6
ATOM      6  C   UNL     1       2.331   2.254  17.911  0.00  0.00    +0.000 C 
BRANCH   6   7
ATOM      7  C   UNL     1       1.615   3.501  18.395  0.00  0.00    +0.000 C 
BRANCH   7   8
ATOM      8  C   UNL     1       0.676   3.149  19.533  0.00  0.00    +0.000 C 
BRANCH   8   9
ATOM      9  C   UNL     1       1.258   3.627  20.850  0.00  0.00    +0.000 C 
BRANCH   9  10
ATOM     10  C   UNL     1       2.208   4.785  20.608  0.00  0.00    +0.000 C 
BRANCH  10  11
ATOM     11  C   UNL     1       1.428   6.084  20.492  0.00  0.00    +0.000 C 
BRANCH  11  13
ATOM     12  C   UNL     1       2.274   7.167  18.415  0.00  0.00    +0.000 C 
ATOM     13  C   UNL     1       2.314   7.185  19.930  0.00  0.00    +0.000 C 
ENDBRANCH  11  13
ENDBRANCH  10  11
ENDBRANCH   9  10
ENDBRANCH   8   9
ENDBRANCH   7   8
ENDBRANCH   6   7
ENDBRANCH   5   6
ENDBRANCH   4   5
ENDBRANCH   3   4
ENDBRANCH   2   3
ENDBRANCH   1   2
BRANCH   1  14
ATOM     14  C   UNL     1       6.965   5.877  16.638  0.00  0.00    +0.000 C 
BRANCH  14  15
ATOM     15  C   UNL     1       6.944   4.617  15.796  0.00  0.00    +0.000 C 
ATOM     16  O   UNL     1       6.709   3.483  16.229  0.00  0.00    +0.000 OA
BRANCH  15  17
ATOM     17  C   UNL     1       7.231   4.777  14.299  0.00  0.00    +0.000 C 
ATOM     18  O   UNL     1       7.890   5.730  13.919  0.00  0.00    +0.000 OA
ATOM     19  N   UNL     1       6.699   3.792  13.486  0.00  0.00    +0.000 N 
ATOM     20  H   UNL     1       6.212   3.018  13.931  0.00  0.00    +0.000 HD
BRANCH  19  21
ATOM     21  C   UNL     1       6.914   3.799  12.049  0.00  0.00    +0.000 C 
BRANCH  21  22
ATOM     22  C   UNL     1       6.745   2.426  11.411  0.00  0.00    +0.000 C 
BRANCH  22  23
ATOM     23  C   UNL     1       5.274   2.061  11.239  0.00  0.00    +0.000 C 
BRANCH  23  24
ATOM     24  C   UNL     1       4.379   3.249  11.558  0.00  0.00    +0.000 C 
BRANCH  24  25
ATOM     25  C   UNL     1       3.084   3.164  10.759  0.00  0.00    +0.000 C 
ATOM     26  C   UNL     1       3.153   4.082   9.550  0.00  0.00    +0.000 C 
ENDBRANCH  24  25
ENDBRANCH  23  24
ENDBRANCH  22  23
ENDBRANCH  21  22
ENDBRANCH  19  21
ENDBRANCH  15  17
ENDBRANCH  14  15
ENDBRANCH   1  14
TORSDOF 19
ENDMDL
MODEL 2
REMARK VINA RESULT:      -6.0      3.276      4.585
REMARK  Name = 
REMARK  21 active torsions:
REMARK  status: ('A' for Active; 'I' for Inactive)
REMARK    1  A    between atoms: C_1  and  C_2
REMARK    2  A    between atoms: C_2  and  C_3
REMARK    3  A    between atoms: C_3  and  C_4
REMARK    4  A    between atoms: C_4  and  C_5
REMARK    5  A    between atoms: C_5  and  C_6
REMARK    6  A    between atoms: C_6  and  C_7
REMARK    7  A    between atoms: C_7  and  C_8
REMARK    8  A    between atoms: C_8  and  C_9
REMARK    9  A    between atoms: C_9  and  C_10
REMARK   10  A    between atoms: C_10  and  C_11
REMARK   11  A    between atoms: C_11  and  C_12
REMARK   12  A    between atoms: C_12  and  C_13
REMARK   13  A    between atoms: C_13  and  C_14
REMARK   14  A    between atoms: C_14  and  C_15
REMARK   15  A    between atoms: C_15  and  C_17
REMARK   16  A    between atoms: N_19  and  C_20
REMARK   17  A    between atoms: C_20  and  C_21
REMARK   18  A    between atoms: C_21  and  C_22
REMARK   19  A    between atoms: C_22  and  C_23
REMARK   20  A    between atoms: C_23  and  C_24
REMARK   21  A    between atoms: C_24  and  C_25
REMARK                            x       y       z     vdW  Elec       q    Type
REMARK                         _______ _______ _______ _____ _____    ______ ____
ROOT
ATOM      1  C   UNL     1       5.146   3.970  17.756  0.00  0.00    +0.000 C 
ENDROOT
BRANCH   1   2
ATOM      2  C   UNL     1       4.148   4.687  18.658  0.00  0.00    +0.000 C 
BRANCH   2   3
ATOM      3  C   UNL     1       4.055   6.158  18.270  0.00  0.00    +0.000 C 
BRANCH   3   4
ATOM      4  C   UNL     1       2.606   6.551  18.036  0.00  0.00    +0.000 C 
BRANCH   4   5
ATOM      5  C   UNL     1       2.290   7.841  18.772  0.00  0.00    +0.000 C 
BRANCH   5   6
ATOM      6  C   UNL     1       2.032   8.955  17.775  0.00  0.00    +0.000 C 
BRANCH   6   7
ATOM      7  C   UNL     1       0.760   9.695  18.143  0.00  0.00    +0.000 C 
BRANCH   7   8
ATOM      8  C   UNL     1       0.702   9.907  19.644  0.00  0.00    +0.000 C 
BRANCH   8   9
ATOM      9  C   UNL     1       0.949  11.368  19.970  0.00  0.00    +0.000 C 
BRANCH   9  10
ATOM     10  C   UNL     1       0.754  12.217  18.727  0.00  0.00    +0.000 C 
BRANCH  10  11
ATOM     11  C   UNL     1      -0.353  13.231  18.957  0.00  0.00    +0.000 C 
BRANCH  11  13
ATOM     12  C   UNL     1      -0.244  15.710  18.741  0.00  0.00    +0.000 C 
ATOM     13  C   UNL     1       0.216  14.512  19.547  0.00  0.00    +0.000 C 
ENDBRANCH  11  13
ENDBRANCH  10  11
ENDBRANCH   9  10
ENDBRANCH   8   9
ENDBRANCH   7   8
ENDBRANCH   6   7
ENDBRANCH   5   6
ENDBRANCH   4   5
ENDBRANCH   3   4
ENDBRANCH   2   3
ENDBRANCH   1   2
BRANCH   1  14
ATOM     14  C   UNL     1       5.308   4.684  16.416  0.00  0.00    +0.000 C 
BRANCH  14  15
ATOM     15  C   UNL     1       6.745   4.636  15.934  0.00  0.00    +0.000 C 
ATOM     16  O   UNL     1       7.736   4.616  16.673  0.00  0.00    +0.000 OA
BRANCH  15  17
ATOM     17  C   UNL     1       6.968   4.605  14.419  0.00  0.00    +0.000 C 
ATOM     18  O   UNL     1       7.721   5.420  13.912  0.00  0.00    +0.000 OA
ATOM     19  N   UNL     1       6.272   3.622  13.738  0.00  0.00    +0.000 N 
ATOM     20  H   UNL     1       5.716   2.968  14.284  0.00  0.00    +0.000 HD
BRANCH  19  21
ATOM     21  C   UNL     1       6.408   3.456  12.301  0.00  0.00    +0.000 C 
BRANCH  21  22
ATOM     22  C   UNL     1       5.245   2.698  11.673  0.00  0.00    +0.000 C 
BRANCH  22  23
ATOM     23  C   UNL     1       4.018   3.589  11.504  0.00  0.00    +0.000 C 
BRANCH  23  24
ATOM     24  C   UNL     1       3.153   3.109  10.347  0.00  0.00    +0.000 C 
BRANCH  24  25
ATOM     25  C   UNL     1       3.258   4.074   9.173  0.00  0.00    +0.000 C 
ATOM     26  C   UNL     1       2.046   4.990   9.137  0.00  0.00    +0.000 C 
ENDBRANCH  24  25
ENDBRANCH  23  24
ENDBRANCH  22  23
ENDBRANCH  21  22
ENDBRANCH  19  21
ENDBRANCH  15  17
ENDBRANCH  14  15
ENDBRANCH   1  14
TORSDOF 19
ENDMDL
MODEL 3
REMARK VINA RESULT:      -5.9      5.257      9.141
REMARK  Name = 
REMARK  21 active torsions:
REMARK  status: ('A' for Active; 'I' for Inactive)
REMARK    1  A    between atoms: C_1  and  C_2
REMARK    2  A    between atoms: C_2  and  C_3
REMARK    3  A    between atoms: C_3  and  C_4
REMARK    4  A    between atoms: C_4  and  C_5
REMARK    5  A    between atoms: C_5  and  C_6
REMARK    6  A    between atoms: C_6  and  C_7
REMARK    7  A    between atoms: C_7  and  C_8
REMARK    8  A    between atoms: C_8  and  C_9
REMARK    9  A    between atoms: C_9  and  C_10
REMARK   10  A    between atoms: C_10  and  C_11
REMARK   11  A    between atoms: C_11  and  C_12
REMARK   12  A    between atoms: C_12  and  C_13
REMARK   13  A    between atoms: C_13  and  C_14
REMARK   14  A    between atoms: C_14  and  C_15
REMARK   15  A    between atoms: C_15  and  C_17
REMARK   16  A    between atoms: N_19  and  C_20
REMARK   17  A    between atoms: C_20  and  C_21
REMARK   18  A    between atoms: C_21  and  C_22
REMARK   19  A    between atoms: C_22  and  C_23
REMARK   20  A    between atoms: C_23  and  C_24
REMARK   21  A    between atoms: C_24  and  C_25
REMARK                            x       y       z     vdW  Elec       q    Type
REMARK                         _______ _______ _______ _____ _____    ______ ____
ROOT
ATOM      1  C   UNL     1       7.073   6.366  16.983  0.00  0.00    +0.000 C 
ENDROOT
BRANCH   1   2
ATOM      2  C   UNL     1       7.771   7.231  18.026  0.00  0.00    +0.000 C 
BRANCH   2   3
ATOM      3  C   UNL     1       8.139   8.582  17.424  0.00  0.00    +0.000 C 
BRANCH   3   4
ATOM      4  C   UNL     1       8.543   9.554  18.520  0.00  0.00    +0.000 C 
BRANCH   4   5
ATOM      5  C   UNL     1       9.399  10.666  17.942  0.00  0.00    +0.000 C 
BRANCH   5   6
ATOM      6  C   UNL     1       8.668  11.991  18.049  0.00  0.00    +0.000 C 
BRANCH   6   7
ATOM      7  C   UNL     1       9.627  13.134  17.776  0.00  0.00    +0.000 C 
BRANCH   7   8
ATOM      8  C   UNL     1      10.927  12.595  17.212  0.00  0.00    +0.000 C 
BRANCH   8   9
ATOM      9  C   UNL     1      12.073  12.918  18.153  0.00  0.00    +0.000 C 
BRANCH   9  10
ATOM     10  C   UNL     1      11.531  13.285  19.523  0.00  0.00    +0.000 C 
BRANCH  10  11
ATOM     11  C   UNL     1      11.481  12.053  20.410  0.00  0.00    +0.000 C 
BRANCH  11  13
ATOM     12  C   UNL     1       9.830  13.534  21.542  0.00  0.00    +0.000 C 
ATOM     13  C   UNL     1      10.256  12.098  21.310  0.00  0.00    +0.000 C 
ENDBRANCH  11  13
ENDBRANCH  10  11
ENDBRANCH   9  10
ENDBRANCH   8   9
ENDBRANCH   7   8
ENDBRANCH   6   7
ENDBRANCH   5   6
ENDBRANCH   4   5
ENDBRANCH   3   4
ENDBRANCH   2   3
ENDBRANCH   1   2
BRANCH   1  14
ATOM     14  C   UNL     1       6.740   4.981  17.532  0.00  0.00    +0.000 C 
BRANCH  14  15
ATOM     15  C   UNL     1       5.937   5.072  18.815  0.00  0.00    +0.000 C 
ATOM     16  O   UNL     1       6.414   4.985  19.952  0.00  0.00    +0.000 OA
BRANCH  15  17
ATOM     17  C   UNL     1       4.428   5.297  18.676  0.00  0.00    +0.000 C 
ATOM     18  O   UNL     1       3.892   5.081  17.603  0.00  0.00    +0.000 OA
ATOM     19  N   UNL     1       3.788   5.740  19.820  0.00  0.00    +0.000 N 
ATOM     20  H   UNL     1       4.340   5.831  20.669  0.00  0.00    +0.000 HD
BRANCH  19  21
ATOM     21  C   UNL     1       2.354   5.969  19.844  0.00  0.00    +0.000 C 
BRANCH  21  22
ATOM     22  C   UNL     1       1.552   4.712  20.159  0.00  0.00    +0.000 C 
BRANCH  22  23
ATOM     23  C   UNL     1       2.147   3.944  21.334  0.00  0.00    +0.000 C 
BRANCH  23  24
ATOM     24  C   UNL     1       2.633   2.570  20.896  0.00  0.00    +0.000 C 
BRANCH  24  25
ATOM     25  C   UNL     1       2.133   2.257  19.491  0.00  0.00    +0.000 C 
ATOM     26  C   UNL     1       3.279   1.763  18.624  0.00  0.00    +0.000 C 
ENDBRANCH  24  25
ENDBRANCH  23  24
ENDBRANCH  22  23
ENDBRANCH  21  22
ENDBRANCH  19  21
ENDBRANCH  15  17
ENDBRANCH  14  15
ENDBRANCH   1  14
TORSDOF 19
ENDMDL
MODEL 4
REMARK VINA RESULT:      -5.9      4.819      7.955
REMARK  Name = 
REMARK  21 active torsions:
REMARK  status: ('A' for Active; 'I' for Inactive)
REMARK    1  A    between atoms: C_1  and  C_2
REMARK    2  A    between atoms: C_2  and  C_3
REMARK    3  A    between atoms: C_3  and  C_4
REMARK    4  A    between atoms: C_4  and  C_5
REMARK    5  A    between atoms: C_5  and  C_6
REMARK    6  A    between atoms: C_6  and  C_7
REMARK    7  A    between atoms: C_7  and  C_8
REMARK    8  A    between atoms: C_8  and  C_9
REMARK    9  A    between atoms: C_9  and  C_10
REMARK   10  A    between atoms: C_10  and  C_11
REMARK   11  A    between atoms: C_11  and  C_12
REMARK   12  A    between atoms: C_12  and  C_13
REMARK   13  A    between atoms: C_13  and  C_14
REMARK   14  A    between atoms: C_14  and  C_15
REMARK   15  A    between atoms: C_15  and  C_17
REMARK   16  A    between atoms: N_19  and  C_20
REMARK   17  A    between atoms: C_20  and  C_21
REMARK   18  A    between atoms: C_21  and  C_22
REMARK   19  A    between atoms: C_22  and  C_23
REMARK   20  A    between atoms: C_23  and  C_24
REMARK   21  A    between atoms: C_24  and  C_25
REMARK                            x       y       z     vdW  Elec       q    Type
REMARK                         _______ _______ _______ _____ _____    ______ ____
ROOT
ATOM      1  C   UNL     1       2.390   7.553  19.546  0.00  0.00    +0.000 C 
ENDROOT
BRANCH   1   2
ATOM      2  C   UNL     1       2.600   6.044  19.594  0.00  0.00    +0.000 C 
BRANCH   2   3
ATOM      3  C   UNL     1       1.635   5.413  20.591  0.00  0.00    +0.000 C 
BRANCH   3   4
ATOM      4  C   UNL     1       2.305   4.254  21.311  0.00  0.00    +0.000 C 
BRANCH   4   5
ATOM      5  C   UNL     1       1.611   2.950  20.961  0.00  0.00    +0.000 C 
BRANCH   5   6
ATOM      6  C   UNL     1       0.569   3.191  19.885  0.00  0.00    +0.000 C 
BRANCH   6   7
ATOM      7  C   UNL     1       0.792   2.239  18.726  0.00  0.00    +0.000 C 
BRANCH   7   8
ATOM      8  C   UNL     1       2.278   2.062  18.480  0.00  0.00    +0.000 C 
BRANCH   8   9
ATOM      9  C   UNL     1       2.746   3.035  17.415  0.00  0.00    +0.000 C 
BRANCH   9  10
ATOM     10  C   UNL     1       4.225   3.326  17.592  0.00  0.00    +0.000 C 
BRANCH  10  11
ATOM     11  C   UNL     1       4.705   4.270  16.503  0.00  0.00    +0.000 C 
BRANCH  11  13
ATOM     12  C   UNL     1       4.860   6.742  16.249  0.00  0.00    +0.000 C 
ATOM     13  C   UNL     1       5.237   5.557  17.114  0.00  0.00    +0.000 C 
ENDBRANCH  11  13
ENDBRANCH  10  11
ENDBRANCH   9  10
ENDBRANCH   8   9
ENDBRANCH   7   8
ENDBRANCH   6   7
ENDBRANCH   5   6
ENDBRANCH   4   5
ENDBRANCH   3   4
ENDBRANCH   2   3
ENDBRANCH   1   2
BRANCH   1  14
ATOM     14  C   UNL     1       1.860   8.004  18.187  0.00  0.00    +0.000 C 
BRANCH  14  15
ATOM     15  C   UNL     1       1.830   9.515  18.078  0.00  0.00    +0.000 C 
ATOM     16  O   UNL     1       2.568  10.184  17.347  0.00  0.00    +0.000 OA
BRANCH  15  17
ATOM     17  C   UNL     1       0.800  10.254  18.940  0.00  0.00    +0.000 C 
ATOM     18  O   UNL     1       0.961  10.302  20.148  0.00  0.00    +0.000 OA
ATOM     19  N   UNL     1      -0.256  10.818  18.246  0.00  0.00    +0.000 N 
ATOM     20  H   UNL     1      -0.248  10.753  17.231  0.00  0.00    +0.000 HD
BRANCH  19  21
ATOM     21  C   UNL     1      -1.293  11.572  18.929  0.00  0.00    +0.000 C 
BRANCH  21  22
ATOM     22  C   UNL     1      -2.643  11.507  18.226  0.00  0.00    +0.000 C 
BRANCH  22  23
ATOM     23  C   UNL     1      -2.949  10.099  17.723  0.00  0.00    +0.000 C 
BRANCH  23  24
ATOM     24  C   UNL     1      -3.840  10.144  16.491  0.00  0.00    +0.000 C 
BRANCH  24  25
ATOM     25  C   UNL     1      -3.144  10.893  15.362  0.00  0.00    +0.000 C 
ATOM     26  C   UNL     1      -2.980   9.985  14.154  0.00  0.00    +0.000 C 
ENDBRANCH  24  25
ENDBRANCH  23  24
ENDBRANCH  22  23
ENDBRANCH  21  22
ENDBRANCH  19  21
ENDBRANCH  15  17
ENDBRANCH  14  15
ENDBRANCH   1  14
TORSDOF 19
ENDMDL
MODEL 5
REMARK VINA RESULT:      -5.8      2.099      4.353
REMARK  Name = 
REMARK  21 active torsions:
REMARK  status: ('A' for Active; 'I' for Inactive)
REMARK    1  A    between atoms: C_1  and  C_2
REMARK    2  A    between atoms: C_2  and  C_3
REMARK    3  A    between atoms: C_3  and  C_4
REMARK    4  A    between atoms: C_4  and  C_5
REMARK    5  A    between atoms: C_5  and  C_6
REMARK    6  A    between atoms: C_6  and  C_7
REMARK    7  A    between atoms: C_7  and  C_8
REMARK    8  A    between atoms: C_8  and  C_9
REMARK    9  A    between atoms: C_9  and  C_10
REMARK   10  A    between atoms: C_10  and  C_11
REMARK   11  A    between atoms: C_11  and  C_12
REMARK   12  A    between atoms: C_12  and  C_13
REMARK   13  A    between atoms: C_13  and  C_14
REMARK   14  A    between atoms: C_14  and  C_15
REMARK   15  A    between atoms: C_15  and  C_17
REMARK   16  A    between atoms: N_19  and  C_20
REMARK   17  A    between atoms: C_20  and  C_21
REMARK   18  A    between atoms: C_21  and  C_22
REMARK   19  A    between atoms: C_22  and  C_23
REMARK   20  A    between atoms: C_23  and  C_24
REMARK   21  A    between atoms: C_24  and  C_25
REMARK                            x       y       z     vdW  Elec       q    Type
REMARK                         _______ _______ _______ _____ _____    ______ ____
ROOT
ATOM      1  C   UNL     1       1.578   3.862  17.925  0.00  0.00    +0.000 C 
ENDROOT
BRANCH   1   2
ATOM      2  C   UNL     1       0.783   2.935  18.837  0.00  0.00    +0.000 C 
BRANCH   2   3
ATOM      3  C   UNL     1       0.889   3.406  20.283  0.00  0.00    +0.000 C 
BRANCH   3   4
ATOM      4  C   UNL     1       2.280   3.952  20.558  0.00  0.00    +0.000 C 
BRANCH   4   5
ATOM      5  C   UNL     1       2.187   5.244  21.350  0.00  0.00    +0.000 C 
BRANCH   5   6
ATOM      6  C   UNL     1       1.219   6.197  20.674  0.00  0.00    +0.000 C 
BRANCH   6   7
ATOM      7  C   UNL     1       1.955   7.442  20.214  0.00  0.00    +0.000 C 
BRANCH   7   8
ATOM      8  C   UNL     1       2.616   7.186  18.873  0.00  0.00    +0.000 C 
BRANCH   8   9
ATOM      9  C   UNL     1       2.234   8.277  17.891  0.00  0.00    +0.000 C 
BRANCH   9  10
ATOM     10  C   UNL     1       1.527   9.406  18.619  0.00  0.00    +0.000 C 
BRANCH  10  11
ATOM     11  C   UNL     1       0.272   9.809  17.864  0.00  0.00    +0.000 C 
BRANCH  11  13
ATOM     12  C   UNL     1      -2.150  10.337  18.106  0.00  0.00    +0.000 C 
ATOM     13  C   UNL     1      -0.830  10.196  18.838  0.00  0.00    +0.000 C 
ENDBRANCH  11  13
ENDBRANCH  10  11
ENDBRANCH   9  10
ENDBRANCH   8   9
ENDBRANCH   7   8
ENDBRANCH   6   7
ENDBRANCH   5   6
ENDBRANCH   4   5
ENDBRANCH   3   4
ENDBRANCH   2   3
ENDBRANCH   1   2
BRANCH   1  14
ATOM     14  C   UNL     1       2.546   3.083  17.038  0.00  0.00    +0.000 C 
BRANCH  14  15
ATOM     15  C   UNL     1       3.968   3.173  17.557  0.00  0.00    +0.000 C 
ATOM     16  O   UNL     1       4.419   2.504  18.493  0.00  0.00    +0.000 OA
BRANCH  15  17
ATOM     17  C   UNL     1       4.902   4.164  16.856  0.00  0.00    +0.000 C 
ATOM     18  O   UNL     1       4.682   5.360  16.954  0.00  0.00    +0.000 OA
ATOM     19  N   UNL     1       5.947   3.594  16.149  0.00  0.00    +0.000 N 
ATOM     20  H   UNL     1       6.052   2.584  16.188  0.00  0.00    +0.000 HD
BRANCH  19  21
ATOM     21  C   UNL     1       6.927   4.413  15.457  0.00  0.00    +0.000 C 
BRANCH  21  22
ATOM     22  C   UNL     1       6.652   4.544  13.964  0.00  0.00    +0.000 C 
BRANCH  22  23
ATOM     23  C   UNL     1       5.576   3.567  13.501  0.00  0.00    +0.000 C 
BRANCH  23  24
ATOM     24  C   UNL     1       5.633   3.369  11.994  0.00  0.00    +0.000 C 
BRANCH  24  25
ATOM     25  C   UNL     1       6.875   2.572  11.614  0.00  0.00    +0.000 C 
ATOM     26  C   UNL     1       6.476   1.218  11.049  0.00  0.00    +0.000 C 
ENDBRANCH  24  25
ENDBRANCH  23  24
ENDBRANCH  22  23
ENDBRANCH  21  22
ENDBRANCH  19  21
ENDBRANCH  15  17
ENDBRANCH  14  15
ENDBRANCH   1  14
TORSDOF 19
ENDMDL
MODEL 6
REMARK VINA RESULT:      -5.8      3.569      6.709
REMARK  Name = 
REMARK  21 active torsions:
REMARK  status: ('A' for Active; 'I' for Inactive)
REMARK    1  A    between atoms: C_1  and  C_2
REMARK    2  A    between atoms: C_2  and  C_3
REMARK    3  A    between atoms: C_3  and  C_4
REMARK    4  A    between atoms: C_4  and  C_5
REMARK    5  A    between atoms: C_5  and  C_6
REMARK    6  A    between atoms: C_6  and  C_7
REMARK    7  A    between atoms: C_7  and  C_8
REMARK    8  A    between atoms: C_8  and  C_9
REMARK    9  A    between atoms: C_9  and  C_10
REMARK   10  A    between atoms: C_10  and  C_11
REMARK   11  A    between atoms: C_11  and  C_12
REMARK   12  A    between atoms: C_12  and  C_13
REMARK   13  A    between atoms: C_13  and  C_14
REMARK   14  A    between atoms: C_14  and  C_15
REMARK   15  A    between atoms: C_15  and  C_17
REMARK   16  A    between atoms: N_19  and  C_20
REMARK   17  A    between atoms: C_20  and  C_21
REMARK   18  A    between atoms: C_21  and  C_22
REMARK   19  A    between atoms: C_22  and  C_23
REMARK   20  A    between atoms: C_23  and  C_24
REMARK   21  A    between atoms: C_24  and  C_25
REMARK                            x       y       z     vdW  Elec       q    Type
REMARK                         _______ _______ _______ _____ _____    ______ ____
ROOT
ATOM      1  C   UNL     1       4.924   6.610  16.947  0.00  0.00    +0.000 C 
ENDROOT
BRANCH   1   2
ATOM      2  C   UNL     1       4.208   6.556  18.291  0.00  0.00    +0.000 C 
BRANCH   2   3
ATOM      3  C   UNL     1       2.698   6.556  18.081  0.00  0.00    +0.000 C 
BRANCH   3   4
ATOM      4  C   UNL     1       2.089   7.833  18.634  0.00  0.00    +0.000 C 
BRANCH   4   5
ATOM      5  C   UNL     1       2.129   8.928  17.584  0.00  0.00    +0.000 C 
BRANCH   5   6
ATOM      6  C   UNL     1       1.662  10.240  18.186  0.00  0.00    +0.000 C 
BRANCH   6   7
ATOM      7  C   UNL     1       0.403  10.017  19.001  0.00  0.00    +0.000 C 
BRANCH   7   8
ATOM      8  C   UNL     1      -0.569  11.159  18.773  0.00  0.00    +0.000 C 
BRANCH   8   9
ATOM      9  C   UNL     1      -0.585  12.074  19.983  0.00  0.00    +0.000 C 
BRANCH   9  10
ATOM     10  C   UNL     1       0.032  11.367  21.176  0.00  0.00    +0.000 C 
BRANCH  10  11
ATOM     11  C   UNL     1      -0.904  11.445  22.370  0.00  0.00    +0.000 C 
BRANCH  11  13
ATOM     12  C   UNL     1      -0.421   9.003  22.422  0.00  0.00    +0.000 C 
ATOM     13  C   UNL     1      -0.728  10.226  23.262  0.00  0.00    +0.000 C 
ENDBRANCH  11  13
ENDBRANCH  10  11
ENDBRANCH   9  10
ENDBRANCH   8   9
ENDBRANCH   7   8
ENDBRANCH   6   7
ENDBRANCH   5   6
ENDBRANCH   4   5
ENDBRANCH   3   4
ENDBRANCH   2   3
ENDBRANCH   1   2
BRANCH   1  14
ATOM     14  C   UNL     1       5.597   5.280  16.614  0.00  0.00    +0.000 C 
BRANCH  14  15
ATOM     15  C   UNL     1       6.086   4.579  17.867  0.00  0.00    +0.000 C 
ATOM     16  O   UNL     1       7.153   4.824  18.440  0.00  0.00    +0.000 OA
BRANCH  15  17
ATOM     17  C   UNL     1       5.177   3.496  18.456  0.00  0.00    +0.000 C 
ATOM     18  O   UNL     1       5.242   3.249  19.648  0.00  0.00    +0.000 OA
ATOM     19  N   UNL     1       4.335   2.873  17.551  0.00  0.00    +0.000 N 
ATOM     20  H   UNL     1       4.337   3.208  16.591  0.00  0.00    +0.000 HD
BRANCH  19  21
ATOM     21  C   UNL     1       3.398   1.846  17.972  0.00  0.00    +0.000 C 
BRANCH  21  22
ATOM     22  C   UNL     1       1.947   2.310  17.940  0.00  0.00    +0.000 C 
BRANCH  22  23
ATOM     23  C   UNL     1       1.391   2.519  19.345  0.00  0.00    +0.000 C 
BRANCH  23  24
ATOM     24  C   UNL     1       1.499   3.979  19.761  0.00  0.00    +0.000 C 
BRANCH  24  25
ATOM     25  C   UNL     1       1.910   4.083  21.224  0.00  0.00    +0.000 C 
ATOM     26  C   UNL     1       2.249   2.707  21.773  0.00  0.00    +0.000 C 
ENDBRANCH  24  25
ENDBRANCH  23  24
ENDBRANCH  22  23
ENDBRANCH  21  22
ENDBRANCH  19  21
ENDBRANCH  15  17
ENDBRANCH  14  15
ENDBRANCH   1  14
TORSDOF 19
ENDMDL
MODEL 7
REMARK VINA RESULT:      -5.8      3.684      5.953
REMARK  Name = 
REMARK  21 active torsions:
REMARK  status: ('A' for Active; 'I' for Inactive)
REMARK    1  A    between atoms: C_1  and  C_2
REMARK    2  A    between atoms: C_2  and  C_3
REMARK    3  A    between atoms: C_3  and  C_4
REMARK    4  A    between atoms: C_4  and  C_5
REMARK    5  A    between atoms: C_5  and  C_6
REMARK    6  A    between atoms: C_6  and  C_7
REMARK    7  A    between atoms: C_7  and  C_8
REMARK    8  A    between atoms: C_8  and  C_9
REMARK    9  A    between atoms: C_9  and  C_10
REMARK   10  A    between atoms: C_10  and  C_11
REMARK   11  A    between atoms: C_11  and  C_12
REMARK   12  A    between atoms: C_12  and  C_13
REMARK   13  A    between atoms: C_13  and  C_14
REMARK   14  A    between atoms: C_14  and  C_15
REMARK   15  A    between atoms: C_15  and  C_17
REMARK   16  A    between atoms: N_19  and  C_20
REMARK   17  A    between atoms: C_20  and  C_21
REMARK   18  A    between atoms: C_21  and  C_22
REMARK   19  A    between atoms: C_22  and  C_23
REMARK   20  A    between atoms: C_23  and  C_24
REMARK   21  A    between atoms: C_24  and  C_25
REMARK                            x       y       z     vdW  Elec       q    Type
REMARK                         _______ _______ _______ _____ _____    ______ ____
ROOT
ATOM      1  C   UNL     1       2.022   1.968  19.712  0.00  0.00    +0.000 C 
ENDROOT
BRANCH   1   2
ATOM      2  C   UNL     1       0.854   2.839  19.264  0.00  0.00    +0.000 C 
BRANCH   2   3
ATOM      3  C   UNL     1       0.570   3.911  20.309  0.00  0.00    +0.000 C 
BRANCH   3   4
ATOM      4  C   UNL     1       1.846   4.663  20.651  0.00  0.00    +0.000 C 
BRANCH   4   5
ATOM      5  C   UNL     1       1.584   6.158  20.661  0.00  0.00    +0.000 C 
BRANCH   5   6
ATOM      6  C   UNL     1       2.631   6.872  19.827  0.00  0.00    +0.000 C 
BRANCH   6   7
ATOM      7  C   UNL     1       2.403   6.588  18.355  0.00  0.00    +0.000 C 
BRANCH   7   8
ATOM      8  C   UNL     1       2.049   7.871  17.629  0.00  0.00    +0.000 C 
BRANCH   8   9
ATOM      9  C   UNL     1       1.785   8.978  18.634  0.00  0.00    +0.000 C 
BRANCH   9  10
ATOM     10  C   UNL     1       0.643   9.854  18.152  0.00  0.00    +0.000 C 
BRANCH  10  11
ATOM     11  C   UNL     1      -0.275  10.198  19.312  0.00  0.00    +0.000 C 
BRANCH  11  13
ATOM     12  C   UNL     1      -0.235  10.409  21.793  0.00  0.00    +0.000 C 
ATOM     13  C   UNL     1       0.264   9.610  20.607  0.00  0.00    +0.000 C 
ENDBRANCH  11  13
ENDBRANCH  10  11
ENDBRANCH   9  10
ENDBRANCH   8   9
ENDBRANCH   7   8
ENDBRANCH   6   7
ENDBRANCH   5   6
ENDBRANCH   4   5
ENDBRANCH   3   4
ENDBRANCH   2   3
ENDBRANCH   1   2
BRANCH   1  14
ATOM     14  C   UNL     1       2.956   1.638  18.550  0.00  0.00    +0.000 C 
BRANCH  14  15
ATOM     15  C   UNL     1       3.726   2.862  18.094  0.00  0.00    +0.000 C 
ATOM     16  O   UNL     1       3.525   3.466  17.035  0.00  0.00    +0.000 OA
BRANCH  15  17
ATOM     17  C   UNL     1       4.825   3.379  19.028  0.00  0.00    +0.000 C 
ATOM     18  O   UNL     1       5.188   2.683  19.962  0.00  0.00    +0.000 OA
ATOM     19  N   UNL     1       5.325   4.632  18.716  0.00  0.00    +0.000 N 
ATOM     20  H   UNL     1       4.976   5.088  17.878  0.00  0.00    +0.000 HD
BRANCH  19  21
ATOM     21  C   UNL     1       6.390   5.237  19.497  0.00  0.00    +0.000 C 
BRANCH  21  22
ATOM     22  C   UNL     1       7.672   5.446  18.701  0.00  0.00    +0.000 C 
BRANCH  22  23
ATOM     23  C   UNL     1       7.938   6.925  18.439  0.00  0.00    +0.000 C 
BRANCH  23  24
ATOM     24  C   UNL     1       7.429   7.334  17.065  0.00  0.00    +0.000 C 
BRANCH  24  25
ATOM     25  C   UNL     1       5.910   7.453  17.079  0.00  0.00    +0.000 C 
ATOM     26  C   UNL     1       5.307   6.593  15.980  0.00  0.00    +0.000 C 
ENDBRANCH  24  25
ENDBRANCH  23  24
ENDBRANCH  22  23
ENDBRANCH  21  22
ENDBRANCH  19  21
ENDBRANCH  15  17
ENDBRANCH  14  15
ENDBRANCH   1  14
TORSDOF 19
ENDMDL
MODEL 8
REMARK VINA RESULT:      -5.7      5.536      8.615
REMARK  Name = 
REMARK  21 active torsions:
REMARK  status: ('A' for Active; 'I' for Inactive)
REMARK    1  A    between atoms: C_1  and  C_2
REMARK    2  A    between atoms: C_2  and  C_3
REMARK    3  A    between atoms: C_3  and  C_4
REMARK    4  A    between atoms: C_4  and  C_5
REMARK    5  A    between atoms: C_5  and  C_6
REMARK    6  A    between atoms: C_6  and  C_7
REMARK    7  A    between atoms: C_7  and  C_8
REMARK    8  A    between atoms: C_8  and  C_9
REMARK    9  A    between atoms: C_9  and  C_10
REMARK   10  A    between atoms: C_10  and  C_11
REMARK   11  A    between atoms: C_11  and  C_12
REMARK   12  A    between atoms: C_12  and  C_13
REMARK   13  A    between atoms: C_13  and  C_14
REMARK   14  A    between atoms: C_14  and  C_15
REMARK   15  A    between atoms: C_15  and  C_17
REMARK   16  A    between atoms: N_19  and  C_20
REMARK   17  A    between atoms: C_20  and  C_21
REMARK   18  A    between atoms: C_21  and  C_22
REMARK   19  A    between atoms: C_22  and  C_23
REMARK   20  A    between atoms: C_23  and  C_24
REMARK   21  A    between atoms: C_24  and  C_25
REMARK                            x       y       z     vdW  Elec       q    Type
REMARK                         _______ _______ _______ _____ _____    ______ ____
ROOT
ATOM      1  C   UNL     1       7.748   7.978  17.243  0.00  0.00    +0.000 C 
ENDROOT
BRANCH   1   2
ATOM      2  C   UNL     1       7.933   9.351  17.878  0.00  0.00    +0.000 C 
BRANCH   2   3
ATOM      3  C   UNL     1       8.923   9.264  19.034  0.00  0.00    +0.000 C 
BRANCH   3   4
ATOM      4  C   UNL     1       9.794  10.509  19.075  0.00  0.00    +0.000 C 
BRANCH   4   5
ATOM      5  C   UNL     1       9.047  11.689  18.480  0.00  0.00    +0.000 C 
BRANCH   5   6
ATOM      6  C   UNL     1       9.558  12.983  19.085  0.00  0.00    +0.000 C 
BRANCH   6   7
ATOM      7  C   UNL     1      10.388  12.685  20.319  0.00  0.00    +0.000 C 
BRANCH   7   8
ATOM      8  C   UNL     1       9.779  13.367  21.529  0.00  0.00    +0.000 C 
BRANCH   8   9
ATOM      9  C   UNL     1       8.318  12.980  21.660  0.00  0.00    +0.000 C 
BRANCH   9  10
ATOM     10  C   UNL     1       8.183  11.761  22.554  0.00  0.00    +0.000 C 
BRANCH  10  11
ATOM     11  C   UNL     1       8.619  12.100  23.969  0.00  0.00    +0.000 C 
BRANCH  11  13
ATOM     12  C   UNL     1       8.370  14.268  25.167  0.00  0.00    +0.000 C 
ATOM     13  C   UNL     1       7.635  13.067  24.608  0.00  0.00    +0.000 C 
ENDBRANCH  11  13
ENDBRANCH  10  11
ENDBRANCH   9  10
ENDBRANCH   8   9
ENDBRANCH   7   8
ENDBRANCH   6   7
ENDBRANCH   5   6
ENDBRANCH   4   5
ENDBRANCH   3   4
ENDBRANCH   2   3
ENDBRANCH   1   2
BRANCH   1  14
ATOM     14  C   UNL     1       7.837   6.862  18.281  0.00  0.00    +0.000 C 
BRANCH  14  15
ATOM     15  C   UNL     1       7.337   5.545  17.721  0.00  0.00    +0.000 C 
ATOM     16  O   UNL     1       7.749   5.019  16.681  0.00  0.00    +0.000 OA
BRANCH  15  17
ATOM     17  C   UNL     1       6.245   4.822  18.517  0.00  0.00    +0.000 C 
ATOM     18  O   UNL     1       6.227   4.927  19.732  0.00  0.00    +0.000 OA
ATOM     19  N   UNL     1       5.347   4.090  17.760  0.00  0.00    +0.000 N 
ATOM     20  H   UNL     1       5.438   4.126  16.748  0.00  0.00    +0.000 HD
BRANCH  19  21
ATOM     21  C   UNL     1       4.243   3.375  18.377  0.00  0.00    +0.000 C 
BRANCH  21  22
ATOM     22  C   UNL     1       3.087   3.117  17.419  0.00  0.00    +0.000 C 
BRANCH  22  23
ATOM     23  C   UNL     1       1.747   3.510  18.034  0.00  0.00    +0.000 C 
BRANCH  23  24
ATOM     24  C   UNL     1       1.300   2.482  19.063  0.00  0.00    +0.000 C 
BRANCH  24  25
ATOM     25  C   UNL     1       0.777   3.179  20.313  0.00  0.00    +0.000 C 
ATOM     26  C   UNL     1       1.431   4.543  20.465  0.00  0.00    +0.000 C 
ENDBRANCH  24  25
ENDBRANCH  23  24
ENDBRANCH  22  23
ENDBRANCH  21  22
ENDBRANCH  19  21
ENDBRANCH  15  17
ENDBRANCH  14  15
ENDBRANCH   1  14
TORSDOF 19
ENDMDL
MODEL 9
REMARK VINA RESULT:      -5.7      3.631      6.325
REMARK  Name = 
REMARK  21 active torsions:
REMARK  status: ('A' for Active; 'I' for Inactive)
REMARK    1  A    between atoms: C_1  and  C_2
REMARK    2  A    between atoms: C_2  and  C_3
REMARK    3  A    between atoms: C_3  and  C_4
REMARK    4  A    between atoms: C_4  and  C_5
REMARK    5  A    between atoms: C_5  and  C_6
REMARK    6  A    between atoms: C_6  and  C_7
REMARK    7  A    between atoms: C_7  and  C_8
REMARK    8  A    between atoms: C_8  and  C_9
REMARK    9  A    between atoms: C_9  and  C_10
REMARK   10  A    between atoms: C_10  and  C_11
REMARK   11  A    between atoms: C_11  and  C_12
REMARK   12  A    between atoms: C_12  and  C_13
REMARK   13  A    between atoms: C_13  and  C_14
REMARK   14  A    between atoms: C_14  and  C_15
REMARK   15  A    between atoms: C_15  and  C_17
REMARK   16  A    between atoms: N_19  and  C_20
REMARK   17  A    between atoms: C_20  and  C_21
REMARK   18  A    between atoms: C_21  and  C_22
REMARK   19  A    between atoms: C_22  and  C_23
REMARK   20  A    between atoms: C_23  and  C_24
REMARK   21  A    between atoms: C_24  and  C_25
REMARK                            x       y       z     vdW  Elec       q    Type
REMARK                         _______ _______ _______ _____ _____    ______ ____
ROOT
ATOM      1  C   UNL     1       5.066   5.458  18.656  0.00  0.00    +0.000 C 
ENDROOT
BRANCH   1   2
ATOM      2  C   UNL     1       5.026   3.937  18.745  0.00  0.00    +0.000 C 
BRANCH   2   3
ATOM      3  C   UNL     1       4.284   3.362  17.544  0.00  0.00    +0.000 C 
BRANCH   3   4
ATOM      4  C   UNL     1       3.542   2.097  17.941  0.00  0.00    +0.000 C 
BRANCH   4   5
ATOM      5  C   UNL     1       2.056   2.379  18.060  0.00  0.00    +0.000 C 
BRANCH   5   6
ATOM      6  C   UNL     1       1.598   2.147  19.488  0.00  0.00    +0.000 C 
BRANCH   6   7
ATOM      7  C   UNL     1       0.728   3.302  19.947  0.00  0.00    +0.000 C 
BRANCH   7   8
ATOM      8  C   UNL     1       1.481   4.146  20.957  0.00  0.00    +0.000 C 
BRANCH   8   9
ATOM      9  C   UNL     1       2.107   5.344  20.267  0.00  0.00    +0.000 C 
BRANCH   9  10
ATOM     10  C   UNL     1       1.312   6.598  20.583  0.00  0.00    +0.000 C 
BRANCH  10  11
ATOM     11  C   UNL     1       2.127   7.833  20.238  0.00  0.00    +0.000 C 
BRANCH  11  13
ATOM     12  C   UNL     1       1.811   8.703  17.927  0.00  0.00    +0.000 C 
ATOM     13  C   UNL     1       1.318   8.772  19.357  0.00  0.00    +0.000 C 
ENDBRANCH  11  13
ENDBRANCH  10  11
ENDBRANCH   9  10
ENDBRANCH   8   9
ENDBRANCH   7   8
ENDBRANCH   6   7
ENDBRANCH   5   6
ENDBRANCH   4   5
ENDBRANCH   3   4
ENDBRANCH   2   3
ENDBRANCH   1   2
BRANCH   1  14
ATOM     14  C   UNL     1       4.372   5.967  17.395  0.00  0.00    +0.000 C 
BRANCH  14  15
ATOM     15  C   UNL     1       5.374   6.480  16.380  0.00  0.00    +0.000 C 
ATOM     16  O   UNL     1       5.120   6.710  15.193  0.00  0.00    +0.000 OA
BRANCH  15  17
ATOM     17  C   UNL     1       6.800   6.733  16.880  0.00  0.00    +0.000 C 
ATOM     18  O   UNL     1       7.603   5.815  16.879  0.00  0.00    +0.000 OA
ATOM     19  N   UNL     1       7.059   8.026  17.301  0.00  0.00    +0.000 N 
ATOM     20  H   UNL     1       6.319   8.716  17.201  0.00  0.00    +0.000 HD
BRANCH  19  21
ATOM     21  C   UNL     1       8.375   8.419  17.774  0.00  0.00    +0.000 C 
BRANCH  21  22
ATOM     22  C   UNL     1       8.380   9.767  18.483  0.00  0.00    +0.000 C 
BRANCH  22  23
ATOM     23  C   UNL     1       9.616  10.587  18.126  0.00  0.00    +0.000 C 
BRANCH  23  24
ATOM     24  C   UNL     1      10.188  11.271  19.359  0.00  0.00    +0.000 C 
BRANCH  24  25
ATOM     25  C   UNL     1      10.761  12.633  18.990  0.00  0.00    +0.000 C 
ATOM     26  C   UNL     1      10.625  12.872  17.495  0.00  0.00    +0.000 C 
ENDBRANCH  24  25
ENDBRANCH  23  24
ENDBRANCH  22  23
ENDBRANCH  21  22
ENDBRANCH  19  21
ENDBRANCH  15  17
ENDBRANCH  14  15
ENDBRANCH   1  14
TORSDOF 19
ENDMDL
