MODEL 1
REMARK VINA RESULT:      -7.0      0.000      0.000
REMARK  Name = 
REMARK  8 active torsions:
REMARK  status: ('A' for Active; 'I' for Inactive)
REMARK    1  A    between atoms: C_1  and  O_2
REMARK    2  A    between atoms: O_2  and  C_3
REMARK    3  A    between atoms: C_5  and  C_6
REMARK    4  A    between atoms: C_12  and  O_13
REMARK    5  A    between atoms: O_13  and  C_14
REMARK    6  A    between atoms: C_15  and  O_16
REMARK    7  A    between atoms: O_16  and  C_17
REMARK    8  A    between atoms: C_22  and  O_23
REMARK                            x       y       z     vdW  Elec       q    Type
REMARK                         _______ _______ _______ _____ _____    ______ ____
ROOT
ATOM      1  C   UNL     1       2.181   7.503  19.598  0.00  0.00    +0.000 A 
ATOM      2  N   UNL     1       2.396   7.696  18.283  0.00  0.00    +0.000 NA
ATOM      3  C   UNL     1       1.953   8.640  17.484  0.00  0.00    +0.000 A 
ATOM      4  C   UNL     1       1.812   9.835  18.026  0.00  0.00    +0.000 A 
ATOM      5  C   UNL     1       1.333   9.892  19.314  0.00  0.00    +0.000 A 
ATOM      6  C   UNL     1       0.842  11.156  19.550  0.00  0.00    +0.000 A 
ATOM      7  C   UNL     1       0.057  11.481  20.609  0.00  0.00    +0.000 A 
ATOM      8  C   UNL     1      -0.232  10.462  21.534  0.00  0.00    +0.000 A 
ATOM      9  C   UNL     1       0.430   9.106  21.397  0.00  0.00    +0.000 A 
ATOM     10  C   UNL     1       1.292   8.723  20.191  0.00  0.00    +0.000 A 
ENDROOT
BRANCH   1  13
ATOM     11  C   UNL     1       4.990   4.538  19.096  0.00  0.00    +0.000 A 
ATOM     12  C   UNL     1       4.272   5.817  19.132  0.00  0.00    +0.000 A 
ATOM     13  C   UNL     1       2.886   6.025  19.742  0.00  0.00    +0.000 A 
ATOM     14  C   UNL     1       2.374   4.835  20.323  0.00  0.00    +0.000 A 
ATOM     15  C   UNL     1       3.098   3.580  20.248  0.00  0.00    +0.000 A 
ATOM     16  C   UNL     1       4.348   3.437  19.644  0.00  0.00    +0.000 A 
BRANCH  11  18
ATOM     17  C   UNL     1       7.381   4.594  17.850  0.00  0.00    +0.000 C 
ATOM     18  O   UNL     1       6.236   4.213  18.566  0.00  0.00    +0.000 OA
ENDBRANCH  11  18
BRANCH  16  19
ATOM     19  O   UNL     1       4.985   2.236  19.564  0.00  0.00    +0.000 OA
ATOM     20  H   UNL     1       5.345   1.851  18.753  0.00  0.00    +0.000 HD
ENDBRANCH  16  19
ENDBRANCH   1  13
BRANCH   7  21
ATOM     21  O   UNL     1      -0.472  12.767  20.709  0.00  0.00    +0.000 OA
ATOM     22  C   UNL     1      -1.551  13.265  19.954  0.00  0.00    +0.000 C 
ENDBRANCH   7  21
BRANCH   8  23
ATOM     23  O   UNL     1      -1.201  10.885  22.443  0.00  0.00    +0.000 OA
ATOM     24  C   UNL     1      -2.044  11.527  23.363  0.00  0.00    +0.000 C 
ENDBRANCH   8  23
TORSDOF 5
ENDMDL
MODEL 2
REMARK VINA RESULT:      -6.5      1.429      8.039
REMARK  Name = 
REMARK  8 active torsions:
REMARK  status: ('A' for Active; 'I' for Inactive)
REMARK    1  A    between atoms: C_1  and  O_2
REMARK    2  A    between atoms: O_2  and  C_3
REMARK    3  A    between atoms: C_5  and  C_6
REMARK    4  A    between atoms: C_12  and  O_13
REMARK    5  A    between atoms: O_13  and  C_14
REMARK    6  A    between atoms: C_15  and  O_16
REMARK    7  A    between atoms: O_16  and  C_17
REMARK    8  A    between atoms: C_22  and  O_23
REMARK                            x       y       z     vdW  Elec       q    Type
REMARK                         _______ _______ _______ _____ _____    ______ ____
ROOT
ATOM      1  C   UNL     1       1.352   8.284  20.057  0.00  0.00    +0.000 A 
ATOM      2  N   UNL     1       1.631   9.220  19.129  0.00  0.00    +0.000 NA
ATOM      3  C   UNL     1       2.443   9.172  18.099  0.00  0.00    +0.000 A 
ATOM      4  C   UNL     1       2.549   8.000  17.501  0.00  0.00    +0.000 A 
ATOM      5  C   UNL     1       2.559   6.881  18.301  0.00  0.00    +0.000 A 
ATOM      6  C   UNL     1       3.103   5.834  17.594  0.00  0.00    +0.000 A 
ATOM      7  C   UNL     1       3.512   4.668  18.156  0.00  0.00    +0.000 A 
ATOM      8  C   UNL     1       3.326   4.521  19.542  0.00  0.00    +0.000 A 
ATOM      9  C   UNL     1       2.577   5.582  20.321  0.00  0.00    +0.000 A 
ATOM     10  C   UNL     1       2.139   6.912  19.701  0.00  0.00    +0.000 A 
ENDROOT
BRANCH   1  13
ATOM     11  C   UNL     1      -0.790  11.543  21.374  0.00  0.00    +0.000 A 
ATOM     12  C   UNL     1      -0.054  10.564  20.564  0.00  0.00    +0.000 A 
ATOM     13  C   UNL     1       0.450   9.212  21.070  0.00  0.00    +0.000 A 
ATOM     14  C   UNL     1       0.086   8.979  22.423  0.00  0.00    +0.000 A 
ATOM     15  C   UNL     1      -0.619   9.978  23.203  0.00  0.00    +0.000 A 
ATOM     16  C   UNL     1      -1.025  11.215  22.701  0.00  0.00    +0.000 A 
BRANCH  11  18
ATOM     17  C   UNL     1      -1.446  13.827  20.100  0.00  0.00    +0.000 C 
ATOM     18  O   UNL     1      -1.288  12.801  21.043  0.00  0.00    +0.000 OA
ENDBRANCH  11  18
BRANCH  16  19
ATOM     19  O   UNL     1      -1.657  12.143  23.472  0.00  0.00    +0.000 OA
ATOM     20  H   UNL     1      -2.608  12.159  23.654  0.00  0.00    +0.000 HD
ENDBRANCH  16  19
ENDBRANCH   1  13
BRANCH   7  21
ATOM     21  O   UNL     1       4.142   3.704  17.370  0.00  0.00    +0.000 OA
ATOM     22  C   UNL     1       5.163   3.956  16.434  0.00  0.00    +0.000 C 
ENDBRANCH   7  21
BRANCH   8  23
ATOM     23  O   UNL     1       3.971   3.374  20.005  0.00  0.00    +0.000 OA
ATOM     24  C   UNL     1       4.473   2.098  20.304  0.00  0.00    +0.000 C 
ENDBRANCH   8  23
TORSDOF 5
ENDMDL
MODEL 3
REMARK VINA RESULT:      -6.5      1.836      3.183
REMARK  Name = 
REMARK  8 active torsions:
REMARK  status: ('A' for Active; 'I' for Inactive)
REMARK    1  A    between atoms: C_1  and  O_2
REMARK    2  A    between atoms: O_2  and  C_3
REMARK    3  A    between atoms: C_5  and  C_6
REMARK    4  A    between atoms: C_12  and  O_13
REMARK    5  A    between atoms: O_13  and  C_14
REMARK    6  A    between atoms: C_15  and  O_16
REMARK    7  A    between atoms: O_16  and  C_17
REMARK    8  A    between atoms: C_22  and  O_23
REMARK                            x       y       z     vdW  Elec       q    Type
REMARK                         _______ _______ _______ _____ _____    ______ ____
ROOT
ATOM      1  C   UNL     1       2.196   7.882  18.903  0.00  0.00    +0.000 A 
ATOM      2  N   UNL     1       2.063   7.155  20.029  0.00  0.00    +0.000 NA
ATOM      3  C   UNL     1       1.525   7.474  21.183  0.00  0.00    +0.000 A 
ATOM      4  C   UNL     1       0.485   8.285  21.130  0.00  0.00    +0.000 A 
ATOM      5  C   UNL     1       0.524   9.303  20.205  0.00  0.00    +0.000 A 
ATOM      6  C   UNL     1      -0.381  10.271  20.573  0.00  0.00    +0.000 A 
ATOM      7  C   UNL     1      -0.412  11.522  20.046  0.00  0.00    +0.000 A 
ATOM      8  C   UNL     1       0.521  11.820  19.037  0.00  0.00    +0.000 A 
ATOM      9  C   UNL     1       1.417  10.727  18.490  0.00  0.00    +0.000 A 
ATOM     10  C   UNL     1       1.478   9.323  19.098  0.00  0.00    +0.000 A 
ENDROOT
BRANCH   1  13
ATOM     11  C   UNL     1       3.757   4.294  17.629  0.00  0.00    +0.000 A 
ATOM     12  C   UNL     1       2.931   5.342  18.240  0.00  0.00    +0.000 A 
ATOM     13  C   UNL     1       3.149   6.844  18.057  0.00  0.00    +0.000 A 
ATOM     14  C   UNL     1       4.231   7.125  17.181  0.00  0.00    +0.000 A 
ATOM     15  C   UNL     1       5.044   6.065  16.614  0.00  0.00    +0.000 A 
ATOM     16  C   UNL     1       4.823   4.706  16.843  0.00  0.00    +0.000 A 
BRANCH  11  18
ATOM     17  C   UNL     1       3.120   1.767  18.325  0.00  0.00    +0.000 C 
ATOM     18  O   UNL     1       3.675   2.907  17.723  0.00  0.00    +0.000 OA
ENDBRANCH  11  18
BRANCH  16  19
ATOM     19  O   UNL     1       5.626   3.739  16.320  0.00  0.00    +0.000 OA
ATOM     20  H   UNL     1       5.408   2.797  16.280  0.00  0.00    +0.000 HD
ENDBRANCH  16  19
ENDBRANCH   1  13
BRANCH   7  21
ATOM     21  O   UNL     1      -1.304  12.466  20.553  0.00  0.00    +0.000 OA
ATOM     22  C   UNL     1      -2.664  12.571  20.202  0.00  0.00    +0.000 C 
ENDBRANCH   7  21
BRANCH   8  23
ATOM     23  O   UNL     1       0.507  13.182  18.741  0.00  0.00    +0.000 OA
ATOM     24  C   UNL     1       0.292  14.562  18.598  0.00  0.00    +0.000 C 
ENDBRANCH   8  23
TORSDOF 5
ENDMDL
MODEL 4
REMARK VINA RESULT:      -6.4      3.703      5.657
REMARK  Name = 
REMARK  8 active torsions:
REMARK  status: ('A' for Active; 'I' for Inactive)
REMARK    1  A    between atoms: C_1  and  O_2
REMARK    2  A    between atoms: O_2  and  C_3
REMARK    3  A    between atoms: C_5  and  C_6
REMARK    4  A    between atoms: C_12  and  O_13
REMARK    5  A    between atoms: O_13  and  C_14
REMARK    6  A    between atoms: C_15  and  O_16
REMARK    7  A    between atoms: O_16  and  C_17
REMARK    8  A    between atoms: C_22  and  O_23
REMARK                            x       y       z     vdW  Elec       q    Type
REMARK                         _______ _______ _______ _____ _____    ______ ____
ROOT
ATOM      1  C   UNL     1       4.776   5.600  16.923  0.00  0.00    +0.000 A 
ATOM      2  N   UNL     1       5.400   4.766  17.777  0.00  0.00    +0.000 NA
ATOM      3  C   UNL     1       5.336   4.695  19.087  0.00  0.00    +0.000 A 
ATOM      4  C   UNL     1       4.165   4.985  19.624  0.00  0.00    +0.000 A 
ATOM      5  C   UNL     1       3.450   6.016  19.062  0.00  0.00    +0.000 A 
ATOM      6  C   UNL     1       2.519   6.458  19.973  0.00  0.00    +0.000 A 
ATOM      7  C   UNL     1       1.836   7.626  19.857  0.00  0.00    +0.000 A 
ATOM      8  C   UNL     1       2.079   8.403  18.710  0.00  0.00    +0.000 A 
ATOM      9  C   UNL     1       2.968   7.866  17.607  0.00  0.00    +0.000 A 
ATOM     10  C   UNL     1       3.764   6.565  17.744  0.00  0.00    +0.000 A 
ENDROOT
BRANCH   1  13
ATOM     11  C   UNL     1       5.363   3.920  13.212  0.00  0.00    +0.000 A 
ATOM     12  C   UNL     1       4.782   4.447  14.453  0.00  0.00    +0.000 A 
ATOM     13  C   UNL     1       5.567   5.170  15.548  0.00  0.00    +0.000 A 
ATOM     14  C   UNL     1       6.938   5.319  15.212  0.00  0.00    +0.000 A 
ATOM     15  C   UNL     1       7.486   4.763  13.989  0.00  0.00    +0.000 A 
ATOM     16  C   UNL     1       6.730   4.078  13.038  0.00  0.00    +0.000 A 
BRANCH  11  18
ATOM     17  C   UNL     1       3.863   3.223  11.082  0.00  0.00    +0.000 C 
ATOM     18  O   UNL     1       4.770   3.238  12.152  0.00  0.00    +0.000 OA
ENDBRANCH  11  18
BRANCH  16  19
ATOM     19  O   UNL     1       7.284   3.541  11.915  0.00  0.00    +0.000 OA
ATOM     20  H   UNL     1       7.862   2.765  11.897  0.00  0.00    +0.000 HD
ENDBRANCH  16  19
ENDBRANCH   1  13
BRANCH   7  21
ATOM     21  O   UNL     1       0.983   8.035  20.882  0.00  0.00    +0.000 OA
ATOM     22  C   UNL     1       1.358   8.822  21.987  0.00  0.00    +0.000 C 
ENDBRANCH   7  21
BRANCH   8  23
ATOM     23  O   UNL     1       1.470   9.653  18.826  0.00  0.00    +0.000 OA
ATOM     24  C   UNL     1       1.094  11.001  18.922  0.00  0.00    +0.000 C 
ENDBRANCH   8  23
TORSDOF 5
ENDMDL
MODEL 5
REMARK VINA RESULT:      -6.1      2.490      4.476
REMARK  Name = 
REMARK  8 active torsions:
REMARK  status: ('A' for Active; 'I' for Inactive)
REMARK    1  A    between atoms: C_1  and  O_2
REMARK    2  A    between atoms: O_2  and  C_3
REMARK    3  A    between atoms: C_5  and  C_6
REMARK    4  A    between atoms: C_12  and  O_13
REMARK    5  A    between atoms: O_13  and  C_14
REMARK    6  A    between atoms: C_15  and  O_16
REMARK    7  A    between atoms: O_16  and  C_17
REMARK    8  A    between atoms: C_22  and  O_23
REMARK                            x       y       z     vdW  Elec       q    Type
REMARK                         _______ _______ _______ _____ _____    ______ ____
ROOT
ATOM      1  C   UNL     1       0.634  10.096  20.864  0.00  0.00    +0.000 A 
ATOM      2  N   UNL     1       0.242   9.219  21.807  0.00  0.00    +0.000 NA
ATOM      3  C   UNL     1      -0.257   9.430  23.003  0.00  0.00    +0.000 A 
ATOM      4  C   UNL     1      -1.033  10.491  23.125  0.00  0.00    +0.000 A 
ATOM      5  C   UNL     1      -0.664  11.626  22.440  0.00  0.00    +0.000 A 
ATOM      6  C   UNL     1      -1.292  12.710  23.008  0.00  0.00    +0.000 A 
ATOM      7  C   UNL     1      -0.950  14.001  22.763  0.00  0.00    +0.000 A 
ATOM      8  C   UNL     1       0.087  14.229  21.840  0.00  0.00    +0.000 A 
ATOM      9  C   UNL     1       0.684  13.067  21.072  0.00  0.00    +0.000 A 
ATOM     10  C   UNL     1       0.325  11.608  21.364  0.00  0.00    +0.000 A 
ENDROOT
BRANCH   1  13
ATOM     11  C   UNL     1       2.502   6.666  19.567  0.00  0.00    +0.000 A 
ATOM     12  C   UNL     1       1.792   7.682  20.354  0.00  0.00    +0.000 A 
ATOM     13  C   UNL     1       1.319   9.033  19.815  0.00  0.00    +0.000 A 
ATOM     14  C   UNL     1       1.606   9.187  18.433  0.00  0.00    +0.000 A 
ATOM     15  C   UNL     1       2.333   8.174  17.690  0.00  0.00    +0.000 A 
ATOM     16  C   UNL     1       2.775   6.971  18.242  0.00  0.00    +0.000 A 
BRANCH  11  18
ATOM     17  C   UNL     1       2.752   4.095  20.339  0.00  0.00    +0.000 C 
ATOM     18  O   UNL     1       2.993   5.416  19.935  0.00  0.00    +0.000 OA
ENDBRANCH  11  18
BRANCH  16  19
ATOM     19  O   UNL     1       3.483   6.057  17.522  0.00  0.00    +0.000 OA
ATOM     20  H   UNL     1       3.528   6.024  16.556  0.00  0.00    +0.000 HD
ENDBRANCH  16  19
ENDBRANCH   1  13
BRANCH   7  21
ATOM     21  O   UNL     1      -1.581  15.030  23.460  0.00  0.00    +0.000 OA
ATOM     22  C   UNL     1      -1.445  15.282  24.839  0.00  0.00    +0.000 C 
ENDBRANCH   7  21
BRANCH   8  23
ATOM     23  O   UNL     1       0.461  15.572  21.844  0.00  0.00    +0.000 OA
ATOM     24  C   UNL     1       0.807  16.909  21.597  0.00  0.00    +0.000 C 
ENDBRANCH   8  23
TORSDOF 5
ENDMDL
MODEL 6
REMARK VINA RESULT:      -6.1      2.428      4.115
REMARK  Name = 
REMARK  8 active torsions:
REMARK  status: ('A' for Active; 'I' for Inactive)
REMARK    1  A    between atoms: C_1  and  O_2
REMARK    2  A    between atoms: O_2  and  C_3
REMARK    3  A    between atoms: C_5  and  C_6
REMARK    4  A    between atoms: C_12  and  O_13
REMARK    5  A    between atoms: O_13  and  C_14
REMARK    6  A    between atoms: C_15  and  O_16
REMARK    7  A    between atoms: O_16  and  C_17
REMARK    8  A    between atoms: C_22  and  O_23
REMARK                            x       y       z     vdW  Elec       q    Type
REMARK                         _______ _______ _______ _____ _____    ______ ____
ROOT
ATOM      1  C   UNL     1       1.518   9.606  18.973  0.00  0.00    +0.000 A 
ATOM      2  N   UNL     1       0.545   9.204  19.812  0.00  0.00    +0.000 NA
ATOM      3  C   UNL     1      -0.325   9.910  20.498  0.00  0.00    +0.000 A 
ATOM      4  C   UNL     1      -0.754  11.017  19.920  0.00  0.00    +0.000 A 
ATOM      5  C   UNL     1       0.164  11.756  19.210  0.00  0.00    +0.000 A 
ATOM      6  C   UNL     1      -0.315  13.037  19.065  0.00  0.00    +0.000 A 
ATOM      7  C   UNL     1       0.441  14.090  18.660  0.00  0.00    +0.000 A 
ATOM      8  C   UNL     1       1.785  13.831  18.337  0.00  0.00    +0.000 A 
ATOM      9  C   UNL     1       2.299  12.406  18.322  0.00  0.00    +0.000 A 
ATOM     10  C   UNL     1       1.462  11.218  18.805  0.00  0.00    +0.000 A 
ENDROOT
BRANCH   1  13
ATOM     11  C   UNL     1       2.766   5.774  19.807  0.00  0.00    +0.000 A 
ATOM     12  C   UNL     1       2.100   7.083  19.822  0.00  0.00    +0.000 A 
ATOM     13  C   UNL     1       2.251   8.154  18.742  0.00  0.00    +0.000 A 
ATOM     14  C   UNL     1       3.086   7.724  17.677  0.00  0.00    +0.000 A 
ATOM     15  C   UNL     1       3.750   6.434  17.704  0.00  0.00    +0.000 A 
ATOM     16  C   UNL     1       3.606   5.506  18.736  0.00  0.00    +0.000 A 
BRANCH  11  18
ATOM     17  C   UNL     1       2.006   3.697  21.349  0.00  0.00    +0.000 C 
ATOM     18  O   UNL     1       2.725   4.726  20.722  0.00  0.00    +0.000 OA
ENDBRANCH  11  18
BRANCH  16  19
ATOM     19  O   UNL     1       4.270   4.317  18.744  0.00  0.00    +0.000 OA
ATOM     20  H   UNL     1       3.918   3.486  19.094  0.00  0.00    +0.000 HD
ENDBRANCH  16  19
ENDBRANCH   1  13
BRANCH   7  21
ATOM     21  O   UNL     1      -0.110  15.370  18.637  0.00  0.00    +0.000 OA
ATOM     22  C   UNL     1      -0.784  15.986  19.709  0.00  0.00    +0.000 C 
ENDBRANCH   7  21
BRANCH   8  23
ATOM     23  O   UNL     1       2.481  15.024  18.139  0.00  0.00    +0.000 OA
ATOM     24  C   UNL     1       3.302  16.096  17.759  0.00  0.00    +0.000 C 
ENDBRANCH   8  23
TORSDOF 5
ENDMDL
MODEL 7
REMARK VINA RESULT:      -6.0      1.640      3.245
REMARK  Name = 
REMARK  8 active torsions:
REMARK  status: ('A' for Active; 'I' for Inactive)
REMARK    1  A    between atoms: C_1  and  O_2
REMARK    2  A    between atoms: O_2  and  C_3
REMARK    3  A    between atoms: C_5  and  C_6
REMARK    4  A    between atoms: C_12  and  O_13
REMARK    5  A    between atoms: O_13  and  C_14
REMARK    6  A    between atoms: C_15  and  O_16
REMARK    7  A    between atoms: O_16  and  C_17
REMARK    8  A    between atoms: C_22  and  O_23
REMARK                            x       y       z     vdW  Elec       q    Type
REMARK                         _______ _______ _______ _____ _____    ______ ____
ROOT
ATOM      1  C   UNL     1       1.597   8.664  19.542  0.00  0.00    +0.000 A 
ATOM      2  N   UNL     1       1.451   8.042  20.727  0.00  0.00    +0.000 NA
ATOM      3  C   UNL     1       0.888   8.458  21.838  0.00  0.00    +0.000 A 
ATOM      4  C   UNL     1      -0.159   9.248  21.692  0.00  0.00    +0.000 A 
ATOM      5  C   UNL     1      -0.114  10.177  20.678  0.00  0.00    +0.000 A 
ATOM      6  C   UNL     1      -1.036  11.164  20.940  0.00  0.00    +0.000 A 
ATOM      7  C   UNL     1      -1.070  12.361  20.300  0.00  0.00    +0.000 A 
ATOM      8  C   UNL     1      -0.122  12.577  19.284  0.00  0.00    +0.000 A 
ATOM      9  C   UNL     1       0.796  11.450  18.856  0.00  0.00    +0.000 A 
ATOM     10  C   UNL     1       0.861  10.108  19.591  0.00  0.00    +0.000 A 
ENDROOT
BRANCH   1  13
ATOM     11  C   UNL     1       3.737   5.186  19.036  0.00  0.00    +0.000 A 
ATOM     12  C   UNL     1       2.819   6.229  19.512  0.00  0.00    +0.000 A 
ATOM     13  C   UNL     1       2.578   7.566  18.812  0.00  0.00    +0.000 A 
ATOM     14  C   UNL     1       3.316   7.679  17.605  0.00  0.00    +0.000 A 
ATOM     15  C   UNL     1       4.234   6.640  17.176  0.00  0.00    +0.000 A 
ATOM     16  C   UNL     1       4.445   5.450  17.873  0.00  0.00    +0.000 A 
BRANCH  11  18
ATOM     17  C   UNL     1       3.655   2.656  19.967  0.00  0.00    +0.000 C 
ATOM     18  O   UNL     1       4.055   3.943  19.579  0.00  0.00    +0.000 OA
ENDBRANCH  11  18
BRANCH  16  19
ATOM     19  O   UNL     1       5.339   4.511  17.458  0.00  0.00    +0.000 OA
ATOM     20  H   UNL     1       5.131   3.762  16.880  0.00  0.00    +0.000 HD
ENDBRANCH  16  19
ENDBRANCH   1  13
BRANCH   7  21
ATOM     21  O   UNL     1      -1.983  13.336  20.703  0.00  0.00    +0.000 OA
ATOM     22  C   UNL     1      -1.939  14.039  21.922  0.00  0.00    +0.000 C 
ENDBRANCH   7  21
BRANCH   8  23
ATOM     23  O   UNL     1      -0.145  13.907  18.865  0.00  0.00    +0.000 OA
ATOM     24  C   UNL     1      -0.005  15.283  18.632  0.00  0.00    +0.000 C 
ENDBRANCH   8  23
TORSDOF 5
ENDMDL
MODEL 8
REMARK VINA RESULT:      -6.0      2.029      3.746
REMARK  Name = 
REMARK  8 active torsions:
REMARK  status: ('A' for Active; 'I' for Inactive)
REMARK    1  A    between atoms: C_1  and  O_2
REMARK    2  A    between atoms: O_2  and  C_3
REMARK    3  A    between atoms: C_5  and  C_6
REMARK    4  A    between atoms: C_12  and  O_13
REMARK    5  A    between atoms: O_13  and  C_14
REMARK    6  A    between atoms: C_15  and  O_16
REMARK    7  A    between atoms: O_16  and  C_17
REMARK    8  A    between atoms: C_22  and  O_23
REMARK                            x       y       z     vdW  Elec       q    Type
REMARK                         _______ _______ _______ _____ _____    ______ ____
ROOT
ATOM      1  C   UNL     1       1.021   9.113  20.443  0.00  0.00    +0.000 A 
ATOM      2  N   UNL     1       1.018   8.653  21.709  0.00  0.00    +0.000 NA
ATOM      3  C   UNL     1       0.676   9.253  22.826  0.00  0.00    +0.000 A 
ATOM      4  C   UNL     1      -0.315  10.120  22.734  0.00  0.00    +0.000 A 
ATOM      5  C   UNL     1      -0.358  10.914  21.611  0.00  0.00    +0.000 A 
ATOM      6  C   UNL     1      -1.144  12.012  21.874  0.00  0.00    +0.000 A 
ATOM      7  C   UNL     1      -1.184  13.122  21.094  0.00  0.00    +0.000 A 
ATOM      8  C   UNL     1      -0.397  13.120  19.928  0.00  0.00    +0.000 A 
ATOM      9  C   UNL     1       0.347  11.864  19.521  0.00  0.00    +0.000 A 
ATOM     10  C   UNL     1       0.421  10.619  20.409  0.00  0.00    +0.000 A 
ENDROOT
BRANCH   1  13
ATOM     11  C   UNL     1       2.504   5.301  19.993  0.00  0.00    +0.000 A 
ATOM     12  C   UNL     1       1.793   6.499  20.455  0.00  0.00    +0.000 A 
ATOM     13  C   UNL     1       1.781   7.844  19.728  0.00  0.00    +0.000 A 
ATOM     14  C   UNL     1       2.509   7.799  18.509  0.00  0.00    +0.000 A 
ATOM     15  C   UNL     1       3.221   6.605  18.093  0.00  0.00    +0.000 A 
ATOM     16  C   UNL     1       3.230   5.412  18.816  0.00  0.00    +0.000 A 
BRANCH  11  18
ATOM     17  C   UNL     1       2.289   3.145  21.599  0.00  0.00    +0.000 C 
ATOM     18  O   UNL     1       2.607   4.033  20.560  0.00  0.00    +0.000 OA
ENDBRANCH  11  18
BRANCH  16  19
ATOM     19  O   UNL     1       3.937   4.321  18.411  0.00  0.00    +0.000 OA
ATOM     20  H   UNL     1       4.439   4.258  17.586  0.00  0.00    +0.000 HD
ENDBRANCH  16  19
ENDBRANCH   1  13
BRANCH   7  21
ATOM     21  O   UNL     1      -1.939  14.224  21.495  0.00  0.00    +0.000 OA
ATOM     22  C   UNL     1      -2.041  14.704  22.814  0.00  0.00    +0.000 C 
ENDBRANCH   7  21
BRANCH   8  23
ATOM     23  O   UNL     1      -0.380  14.386  19.344  0.00  0.00    +0.000 OA
ATOM     24  C   UNL     1      -0.133  15.680  18.860  0.00  0.00    +0.000 C 
ENDBRANCH   8  23
TORSDOF 5
ENDMDL
MODEL 9
REMARK VINA RESULT:      -6.0      1.754      2.903
REMARK  Name = 
REMARK  8 active torsions:
REMARK  status: ('A' for Active; 'I' for Inactive)
REMARK    1  A    between atoms: C_1  and  O_2
REMARK    2  A    between atoms: O_2  and  C_3
REMARK    3  A    between atoms: C_5  and  C_6
REMARK    4  A    between atoms: C_12  and  O_13
REMARK    5  A    between atoms: O_13  and  C_14
REMARK    6  A    between atoms: C_15  and  O_16
REMARK    7  A    between atoms: O_16  and  C_17
REMARK    8  A    between atoms: C_22  and  O_23
REMARK                            x       y       z     vdW  Elec       q    Type
REMARK                         _______ _______ _______ _____ _____    ______ ____
ROOT
ATOM      1  C   UNL     1       2.065   7.524  19.177  0.00  0.00    +0.000 A 
ATOM      2  N   UNL     1       1.619   7.078  20.367  0.00  0.00    +0.000 NA
ATOM      3  C   UNL     1       1.120   7.740  21.385  0.00  0.00    +0.000 A 
ATOM      4  C   UNL     1       0.401   8.805  21.084  0.00  0.00    +0.000 A 
ATOM      5  C   UNL     1       0.835   9.586  20.039  0.00  0.00    +0.000 A 
ATOM      6  C   UNL     1       0.260  10.831  20.146  0.00  0.00    +0.000 A 
ATOM      7  C   UNL     1       0.671  11.922  19.451  0.00  0.00    +0.000 A 
ATOM      8  C   UNL     1       1.728  11.744  18.539  0.00  0.00    +0.000 A 
ATOM      9  C   UNL     1       2.269  10.354  18.272  0.00  0.00    +0.000 A 
ATOM     10  C   UNL     1       1.831   9.125  19.073  0.00  0.00    +0.000 A 
ENDROOT
BRANCH   1  13
ATOM     11  C   UNL     1       4.938   4.735  18.230  0.00  0.00    +0.000 A 
ATOM     12  C   UNL     1       4.208   5.893  18.759  0.00  0.00    +0.000 A 
ATOM     13  C   UNL     1       2.703   6.117  18.617  0.00  0.00    +0.000 A 
ATOM     14  C   UNL     1       2.064   5.043  17.942  0.00  0.00    +0.000 A 
ATOM     15  C   UNL     1       2.818   3.925  17.408  0.00  0.00    +0.000 A 
ATOM     16  C   UNL     1       4.201   3.787  17.534  0.00  0.00    +0.000 A 
BRANCH  11  18
ATOM     17  C   UNL     1       7.615   4.704  17.900  0.00  0.00    +0.000 C 
ATOM     18  O   UNL     1       6.294   4.419  18.278  0.00  0.00    +0.000 OA
ENDBRANCH  11  18
BRANCH  16  19
ATOM     19  O   UNL     1       4.881   2.739  16.992  0.00  0.00    +0.000 OA
ATOM     20  H   UNL     1       4.838   2.469  16.064  0.00  0.00    +0.000 HD
ENDBRANCH  16  19
ENDBRANCH   1  13
BRANCH   7  21
ATOM     21  O   UNL     1       0.088  13.164  19.700  0.00  0.00    +0.000 OA
ATOM     22  C   UNL     1      -1.088  13.376  20.444  0.00  0.00    +0.000 C 
ENDBRANCH   7  21
BRANCH   8  23
ATOM     23  O   UNL     1       2.172  12.974  18.056  0.00  0.00    +0.000 OA
ATOM     24  C   UNL     1       2.568  14.296  17.803  0.00  0.00    +0.000 C 
ENDBRANCH   8  23
TORSDOF 5
ENDMDL
