MODEL 1
REMARK VINA RESULT:      -7.7      0.000      0.000
REMARK  Name = 
REMARK  4 active torsions:
REMARK  status: ('A' for Active; 'I' for Inactive)
REMARK    1  A    between atoms: C_2  and  C_3
REMARK    2  A    between atoms: C_7  and  C_8
REMARK    3  A    between atoms: C_8  and  S_9
REMARK    4  A    between atoms: S_9  and  C_12
REMARK                            x       y       z     vdW  Elec       q    Type
REMARK                         _______ _______ _______ _____ _____    ______ ____
ROOT
ATOM      1  C   UNL     1       1.771   8.224  19.995  0.00  0.00    +0.000 A 
ATOM      2  C   UNL     1       1.982   8.881  18.791  0.00  0.00    +0.000 A 
ATOM      3  N   UNL     1       2.545   8.299  17.703  0.00  0.00    +0.000 NA
ATOM      4  C   UNL     1       2.911   7.003  17.819  0.00  0.00    +0.000 A 
ATOM      5  C   UNL     1       2.765   6.260  18.985  0.00  0.00    +0.000 A 
ATOM      6  C   UNL     1       2.247   6.918  20.105  0.00  0.00    +0.000 A 
ENDROOT
BRANCH   1   8
ATOM      7  O   UNL     1       1.561   8.820  22.211  0.00  0.00    +0.000 OA
ATOM      8  C   UNL     1       1.075   8.937  21.087  0.00  0.00    +0.000 C 
ATOM      9  N   UNL     1      -0.057   9.721  20.837  0.00  0.00    +0.000 N 
ATOM     10  C   UNL     1      -0.646  10.058  19.534  0.00  0.00    +0.000 C 
ATOM     11  C   UNL     1      -0.609  11.556  19.267  0.00  0.00    +0.000 C 
ATOM     12  C   UNL     1      -1.225  12.343  20.416  0.00  0.00    +0.000 C 
ATOM     13  C   UNL     1      -0.595  11.942  21.749  0.00  0.00    +0.000 C 
ATOM     14  C   UNL     1      -0.667  10.430  21.963  0.00  0.00    +0.000 C 
ENDBRANCH   1   8
BRANCH   5  15
ATOM     15  C   UNL     1       3.074   4.791  19.014  0.00  0.00    +0.000 C 
BRANCH  15  16
ATOM     16  S   UNL     1       4.824   4.489  19.132  0.00  0.00    +0.000 S 
ATOM     17  O   UNL     1       5.421   5.592  19.864  0.00  0.00    +0.000 OA
ATOM     18  O   UNL     1       4.976   3.151  19.669  0.00  0.00    +0.000 OA
BRANCH  16  19
ATOM     19  C   UNL     1       5.451   4.588  17.465  0.00  0.00    +0.000 A 
ATOM     20  C   UNL     1       4.708   4.009  16.415  0.00  0.00    +0.000 A 
ATOM     21 CL   UNL     1       3.196   3.186  16.603  0.00  0.00    +0.000 Cl
ATOM     22  C   UNL     1       5.190   4.036  15.099  0.00  0.00    +0.000 A 
ATOM     23  C   UNL     1       6.399   4.648  14.804  0.00  0.00    +0.000 A 
ATOM     24  C   UNL     1       7.127   5.239  15.828  0.00  0.00    +0.000 A 
ATOM     25  C   UNL     1       6.666   5.219  17.156  0.00  0.00    +0.000 A 
ATOM     26 CL   UNL     1       7.719   5.996  18.279  0.00  0.00    +0.000 Cl
ENDBRANCH  16  19
ENDBRANCH  15  16
ENDBRANCH   5  15
TORSDOF 4
ENDMDL
MODEL 2
REMARK VINA RESULT:      -7.6      6.180      8.399
REMARK  Name = 
REMARK  4 active torsions:
REMARK  status: ('A' for Active; 'I' for Inactive)
REMARK    1  A    between atoms: C_2  and  C_3
REMARK    2  A    between atoms: C_7  and  C_8
REMARK    3  A    between atoms: C_8  and  S_9
REMARK    4  A    between atoms: S_9  and  C_12
REMARK                            x       y       z     vdW  Elec       q    Type
REMARK                         _______ _______ _______ _____ _____    ______ ____
ROOT
ATOM      1  C   UNL     1      -4.604  10.899  17.859  0.00  0.00    +0.000 A 
ATOM      2  C   UNL     1      -4.718  11.276  16.529  0.00  0.00    +0.000 A 
ATOM      3  N   UNL     1      -3.679  11.287  15.658  0.00  0.00    +0.000 NA
ATOM      4  C   UNL     1      -2.474  10.903  16.132  0.00  0.00    +0.000 A 
ATOM      5  C   UNL     1      -2.246  10.528  17.452  0.00  0.00    +0.000 A 
ATOM      6  C   UNL     1      -3.328  10.600  18.335  0.00  0.00    +0.000 A 
ENDROOT
BRANCH   1   8
ATOM      7  O   UNL     1      -6.367   9.751  18.802  0.00  0.00    +0.000 OA
ATOM      8  C   UNL     1      -5.822  10.849  18.696  0.00  0.00    +0.000 C 
ATOM      9  N   UNL     1      -6.303  11.991  19.348  0.00  0.00    +0.000 N 
ATOM     10  C   UNL     1      -5.671  13.315  19.421  0.00  0.00    +0.000 C 
ATOM     11  C   UNL     1      -5.321  13.696  20.852  0.00  0.00    +0.000 C 
ATOM     12  C   UNL     1      -6.523  13.562  21.777  0.00  0.00    +0.000 C 
ATOM     13  C   UNL     1      -7.156  12.177  21.648  0.00  0.00    +0.000 C 
ATOM     14  C   UNL     1      -7.491  11.854  20.192  0.00  0.00    +0.000 C 
ENDBRANCH   1   8
BRANCH   5  15
ATOM     15  C   UNL     1      -0.914   9.991  17.888  0.00  0.00    +0.000 C 
BRANCH  15  16
ATOM     16  S   UNL     1      -0.001  11.188  18.837  0.00  0.00    +0.000 S 
ATOM     17  O   UNL     1       1.414  10.970  18.592  0.00  0.00    +0.000 OA
ATOM     18  O   UNL     1      -0.558  12.485  18.510  0.00  0.00    +0.000 OA
BRANCH  16  19
ATOM     19  C   UNL     1      -0.288  10.778  20.548  0.00  0.00    +0.000 A 
ATOM     20  C   UNL     1      -1.099  11.625  21.332  0.00  0.00    +0.000 A 
ATOM     21 CL   UNL     1      -1.865  13.071  20.766  0.00  0.00    +0.000 Cl
ATOM     22  C   UNL     1      -1.315  11.352  22.690  0.00  0.00    +0.000 A 
ATOM     23  C   UNL     1      -0.746  10.235  23.283  0.00  0.00    +0.000 A 
ATOM     24  C   UNL     1       0.036   9.383  22.514  0.00  0.00    +0.000 A 
ATOM     25  C   UNL     1       0.270   9.641  21.152  0.00  0.00    +0.000 A 
ATOM     26 CL   UNL     1       1.277   8.473  20.378  0.00  0.00    +0.000 Cl
ENDBRANCH  16  19
ENDBRANCH  15  16
ENDBRANCH   5  15
TORSDOF 4
ENDMDL
MODEL 3
REMARK VINA RESULT:      -7.5      0.252      1.828
REMARK  Name = 
REMARK  4 active torsions:
REMARK  status: ('A' for Active; 'I' for Inactive)
REMARK    1  A    between atoms: C_2  and  C_3
REMARK    2  A    between atoms: C_7  and  C_8
REMARK    3  A    between atoms: C_8  and  S_9
REMARK    4  A    between atoms: S_9  and  C_12
REMARK                            x       y       z     vdW  Elec       q    Type
REMARK                         _______ _______ _______ _____ _____    ______ ____
ROOT
ATOM      1  C   UNL     1       1.770   8.331  19.792  0.00  0.00    +0.000 A 
ATOM      2  C   UNL     1       2.024   8.937  18.570  0.00  0.00    +0.000 A 
ATOM      3  N   UNL     1       2.618   8.307  17.527  0.00  0.00    +0.000 NA
ATOM      4  C   UNL     1       2.972   7.016  17.707  0.00  0.00    +0.000 A 
ATOM      5  C   UNL     1       2.784   6.322  18.898  0.00  0.00    +0.000 A 
ATOM      6  C   UNL     1       2.234   7.029  19.972  0.00  0.00    +0.000 A 
ENDROOT
BRANCH   1   8
ATOM      7  O   UNL     1       1.510   9.045  21.968  0.00  0.00    +0.000 OA
ATOM      8  C   UNL     1       1.043   9.092  20.831  0.00  0.00    +0.000 C 
ATOM      9  N   UNL     1      -0.096   9.842  20.518  0.00  0.00    +0.000 N 
ATOM     10  C   UNL     1      -0.666  10.097  19.188  0.00  0.00    +0.000 C 
ATOM     11  C   UNL     1      -0.648  11.578  18.839  0.00  0.00    +0.000 C 
ATOM     12  C   UNL     1      -1.296  12.417  19.931  0.00  0.00    +0.000 C 
ATOM     13  C   UNL     1      -0.685  12.102  21.295  0.00  0.00    +0.000 C 
ATOM     14  C   UNL     1      -0.738  10.603  21.592  0.00  0.00    +0.000 C 
ENDBRANCH   1   8
BRANCH   5  15
ATOM     15  C   UNL     1       3.083   4.855  18.997  0.00  0.00    +0.000 C 
BRANCH  15  16
ATOM     16  S   UNL     1       4.832   4.546  19.118  0.00  0.00    +0.000 S 
ATOM     17  O   UNL     1       5.442   5.679  19.789  0.00  0.00    +0.000 OA
ATOM     18  O   UNL     1       4.978   3.235  19.721  0.00  0.00    +0.000 OA
BRANCH  16  19
ATOM     19  C   UNL     1       5.446   4.556  17.444  0.00  0.00    +0.000 A 
ATOM     20  C   UNL     1       6.718   5.106  17.182  0.00  0.00    +0.000 A 
ATOM     21 CL   UNL     1       7.769   5.794  18.374  0.00  0.00    +0.000 Cl
ATOM     22  C   UNL     1       7.216   5.165  15.872  0.00  0.00    +0.000 A 
ATOM     23  C   UNL     1       6.472   4.667  14.813  0.00  0.00    +0.000 A 
ATOM     24  C   UNL     1       5.227   4.103  15.065  0.00  0.00    +0.000 A 
ATOM     25  C   UNL     1       4.707   4.040  16.369  0.00  0.00    +0.000 A 
ATOM     26 CL   UNL     1       3.144   3.316  16.468  0.00  0.00    +0.000 Cl
ENDBRANCH  16  19
ENDBRANCH  15  16
ENDBRANCH   5  15
TORSDOF 4
ENDMDL
MODEL 4
REMARK VINA RESULT:      -7.3      3.987      8.758
REMARK  Name = 
REMARK  4 active torsions:
REMARK  status: ('A' for Active; 'I' for Inactive)
REMARK    1  A    between atoms: C_2  and  C_3
REMARK    2  A    between atoms: C_7  and  C_8
REMARK    3  A    between atoms: C_8  and  S_9
REMARK    4  A    between atoms: S_9  and  C_12
REMARK                            x       y       z     vdW  Elec       q    Type
REMARK                         _______ _______ _______ _____ _____    ______ ____
ROOT
ATOM      1  C   UNL     1       2.840   6.973  18.824  0.00  0.00    +0.000 A 
ATOM      2  C   UNL     1       2.982   7.684  17.641  0.00  0.00    +0.000 A 
ATOM      3  N   UNL     1       2.405   8.890  17.414  0.00  0.00    +0.000 NA
ATOM      4  C   UNL     1       1.656   9.412  18.410  0.00  0.00    +0.000 A 
ATOM      5  C   UNL     1       1.431   8.773  19.625  0.00  0.00    +0.000 A 
ATOM      6  C   UNL     1       1.985   7.499  19.791  0.00  0.00    +0.000 A 
ENDROOT
BRANCH   1   8
ATOM      7  O   UNL     1       4.672   5.780  19.556  0.00  0.00    +0.000 OA
ATOM      8  C   UNL     1       3.582   5.705  18.990  0.00  0.00    +0.000 C 
ATOM      9  N   UNL     1       3.049   4.489  18.547  0.00  0.00    +0.000 N 
ATOM     10  C   UNL     1       1.711   4.244  17.993  0.00  0.00    +0.000 C 
ATOM     11  C   UNL     1       0.903   3.293  18.865  0.00  0.00    +0.000 C 
ATOM     12  C   UNL     1       1.669   2.009  19.150  0.00  0.00    +0.000 C 
ATOM     13  C   UNL     1       3.060   2.317  19.703  0.00  0.00    +0.000 C 
ATOM     14  C   UNL     1       3.824   3.269  18.783  0.00  0.00    +0.000 C 
ENDBRANCH   1   8
BRANCH   5  15
ATOM     15  C   UNL     1       0.695   9.458  20.739  0.00  0.00    +0.000 C 
BRANCH  15  16
ATOM     16  S   UNL     1       0.581  11.214  20.470  0.00  0.00    +0.000 S 
ATOM     17  O   UNL     1       1.774  11.830  21.021  0.00  0.00    +0.000 OA
ATOM     18  O   UNL     1       0.306  11.398  19.059  0.00  0.00    +0.000 OA
BRANCH  16  19
ATOM     19  C   UNL     1      -0.786  11.773  21.470  0.00  0.00    +0.000 A 
ATOM     20  C   UNL     1      -1.521  12.905  21.059  0.00  0.00    +0.000 A 
ATOM     21 CL   UNL     1      -1.206  13.830  19.629  0.00  0.00    +0.000 Cl
ATOM     22  C   UNL     1      -2.577  13.394  21.840  0.00  0.00    +0.000 A 
ATOM     23  C   UNL     1      -2.929  12.762  23.024  0.00  0.00    +0.000 A 
ATOM     24  C   UNL     1      -2.226  11.634  23.425  0.00  0.00    +0.000 A 
ATOM     25  C   UNL     1      -1.159  11.130  22.660  0.00  0.00    +0.000 A 
ATOM     26 CL   UNL     1      -0.409   9.732  23.335  0.00  0.00    +0.000 Cl
ENDBRANCH  16  19
ENDBRANCH  15  16
ENDBRANCH   5  15
TORSDOF 4
ENDMDL
MODEL 5
REMARK VINA RESULT:      -7.2      4.019      8.453
REMARK  Name = 
REMARK  4 active torsions:
REMARK  status: ('A' for Active; 'I' for Inactive)
REMARK    1  A    between atoms: C_2  and  C_3
REMARK    2  A    between atoms: C_7  and  C_8
REMARK    3  A    between atoms: C_8  and  S_9
REMARK    4  A    between atoms: S_9  and  C_12
REMARK                            x       y       z     vdW  Elec       q    Type
REMARK                         _______ _______ _______ _____ _____    ______ ____
ROOT
ATOM      1  C   UNL     1       2.931   6.929  18.808  0.00  0.00    +0.000 A 
ATOM      2  C   UNL     1       3.424   7.582  17.687  0.00  0.00    +0.000 A 
ATOM      3  N   UNL     1       2.929   8.754  17.219  0.00  0.00    +0.000 NA
ATOM      4  C   UNL     1       1.898   9.303  17.900  0.00  0.00    +0.000 A 
ATOM      5  C   UNL     1       1.315   8.721  19.020  0.00  0.00    +0.000 A 
ATOM      6  C   UNL     1       1.808   7.477  19.427  0.00  0.00    +0.000 A 
ENDROOT
BRANCH   1   8
ATOM      7  O   UNL     1       4.781   5.812  19.610  0.00  0.00    +0.000 OA
ATOM      8  C   UNL     1       3.603   5.697  19.272  0.00  0.00    +0.000 C 
ATOM      9  N   UNL     1       2.918   4.479  19.343  0.00  0.00    +0.000 N 
ATOM     10  C   UNL     1       1.487   4.239  19.111  0.00  0.00    +0.000 C 
ATOM     11  C   UNL     1       0.790   3.720  20.360  0.00  0.00    +0.000 C 
ATOM     12  C   UNL     1       1.507   2.507  20.937  0.00  0.00    +0.000 C 
ATOM     13  C   UNL     1       2.993   2.799  21.140  0.00  0.00    +0.000 C 
ATOM     14  C   UNL     1       3.639   3.310  19.852  0.00  0.00    +0.000 C 
ENDBRANCH   1   8
BRANCH   5  15
ATOM     15  C   UNL     1       0.257   9.438  19.807  0.00  0.00    +0.000 C 
BRANCH  15  16
ATOM     16  S   UNL     1       0.934  10.801  20.730  0.00  0.00    +0.000 S 
ATOM     17  O   UNL     1       1.735  10.256  21.812  0.00  0.00    +0.000 OA
ATOM     18  O   UNL     1       1.585  11.667  19.768  0.00  0.00    +0.000 OA
BRANCH  16  19
ATOM     19  C   UNL     1      -0.458  11.615  21.491  0.00  0.00    +0.000 A 
ATOM     20  C   UNL     1      -1.011  11.075  22.670  0.00  0.00    +0.000 A 
ATOM     21 CL   UNL     1      -0.444   9.648  23.472  0.00  0.00    +0.000 Cl
ATOM     22  C   UNL     1      -2.129  11.668  23.274  0.00  0.00    +0.000 A 
ATOM     23  C   UNL     1      -2.701  12.808  22.728  0.00  0.00    +0.000 A 
ATOM     24  C   UNL     1      -2.150  13.360  21.579  0.00  0.00    +0.000 A 
ATOM     25  C   UNL     1      -1.033  12.778  20.955  0.00  0.00    +0.000 A 
ATOM     26 CL   UNL     1      -0.509  13.606  19.536  0.00  0.00    +0.000 Cl
ENDBRANCH  16  19
ENDBRANCH  15  16
ENDBRANCH   5  15
TORSDOF 4
ENDMDL
MODEL 6
REMARK VINA RESULT:      -7.2      3.343      8.132
REMARK  Name = 
REMARK  4 active torsions:
REMARK  status: ('A' for Active; 'I' for Inactive)
REMARK    1  A    between atoms: C_2  and  C_3
REMARK    2  A    between atoms: C_7  and  C_8
REMARK    3  A    between atoms: C_8  and  S_9
REMARK    4  A    between atoms: S_9  and  C_12
REMARK                            x       y       z     vdW  Elec       q    Type
REMARK                         _______ _______ _______ _____ _____    ______ ____
ROOT
ATOM      1  C   UNL     1       3.785   5.048  19.647  0.00  0.00    +0.000 A 
ATOM      2  C   UNL     1       2.939   4.172  20.310  0.00  0.00    +0.000 A 
ATOM      3  N   UNL     1       1.726   4.525  20.804  0.00  0.00    +0.000 NA
ATOM      4  C   UNL     1       1.338   5.807  20.627  0.00  0.00    +0.000 A 
ATOM      5  C   UNL     1       2.119   6.771  19.998  0.00  0.00    +0.000 A 
ATOM      6  C   UNL     1       3.392   6.383  19.567  0.00  0.00    +0.000 A 
ENDROOT
BRANCH   1   8
ATOM      7  O   UNL     1       5.463   3.471  19.548  0.00  0.00    +0.000 OA
ATOM      8  C   UNL     1       5.049   4.531  19.081  0.00  0.00    +0.000 C 
ATOM      9  N   UNL     1       5.713   5.207  18.050  0.00  0.00    +0.000 N 
ATOM     10  C   UNL     1       5.255   6.391  17.312  0.00  0.00    +0.000 C 
ATOM     11  C   UNL     1       5.064   6.095  15.831  0.00  0.00    +0.000 C 
ATOM     12  C   UNL     1       6.309   5.464  15.223  0.00  0.00    +0.000 C 
ATOM     13  C   UNL     1       6.758   4.252  16.037  0.00  0.00    +0.000 C 
ATOM     14  C   UNL     1       6.938   4.611  17.512  0.00  0.00    +0.000 C 
ENDBRANCH   1   8
BRANCH   5  15
ATOM     15  C   UNL     1       1.584   8.145  19.720  0.00  0.00    +0.000 C 
BRANCH  15  16
ATOM     16  S   UNL     1       0.797   8.847  21.153  0.00  0.00    +0.000 S 
ATOM     17  O   UNL     1      -0.449   8.136  21.375  0.00  0.00    +0.000 OA
ATOM     18  O   UNL     1       1.787   8.838  22.212  0.00  0.00    +0.000 OA
BRANCH  16  19
ATOM     19  C   UNL     1       0.355  10.514  20.701  0.00  0.00    +0.000 A 
ATOM     20  C   UNL     1      -0.407  11.292  21.598  0.00  0.00    +0.000 A 
ATOM     21 CL   UNL     1      -0.969  10.758  23.147  0.00  0.00    +0.000 Cl
ATOM     22  C   UNL     1      -0.804  12.593  21.258  0.00  0.00    +0.000 A 
ATOM     23  C   UNL     1      -0.440  13.144  20.039  0.00  0.00    +0.000 A 
ATOM     24  C   UNL     1       0.328  12.394  19.158  0.00  0.00    +0.000 A 
ATOM     25  C   UNL     1       0.732  11.085  19.476  0.00  0.00    +0.000 A 
ATOM     26 CL   UNL     1       1.668  10.320  18.246  0.00  0.00    +0.000 Cl
ENDBRANCH  16  19
ENDBRANCH  15  16
ENDBRANCH   5  15
TORSDOF 4
ENDMDL
MODEL 7
REMARK VINA RESULT:      -7.2      4.105      8.655
REMARK  Name = 
REMARK  4 active torsions:
REMARK  status: ('A' for Active; 'I' for Inactive)
REMARK    1  A    between atoms: C_2  and  C_3
REMARK    2  A    between atoms: C_7  and  C_8
REMARK    3  A    between atoms: C_8  and  S_9
REMARK    4  A    between atoms: S_9  and  C_12
REMARK                            x       y       z     vdW  Elec       q    Type
REMARK                         _______ _______ _______ _____ _____    ______ ____
ROOT
ATOM      1  C   UNL     1       2.949   6.881  18.948  0.00  0.00    +0.000 A 
ATOM      2  C   UNL     1       3.115   7.399  17.672  0.00  0.00    +0.000 A 
ATOM      3  N   UNL     1       2.602   8.589  17.269  0.00  0.00    +0.000 NA
ATOM      4  C   UNL     1       1.895   9.295  18.179  0.00  0.00    +0.000 A 
ATOM      5  C   UNL     1       1.651   8.857  19.477  0.00  0.00    +0.000 A 
ATOM      6  C   UNL     1       2.136   7.593  19.829  0.00  0.00    +0.000 A 
ENDROOT
BRANCH   1   8
ATOM      7  O   UNL     1       4.824   5.683  19.551  0.00  0.00    +0.000 OA
ATOM      8  C   UNL     1       3.622   5.612  19.298  0.00  0.00    +0.000 C 
ATOM      9  N   UNL     1       2.912   4.408  19.362  0.00  0.00    +0.000 N 
ATOM     10  C   UNL     1       1.462   4.212  19.227  0.00  0.00    +0.000 C 
ATOM     11  C   UNL     1       0.848   3.645  20.499  0.00  0.00    +0.000 C 
ATOM     12  C   UNL     1       1.574   2.389  20.959  0.00  0.00    +0.000 C 
ATOM     13  C   UNL     1       3.078   2.637  21.063  0.00  0.00    +0.000 C 
ATOM     14  C   UNL     1       3.638   3.199  19.756  0.00  0.00    +0.000 C 
ENDBRANCH   1   8
BRANCH   5  15
ATOM     15  C   UNL     1       0.968   9.740  20.479  0.00  0.00    +0.000 C 
BRANCH  15  16
ATOM     16  S   UNL     1      -0.180  10.856  19.699  0.00  0.00    +0.000 S 
ATOM     17  O   UNL     1       0.576  11.743  18.833  0.00  0.00    +0.000 OA
ATOM     18  O   UNL     1      -1.212  10.033  19.101  0.00  0.00    +0.000 OA
BRANCH  16  19
ATOM     19  C   UNL     1      -0.843  11.869  21.008  0.00  0.00    +0.000 A 
ATOM     20  C   UNL     1      -1.159  13.218  20.742  0.00  0.00    +0.000 A 
ATOM     21 CL   UNL     1      -0.955  14.003  19.212  0.00  0.00    +0.000 Cl
ATOM     22  C   UNL     1      -1.646  14.052  21.757  0.00  0.00    +0.000 A 
ATOM     23  C   UNL     1      -1.842  13.560  23.040  0.00  0.00    +0.000 A 
ATOM     24  C   UNL     1      -1.554  12.228  23.306  0.00  0.00    +0.000 A 
ATOM     25  C   UNL     1      -1.059  11.375  22.304  0.00  0.00    +0.000 A 
ATOM     26 CL   UNL     1      -0.753   9.764  22.839  0.00  0.00    +0.000 Cl
ENDBRANCH  16  19
ENDBRANCH  15  16
ENDBRANCH   5  15
TORSDOF 4
ENDMDL
MODEL 8
REMARK VINA RESULT:      -7.2      2.119      3.252
REMARK  Name = 
REMARK  4 active torsions:
REMARK  status: ('A' for Active; 'I' for Inactive)
REMARK    1  A    between atoms: C_2  and  C_3
REMARK    2  A    between atoms: C_7  and  C_8
REMARK    3  A    between atoms: C_8  and  S_9
REMARK    4  A    between atoms: S_9  and  C_12
REMARK                            x       y       z     vdW  Elec       q    Type
REMARK                         _______ _______ _______ _____ _____    ______ ____
ROOT
ATOM      1  C   UNL     1       0.633   9.872  19.109  0.00  0.00    +0.000 A 
ATOM      2  C   UNL     1       0.503   9.387  20.402  0.00  0.00    +0.000 A 
ATOM      3  N   UNL     1       1.189   8.319  20.879  0.00  0.00    +0.000 NA
ATOM      4  C   UNL     1       2.044   7.707  20.029  0.00  0.00    +0.000 A 
ATOM      5  C   UNL     1       2.232   8.097  18.708  0.00  0.00    +0.000 A 
ATOM      6  C   UNL     1       1.453   9.158  18.235  0.00  0.00    +0.000 A 
ENDROOT
BRANCH   1   8
ATOM      7  O   UNL     1      -1.309  10.959  18.510  0.00  0.00    +0.000 OA
ATOM      8  C   UNL     1      -0.106  11.094  18.725  0.00  0.00    +0.000 C 
ATOM      9  N   UNL     1       0.537  12.334  18.641  0.00  0.00    +0.000 N 
ATOM     10  C   UNL     1       1.922  12.655  19.010  0.00  0.00    +0.000 C 
ATOM     11  C   UNL     1       1.986  13.665  20.146  0.00  0.00    +0.000 C 
ATOM     12  C   UNL     1       1.155  14.903  19.840  0.00  0.00    +0.000 C 
ATOM     13  C   UNL     1      -0.269  14.517  19.442  0.00  0.00    +0.000 C 
ATOM     14  C   UNL     1      -0.269  13.507  18.295  0.00  0.00    +0.000 C 
ENDBRANCH   1   8
BRANCH   5  15
ATOM     15  C   UNL     1       3.286   7.459  17.852  0.00  0.00    +0.000 C 
BRANCH  15  16
ATOM     16  S   UNL     1       3.617   5.784  18.354  0.00  0.00    +0.000 S 
ATOM     17  O   UNL     1       4.315   5.827  19.626  0.00  0.00    +0.000 OA
ATOM     18  O   UNL     1       2.352   5.078  18.293  0.00  0.00    +0.000 OA
BRANCH  16  19
ATOM     19  C   UNL     1       4.774   5.135  17.162  0.00  0.00    +0.000 A 
ATOM     20  C   UNL     1       5.914   5.893  16.827  0.00  0.00    +0.000 A 
ATOM     21 CL   UNL     1       6.306   7.445  17.488  0.00  0.00    +0.000 Cl
ATOM     22  C   UNL     1       6.824   5.430  15.866  0.00  0.00    +0.000 A 
ATOM     23  C   UNL     1       6.626   4.209  15.240  0.00  0.00    +0.000 A 
ATOM     24  C   UNL     1       5.517   3.445  15.579  0.00  0.00    +0.000 A 
ATOM     25  C   UNL     1       4.589   3.893  16.536  0.00  0.00    +0.000 A 
ATOM     26 CL   UNL     1       3.277   2.806  16.805  0.00  0.00    +0.000 Cl
ENDBRANCH  16  19
ENDBRANCH  15  16
ENDBRANCH   5  15
TORSDOF 4
ENDMDL
MODEL 9
REMARK VINA RESULT:      -7.1      3.414      8.442
REMARK  Name = 
REMARK  4 active torsions:
REMARK  status: ('A' for Active; 'I' for Inactive)
REMARK    1  A    between atoms: C_2  and  C_3
REMARK    2  A    between atoms: C_7  and  C_8
REMARK    3  A    between atoms: C_8  and  S_9
REMARK    4  A    between atoms: S_9  and  C_12
REMARK                            x       y       z     vdW  Elec       q    Type
REMARK                         _______ _______ _______ _____ _____    ______ ____
ROOT
ATOM      1  C   UNL     1       2.834   5.304  18.828  0.00  0.00    +0.000 A 
ATOM      2  C   UNL     1       2.507   4.636  19.999  0.00  0.00    +0.000 A 
ATOM      3  N   UNL     1       1.930   5.234  21.071  0.00  0.00    +0.000 NA
ATOM      4  C   UNL     1       1.665   6.556  20.970  0.00  0.00    +0.000 A 
ATOM      5  C   UNL     1       1.972   7.323  19.852  0.00  0.00    +0.000 A 
ATOM      6  C   UNL     1       2.632   6.683  18.797  0.00  0.00    +0.000 A 
ENDROOT
BRANCH   1   8
ATOM      7  O   UNL     1       2.571   3.929  16.997  0.00  0.00    +0.000 OA
ATOM      8  C   UNL     1       3.386   4.532  17.694  0.00  0.00    +0.000 C 
ATOM      9  N   UNL     1       4.759   4.518  17.425  0.00  0.00    +0.000 N 
ATOM     10  C   UNL     1       5.811   5.303  18.085  0.00  0.00    +0.000 C 
ATOM     11  C   UNL     1       6.504   6.249  17.115  0.00  0.00    +0.000 C 
ATOM     12  C   UNL     1       7.002   5.515  15.878  0.00  0.00    +0.000 C 
ATOM     13  C   UNL     1       5.879   4.698  15.241  0.00  0.00    +0.000 C 
ATOM     14  C   UNL     1       5.227   3.764  16.260  0.00  0.00    +0.000 C 
ENDBRANCH   1   8
BRANCH   5  15
ATOM     15  C   UNL     1       1.540   8.756  19.750  0.00  0.00    +0.000 C 
BRANCH  15  16
ATOM     16  S   UNL     1       0.493   9.226  21.110  0.00  0.00    +0.000 S 
ATOM     17  O   UNL     1      -0.393   8.113  21.400  0.00  0.00    +0.000 OA
ATOM     18  O   UNL     1       1.372   9.692  22.165  0.00  0.00    +0.000 OA
BRANCH  16  19
ATOM     19  C   UNL     1      -0.537  10.548  20.501  0.00  0.00    +0.000 A 
ATOM     20  C   UNL     1      -1.156  11.419  21.422  0.00  0.00    +0.000 A 
ATOM     21 CL   UNL     1      -1.002  11.318  23.144  0.00  0.00    +0.000 Cl
ATOM     22  C   UNL     1      -2.001  12.446  20.978  0.00  0.00    +0.000 A 
ATOM     23  C   UNL     1      -2.231  12.633  19.623  0.00  0.00    +0.000 A 
ATOM     24  C   UNL     1      -1.609  11.794  18.708  0.00  0.00    +0.000 A 
ATOM     25  C   UNL     1      -0.762  10.754  19.131  0.00  0.00    +0.000 A 
ATOM     26 CL   UNL     1      -0.098   9.820  17.842  0.00  0.00    +0.000 Cl
ENDBRANCH  16  19
ENDBRANCH  15  16
ENDBRANCH   5  15
TORSDOF 4
ENDMDL
