MODEL 1
REMARK VINA RESULT:      -7.4      0.000      0.000
REMARK  Name = 
REMARK  0 active torsions:
REMARK  status: ('A' for Active; 'I' for Inactive)
REMARK                            x       y       z     vdW  Elec       q    Type
REMARK                         _______ _______ _______ _____ _____    ______ ____
ROOT
ATOM      1  C   UNL     1       4.821   6.432  16.711  0.00  0.00    +0.000 A 
ATOM      2  C   UNL     1       3.996   5.904  17.717  0.00  0.00    +0.000 A 
ATOM      3  C   UNL     1       3.878   4.501  17.883  0.00  0.00    +0.000 A 
ATOM      4  C   UNL     1       4.583   3.637  17.027  0.00  0.00    +0.000 A 
ATOM      5  C   UNL     1       5.360   4.189  16.037  0.00  0.00    +0.000 A 
ATOM      6  C   UNL     1       5.474   5.550  15.880  0.00  0.00    +0.000 A 
ATOM      7  O   UNL     1       6.281   5.883  14.837  0.00  0.00    +0.000 OA
ATOM      8  C   UNL     1       6.568   4.578  14.293  0.00  0.00    +0.000 C 
ATOM      9  O   UNL     1       6.079   3.497  15.113  0.00  0.00    +0.000 OA
ATOM     10  C   UNL     1       2.988   3.916  18.954  0.00  0.00    +0.000 C 
ATOM     11  C   UNL     1       1.722   3.276  18.392  0.00  0.00    +0.000 C 
ATOM     12  C   UNL     1       0.860   3.106  19.629  0.00  0.00    +0.000 C 
ATOM     13  C   UNL     1       1.328   4.195  20.590  0.00  0.00    +0.000 C 
ATOM     14  N   UNL     1       2.486   4.866  19.972  0.00  0.00    +0.000 NA
ATOM     15  C   UNL     1       2.096   6.150  19.371  0.00  0.00    +0.000 C 
ATOM     16  C   UNL     1       3.275   6.830  18.665  0.00  0.00    +0.000 C 
ENDROOT
TORSDOF 0
ENDMDL
MODEL 2
REMARK VINA RESULT:      -7.2      1.520      1.717
REMARK  Name = 
REMARK  0 active torsions:
REMARK  status: ('A' for Active; 'I' for Inactive)
REMARK                            x       y       z     vdW  Elec       q    Type
REMARK                         _______ _______ _______ _____ _____    ______ ____
ROOT
ATOM      1  C   UNL     1       6.806   5.488  16.844  0.00  0.00    +0.000 A 
ATOM      2  C   UNL     1       5.756   4.968  17.618  0.00  0.00    +0.000 A 
ATOM      3  C   UNL     1       4.855   4.025  17.061  0.00  0.00    +0.000 A 
ATOM      4  C   UNL     1       5.010   3.619  15.724  0.00  0.00    +0.000 A 
ATOM      5  C   UNL     1       6.032   4.169  14.988  0.00  0.00    +0.000 A 
ATOM      6  C   UNL     1       6.906   5.081  15.531  0.00  0.00    +0.000 A 
ATOM      7  O   UNL     1       7.833   5.506  14.632  0.00  0.00    +0.000 OA
ATOM      8  C   UNL     1       7.373   4.841  13.438  0.00  0.00    +0.000 C 
ATOM      9  O   UNL     1       6.301   3.907  13.681  0.00  0.00    +0.000 OA
ATOM     10  C   UNL     1       3.715   3.463  17.876  0.00  0.00    +0.000 C 
ATOM     11  C   UNL     1       2.354   4.004  17.450  0.00  0.00    +0.000 C 
ATOM     12  C   UNL     1       1.458   3.599  18.605  0.00  0.00    +0.000 C 
ATOM     13  C   UNL     1       2.388   3.509  19.813  0.00  0.00    +0.000 C 
ATOM     14  N   UNL     1       3.764   3.729  19.332  0.00  0.00    +0.000 NA
ATOM     15  C   UNL     1       4.212   5.101  19.618  0.00  0.00    +0.000 C 
ATOM     16  C   UNL     1       5.617   5.367  19.065  0.00  0.00    +0.000 C 
ENDROOT
TORSDOF 0
ENDMDL
MODEL 3
REMARK VINA RESULT:      -7.0      1.788      2.456
REMARK  Name = 
REMARK  0 active torsions:
REMARK  status: ('A' for Active; 'I' for Inactive)
REMARK                            x       y       z     vdW  Elec       q    Type
REMARK                         _______ _______ _______ _____ _____    ______ ____
ROOT
ATOM      1  C   UNL     1       4.413   4.065  16.613  0.00  0.00    +0.000 A 
ATOM      2  C   UNL     1       3.464   3.926  17.638  0.00  0.00    +0.000 A 
ATOM      3  C   UNL     1       3.842   4.100  18.993  0.00  0.00    +0.000 A 
ATOM      4  C   UNL     1       5.179   4.402  19.309  0.00  0.00    +0.000 A 
ATOM      5  C   UNL     1       6.087   4.504  18.282  0.00  0.00    +0.000 A 
ATOM      6  C   UNL     1       5.716   4.337  16.968  0.00  0.00    +0.000 A 
ATOM      7  O   UNL     1       6.766   4.469  16.115  0.00  0.00    +0.000 OA
ATOM      8  C   UNL     1       7.853   4.626  17.050  0.00  0.00    +0.000 C 
ATOM      9  O   UNL     1       7.415   4.760  18.418  0.00  0.00    +0.000 OA
ATOM     10  C   UNL     1       2.837   3.946  20.109  0.00  0.00    +0.000 C 
ATOM     11  C   UNL     1       3.037   2.669  20.920  0.00  0.00    +0.000 C 
ATOM     12  C   UNL     1       1.740   2.563  21.698  0.00  0.00    +0.000 C 
ATOM     13  C   UNL     1       0.705   3.290  20.844  0.00  0.00    +0.000 C 
ATOM     14  N   UNL     1       1.415   3.888  19.698  0.00  0.00    +0.000 NA
ATOM     15  C   UNL     1       1.234   3.078  18.483  0.00  0.00    +0.000 C 
ATOM     16  C   UNL     1       2.021   3.649  17.297  0.00  0.00    +0.000 C 
ENDROOT
TORSDOF 0
ENDMDL
MODEL 4
REMARK VINA RESULT:      -6.9      3.133      4.596
REMARK  Name = 
REMARK  0 active torsions:
REMARK  status: ('A' for Active; 'I' for Inactive)
REMARK                            x       y       z     vdW  Elec       q    Type
REMARK                         _______ _______ _______ _____ _____    ______ ____
ROOT
ATOM      1  C   UNL     1       1.715   7.159  20.447  0.00  0.00    +0.000 A 
ATOM      2  C   UNL     1       2.199   5.882  20.122  0.00  0.00    +0.000 A 
ATOM      3  C   UNL     1       2.762   5.633  18.844  0.00  0.00    +0.000 A 
ATOM      4  C   UNL     1       2.824   6.670  17.897  0.00  0.00    +0.000 A 
ATOM      5  C   UNL     1       2.316   7.900  18.241  0.00  0.00    +0.000 A 
ATOM      6  C   UNL     1       1.774   8.139  19.481  0.00  0.00    +0.000 A 
ATOM      7  O   UNL     1       1.323   9.415  19.610  0.00  0.00    +0.000 OA
ATOM      8  C   UNL     1       1.544   9.914  18.275  0.00  0.00    +0.000 C 
ATOM      9  O   UNL     1       2.274   8.995  17.436  0.00  0.00    +0.000 OA
ATOM     10  C   UNL     1       3.278   4.263  18.474  0.00  0.00    +0.000 C 
ATOM     11  C   UNL     1       2.381   3.538  17.474  0.00  0.00    +0.000 C 
ATOM     12  C   UNL     1       2.888   2.111  17.548  0.00  0.00    +0.000 C 
ATOM     13  C   UNL     1       3.478   1.972  18.949  0.00  0.00    +0.000 C 
ATOM     14  N   UNL     1       3.420   3.299  19.589  0.00  0.00    +0.000 NA
ATOM     15  C   UNL     1       2.290   3.385  20.528  0.00  0.00    +0.000 C 
ATOM     16  C   UNL     1       2.175   4.781  21.152  0.00  0.00    +0.000 C 
ENDROOT
TORSDOF 0
ENDMDL
MODEL 5
REMARK VINA RESULT:      -6.8      1.542      2.770
REMARK  Name = 
REMARK  0 active torsions:
REMARK  status: ('A' for Active; 'I' for Inactive)
REMARK                            x       y       z     vdW  Elec       q    Type
REMARK                         _______ _______ _______ _____ _____    ______ ____
ROOT
ATOM      1  C   UNL     1       5.652   3.984  16.851  0.00  0.00    +0.000 A 
ATOM      2  C   UNL     1       4.390   3.741  17.417  0.00  0.00    +0.000 A 
ATOM      3  C   UNL     1       3.662   4.795  18.024  0.00  0.00    +0.000 A 
ATOM      4  C   UNL     1       4.215   6.087  18.068  0.00  0.00    +0.000 A 
ATOM      5  C   UNL     1       5.463   6.284  17.528  0.00  0.00    +0.000 A 
ATOM      6  C   UNL     1       6.166   5.259  16.937  0.00  0.00    +0.000 A 
ATOM      7  O   UNL     1       7.380   5.664  16.478  0.00  0.00    +0.000 OA
ATOM      8  C   UNL     1       7.402   7.029  16.946  0.00  0.00    +0.000 C 
ATOM      9  O   UNL     1       6.147   7.458  17.514  0.00  0.00    +0.000 OA
ATOM     10  C   UNL     1       2.308   4.549  18.646  0.00  0.00    +0.000 C 
ATOM     11  C   UNL     1       2.336   4.594  20.171  0.00  0.00    +0.000 C 
ATOM     12  C   UNL     1       1.003   3.976  20.545  0.00  0.00    +0.000 C 
ATOM     13  C   UNL     1       0.652   3.055  19.379  0.00  0.00    +0.000 C 
ATOM     14  N   UNL     1       1.680   3.244  18.339  0.00  0.00    +0.000 NA
ATOM     15  C   UNL     1       2.663   2.150  18.361  0.00  0.00    +0.000 C 
ATOM     16  C   UNL     1       3.777   2.366  17.329  0.00  0.00    +0.000 C 
ENDROOT
TORSDOF 0
ENDMDL
MODEL 6
REMARK VINA RESULT:      -6.8      3.318      5.414
REMARK  Name = 
REMARK  0 active torsions:
REMARK  status: ('A' for Active; 'I' for Inactive)
REMARK                            x       y       z     vdW  Elec       q    Type
REMARK                         _______ _______ _______ _____ _____    ______ ____
ROOT
ATOM      1  C   UNL     1       2.043   5.068  19.053  0.00  0.00    +0.000 A 
ATOM      2  C   UNL     1       3.303   5.357  18.505  0.00  0.00    +0.000 A 
ATOM      3  C   UNL     1       4.439   4.594  18.878  0.00  0.00    +0.000 A 
ATOM      4  C   UNL     1       4.301   3.552  19.812  0.00  0.00    +0.000 A 
ATOM      5  C   UNL     1       3.058   3.315  20.349  0.00  0.00    +0.000 A 
ATOM      6  C   UNL     1       1.958   4.055  19.982  0.00  0.00    +0.000 A 
ATOM      7  O   UNL     1       0.832   3.664  20.638  0.00  0.00    +0.000 OA
ATOM      8  C   UNL     1       1.375   2.673  21.535  0.00  0.00    +0.000 C 
ATOM      9  O   UNL     1       2.762   2.370  21.280  0.00  0.00    +0.000 OA
ATOM     10  C   UNL     1       5.803   4.897  18.305  0.00  0.00    +0.000 C 
ATOM     11  C   UNL     1       6.744   5.545  19.317  0.00  0.00    +0.000 C 
ATOM     12  C   UNL     1       7.865   6.068  18.439  0.00  0.00    +0.000 C 
ATOM     13  C   UNL     1       7.221   6.308  17.076  0.00  0.00    +0.000 C 
ATOM     14  N   UNL     1       5.831   5.821  17.149  0.00  0.00    +0.000 NA
ATOM     15  C   UNL     1       4.888   6.937  17.323  0.00  0.00    +0.000 C 
ATOM     16  C   UNL     1       3.443   6.443  17.468  0.00  0.00    +0.000 C 
ENDROOT
TORSDOF 0
ENDMDL
MODEL 7
REMARK VINA RESULT:      -6.7      1.804      2.457
REMARK  Name = 
REMARK  0 active torsions:
REMARK  status: ('A' for Active; 'I' for Inactive)
REMARK                            x       y       z     vdW  Elec       q    Type
REMARK                         _______ _______ _______ _____ _____    ______ ____
ROOT
ATOM      1  C   UNL     1       4.131   5.291  16.778  0.00  0.00    +0.000 A 
ATOM      2  C   UNL     1       3.311   4.784  17.798  0.00  0.00    +0.000 A 
ATOM      3  C   UNL     1       3.766   4.768  19.141  0.00  0.00    +0.000 A 
ATOM      4  C   UNL     1       5.050   5.254  19.447  0.00  0.00    +0.000 A 
ATOM      5  C   UNL     1       5.835   5.717  18.419  0.00  0.00    +0.000 A 
ATOM      6  C   UNL     1       5.390   5.734  17.118  0.00  0.00    +0.000 A 
ATOM      7  O   UNL     1       6.325   6.221  16.259  0.00  0.00    +0.000 OA
ATOM      8  C   UNL     1       7.442   6.403  17.154  0.00  0.00    +0.000 C 
ATOM      9  O   UNL     1       7.104   6.192  18.540  0.00  0.00    +0.000 OA
ATOM     10  C   UNL     1       2.901   4.218  20.250  0.00  0.00    +0.000 C 
ATOM     11  C   UNL     1       3.393   2.874  20.778  0.00  0.00    +0.000 C 
ATOM     12  C   UNL     1       2.205   2.378  21.581  0.00  0.00    +0.000 C 
ATOM     13  C   UNL     1       0.989   3.043  20.940  0.00  0.00    +0.000 C 
ATOM     14  N   UNL     1       1.483   3.969  19.905  0.00  0.00    +0.000 NA
ATOM     15  C   UNL     1       1.347   3.383  18.562  0.00  0.00    +0.000 C 
ATOM     16  C   UNL     1       1.917   4.306  17.479  0.00  0.00    +0.000 C 
ENDROOT
TORSDOF 0
ENDMDL
MODEL 8
REMARK VINA RESULT:      -6.7      2.930      5.198
REMARK  Name = 
REMARK  0 active torsions:
REMARK  status: ('A' for Active; 'I' for Inactive)
REMARK                            x       y       z     vdW  Elec       q    Type
REMARK                         _______ _______ _______ _____ _____    ______ ____
ROOT
ATOM      1  C   UNL     1       2.336   5.684  19.223  0.00  0.00    +0.000 A 
ATOM      2  C   UNL     1       3.264   5.686  18.170  0.00  0.00    +0.000 A 
ATOM      3  C   UNL     1       3.774   4.464  17.662  0.00  0.00    +0.000 A 
ATOM      4  C   UNL     1       3.354   3.247  18.226  0.00  0.00    +0.000 A 
ATOM      5  C   UNL     1       2.465   3.284  19.274  0.00  0.00    +0.000 A 
ATOM      6  C   UNL     1       1.971   4.470  19.763  0.00  0.00    +0.000 A 
ATOM      7  O   UNL     1       1.116   4.283  20.804  0.00  0.00    +0.000 OA
ATOM      8  C   UNL     1       1.218   2.856  20.981  0.00  0.00    +0.000 C 
ATOM      9  O   UNL     1       1.984   2.204  19.947  0.00  0.00    +0.000 OA
ATOM     10  C   UNL     1       4.780   4.448  16.536  0.00  0.00    +0.000 C 
ATOM     11  C   UNL     1       6.183   4.062  16.995  0.00  0.00    +0.000 C 
ATOM     12  C   UNL     1       7.042   4.465  15.812  0.00  0.00    +0.000 C 
ATOM     13  C   UNL     1       6.271   5.592  15.129  0.00  0.00    +0.000 C 
ATOM     14  N   UNL     1       4.978   5.731  15.823  0.00  0.00    +0.000 NA
ATOM     15  C   UNL     1       4.995   6.870  16.753  0.00  0.00    +0.000 C 
ATOM     16  C   UNL     1       3.680   6.988  17.533  0.00  0.00    +0.000 C 
ENDROOT
TORSDOF 0
ENDMDL
MODEL 9
REMARK VINA RESULT:      -6.7      2.985      5.374
REMARK  Name = 
REMARK  0 active torsions:
REMARK  status: ('A' for Active; 'I' for Inactive)
REMARK                            x       y       z     vdW  Elec       q    Type
REMARK                         _______ _______ _______ _____ _____    ______ ____
ROOT
ATOM      1  C   UNL     1       4.250   3.928  19.497  0.00  0.00    +0.000 A 
ATOM      2  C   UNL     1       4.992   4.306  18.366  0.00  0.00    +0.000 A 
ATOM      3  C   UNL     1       4.391   4.300  17.081  0.00  0.00    +0.000 A 
ATOM      4  C   UNL     1       3.050   3.903  16.942  0.00  0.00    +0.000 A 
ATOM      5  C   UNL     1       2.362   3.514  18.067  0.00  0.00    +0.000 A 
ATOM      6  C   UNL     1       2.947   3.523  19.312  0.00  0.00    +0.000 A 
ATOM      7  O   UNL     1       2.098   3.093  20.284  0.00  0.00    +0.000 OA
ATOM      8  C   UNL     1       0.955   2.710  19.491  0.00  0.00    +0.000 C 
ATOM      9  O   UNL     1       1.075   3.077  18.101  0.00  0.00    +0.000 OA
ATOM     10  C   UNL     1       5.176   4.694  15.853  0.00  0.00    +0.000 C 
ATOM     11  C   UNL     1       5.517   3.507  14.957  0.00  0.00    +0.000 C 
ATOM     12  C   UNL     1       6.575   4.080  14.035  0.00  0.00    +0.000 C 
ATOM     13  C   UNL     1       7.228   5.205  14.833  0.00  0.00    +0.000 C 
ATOM     14  N   UNL     1       6.485   5.342  16.099  0.00  0.00    +0.000 NA
ATOM     15  C   UNL     1       7.207   4.702  17.209  0.00  0.00    +0.000 C 
ATOM     16  C   UNL     1       6.416   4.776  18.520  0.00  0.00    +0.000 C 
ENDROOT
TORSDOF 0
ENDMDL
