MODEL 1
REMARK VINA RESULT:      -7.2      0.000      0.000
REMARK  Name = 
REMARK  1 active torsions:
REMARK  status: ('A' for Active; 'I' for Inactive)
REMARK    1  A    between atoms: C_4  and  C_5
REMARK                            x       y       z     vdW  Elec       q    Type
REMARK                         _______ _______ _______ _____ _____    ______ ____
ROOT
ATOM      1  C   UNL     1       4.355   4.201  17.917  0.00  0.00    +0.000 C 
ATOM      2  N   UNL     1       4.357   4.232  16.608  0.00  0.00    +0.000 NA
ATOM      3  N   UNL     1       5.502   4.670  16.009  0.00  0.00    +0.000 N 
ATOM      4  C   UNL     1       5.806   4.558  14.679  0.00  0.00    +0.000 A 
ATOM      5  N   UNL     1       6.963   5.128  14.420  0.00  0.00    +0.000 NA
ATOM      6  N   UNL     1       7.439   5.657  15.603  0.00  0.00    +0.000 NA
ATOM      7  C   UNL     1       6.560   5.373  16.530  0.00  0.00    +0.000 A 
ATOM      8  S   UNL     1       6.590   5.806  18.193  0.00  0.00    +0.000 S 
ATOM      9  C   UNL     1       5.574   4.441  18.800  0.00  0.00    +0.000 C 
ENDROOT
BRANCH   1  13
ATOM     10  C   UNL     1       0.703   3.148  19.933  0.00  0.00    +0.000 A 
ATOM     11  C   UNL     1       1.023   2.529  18.726  0.00  0.00    +0.000 A 
ATOM     12  C   UNL     1       2.203   2.865  18.055  0.00  0.00    +0.000 A 
ATOM     13  C   UNL     1       3.074   3.817  18.599  0.00  0.00    +0.000 A 
ATOM     14  C   UNL     1       2.740   4.439  19.811  0.00  0.00    +0.000 A 
ATOM     15  C   UNL     1       1.559   4.104  20.474  0.00  0.00    +0.000 A 
ENDBRANCH   1  13
TORSDOF 1
ENDMDL
MODEL 2
REMARK VINA RESULT:      -7.2      0.104      1.250
REMARK  Name = 
REMARK  1 active torsions:
REMARK  status: ('A' for Active; 'I' for Inactive)
REMARK    1  A    between atoms: C_4  and  C_5
REMARK                            x       y       z     vdW  Elec       q    Type
REMARK                         _______ _______ _______ _____ _____    ______ ____
ROOT
ATOM      1  C   UNL     1       4.413   4.279  17.959  0.00  0.00    +0.000 C 
ATOM      2  N   UNL     1       4.383   4.298  16.651  0.00  0.00    +0.000 NA
ATOM      3  N   UNL     1       5.518   4.716  16.018  0.00  0.00    +0.000 N 
ATOM      4  C   UNL     1       5.787   4.587  14.683  0.00  0.00    +0.000 A 
ATOM      5  N   UNL     1       6.944   5.140  14.389  0.00  0.00    +0.000 NA
ATOM      6  N   UNL     1       7.456   5.674  15.554  0.00  0.00    +0.000 NA
ATOM      7  C   UNL     1       6.597   5.410  16.506  0.00  0.00    +0.000 A 
ATOM      8  S   UNL     1       6.674   5.859  18.163  0.00  0.00    +0.000 S 
ATOM      9  C   UNL     1       5.657   4.512  18.809  0.00  0.00    +0.000 C 
ENDROOT
BRANCH   1  13
ATOM     10  C   UNL     1       0.756   3.202  19.952  0.00  0.00    +0.000 A 
ATOM     11  C   UNL     1       1.633   4.095  20.564  0.00  0.00    +0.000 A 
ATOM     12  C   UNL     1       2.828   4.451  19.932  0.00  0.00    +0.000 A 
ATOM     13  C   UNL     1       3.145   3.918  18.677  0.00  0.00    +0.000 A 
ATOM     14  C   UNL     1       2.259   3.015  18.071  0.00  0.00    +0.000 A 
ATOM     15  C   UNL     1       1.070   2.659  18.708  0.00  0.00    +0.000 A 
ENDBRANCH   1  13
TORSDOF 1
ENDMDL
MODEL 3
REMARK VINA RESULT:      -7.1      1.482      1.928
REMARK  Name = 
REMARK  1 active torsions:
REMARK  status: ('A' for Active; 'I' for Inactive)
REMARK    1  A    between atoms: C_4  and  C_5
REMARK                            x       y       z     vdW  Elec       q    Type
REMARK                         _______ _______ _______ _____ _____    ______ ____
ROOT
ATOM      1  C   UNL     1       4.114   4.756  17.874  0.00  0.00    +0.000 C 
ATOM      2  N   UNL     1       4.916   5.700  18.295  0.00  0.00    +0.000 NA
ATOM      3  N   UNL     1       5.954   6.032  17.473  0.00  0.00    +0.000 N 
ATOM      4  C   UNL     1       6.757   7.133  17.598  0.00  0.00    +0.000 A 
ATOM      5  N   UNL     1       7.695   7.128  16.675  0.00  0.00    +0.000 NA
ATOM      6  N   UNL     1       7.531   5.982  15.924  0.00  0.00    +0.000 NA
ATOM      7  C   UNL     1       6.494   5.349  16.413  0.00  0.00    +0.000 A 
ATOM      8  S   UNL     1       5.836   3.842  15.912  0.00  0.00    +0.000 S 
ATOM      9  C   UNL     1       4.146   4.135  16.482  0.00  0.00    +0.000 C 
ENDROOT
BRANCH   1  13
ATOM     10  C   UNL     1       1.025   3.510  20.598  0.00  0.00    +0.000 A 
ATOM     11  C   UNL     1       1.028   3.020  19.294  0.00  0.00    +0.000 A 
ATOM     12  C   UNL     1       2.021   3.420  18.395  0.00  0.00    +0.000 A 
ATOM     13  C   UNL     1       3.024   4.307  18.804  0.00  0.00    +0.000 A 
ATOM     14  C   UNL     1       3.010   4.800  20.117  0.00  0.00    +0.000 A 
ATOM     15  C   UNL     1       2.014   4.401  21.009  0.00  0.00    +0.000 A 
ENDBRANCH   1  13
TORSDOF 1
ENDMDL
MODEL 4
REMARK VINA RESULT:      -7.1      1.469      2.286
REMARK  Name = 
REMARK  1 active torsions:
REMARK  status: ('A' for Active; 'I' for Inactive)
REMARK    1  A    between atoms: C_4  and  C_5
REMARK                            x       y       z     vdW  Elec       q    Type
REMARK                         _______ _______ _______ _____ _____    ______ ____
ROOT
ATOM      1  C   UNL     1       4.053   4.802  17.788  0.00  0.00    +0.000 C 
ATOM      2  N   UNL     1       4.838   5.752  18.227  0.00  0.00    +0.000 NA
ATOM      3  N   UNL     1       5.909   6.072  17.442  0.00  0.00    +0.000 N 
ATOM      4  C   UNL     1       6.706   7.175  17.582  0.00  0.00    +0.000 A 
ATOM      5  N   UNL     1       7.680   7.158  16.697  0.00  0.00    +0.000 NA
ATOM      6  N   UNL     1       7.546   6.001  15.957  0.00  0.00    +0.000 NA
ATOM      7  C   UNL     1       6.490   5.374  16.413  0.00  0.00    +0.000 A 
ATOM      8  S   UNL     1       5.851   3.860  15.909  0.00  0.00    +0.000 S 
ATOM      9  C   UNL     1       4.141   4.161  16.407  0.00  0.00    +0.000 C 
ENDROOT
BRANCH   1  13
ATOM     10  C   UNL     1       0.802   3.504  20.289  0.00  0.00    +0.000 A 
ATOM     11  C   UNL     1       1.631   4.536  20.723  0.00  0.00    +0.000 A 
ATOM     12  C   UNL     1       2.696   4.965  19.925  0.00  0.00    +0.000 A 
ATOM     13  C   UNL     1       2.928   4.366  18.680  0.00  0.00    +0.000 A 
ATOM     14  C   UNL     1       2.091   3.324  18.255  0.00  0.00    +0.000 A 
ATOM     15  C   UNL     1       1.033   2.896  19.057  0.00  0.00    +0.000 A 
ENDBRANCH   1  13
TORSDOF 1
ENDMDL
MODEL 5
REMARK VINA RESULT:      -7.0      1.257      1.280
REMARK  Name = 
REMARK  1 active torsions:
REMARK  status: ('A' for Active; 'I' for Inactive)
REMARK    1  A    between atoms: C_4  and  C_5
REMARK                            x       y       z     vdW  Elec       q    Type
REMARK                         _______ _______ _______ _____ _____    ______ ____
ROOT
ATOM      1  C   UNL     1       5.011   4.505  18.432  0.00  0.00    +0.000 C 
ATOM      2  N   UNL     1       4.824   4.127  17.193  0.00  0.00    +0.000 NA
ATOM      3  N   UNL     1       5.791   4.478  16.295  0.00  0.00    +0.000 N 
ATOM      4  C   UNL     1       5.920   3.991  15.023  0.00  0.00    +0.000 A 
ATOM      5  N   UNL     1       6.924   4.574  14.404  0.00  0.00    +0.000 NA
ATOM      6  N   UNL     1       7.471   5.494  15.277  0.00  0.00    +0.000 NA
ATOM      7  C   UNL     1       6.786   5.419  16.390  0.00  0.00    +0.000 A 
ATOM      8  S   UNL     1       6.979   6.349  17.822  0.00  0.00    +0.000 S 
ATOM      9  C   UNL     1       6.288   5.139  18.972  0.00  0.00    +0.000 C 
ENDROOT
BRANCH   1  13
ATOM     10  C   UNL     1       1.850   3.755  21.253  0.00  0.00    +0.000 A 
ATOM     11  C   UNL     1       2.708   2.718  20.893  0.00  0.00    +0.000 A 
ATOM     12  C   UNL     1       3.737   2.944  19.973  0.00  0.00    +0.000 A 
ATOM     13  C   UNL     1       3.915   4.217  19.416  0.00  0.00    +0.000 A 
ATOM     14  C   UNL     1       3.041   5.252  19.780  0.00  0.00    +0.000 A 
ATOM     15  C   UNL     1       2.014   5.020  20.695  0.00  0.00    +0.000 A 
ENDBRANCH   1  13
TORSDOF 1
ENDMDL
MODEL 6
REMARK VINA RESULT:      -7.0      1.697      2.181
REMARK  Name = 
REMARK  1 active torsions:
REMARK  status: ('A' for Active; 'I' for Inactive)
REMARK    1  A    between atoms: C_4  and  C_5
REMARK                            x       y       z     vdW  Elec       q    Type
REMARK                         _______ _______ _______ _____ _____    ______ ____
ROOT
ATOM      1  C   UNL     1       4.239   4.607  18.235  0.00  0.00    +0.000 C 
ATOM      2  N   UNL     1       5.121   5.504  18.597  0.00  0.00    +0.000 NA
ATOM      3  N   UNL     1       6.035   5.878  17.656  0.00  0.00    +0.000 N 
ATOM      4  C   UNL     1       6.878   6.953  17.738  0.00  0.00    +0.000 A 
ATOM      5  N   UNL     1       7.669   7.001  16.687  0.00  0.00    +0.000 NA
ATOM      6  N   UNL     1       7.364   5.917  15.889  0.00  0.00    +0.000 NA
ATOM      7  C   UNL     1       6.394   5.267  16.480  0.00  0.00    +0.000 A 
ATOM      8  S   UNL     1       5.627   3.813  15.978  0.00  0.00    +0.000 S 
ATOM      9  C   UNL     1       4.049   4.091  16.812  0.00  0.00    +0.000 C 
ENDROOT
BRANCH   1  13
ATOM     10  C   UNL     1       1.458   3.237  21.219  0.00  0.00    +0.000 A 
ATOM     11  C   UNL     1       2.703   2.622  21.107  0.00  0.00    +0.000 A 
ATOM     12  C   UNL     1       3.616   3.051  20.139  0.00  0.00    +0.000 A 
ATOM     13  C   UNL     1       3.287   4.108  19.282  0.00  0.00    +0.000 A 
ATOM     14  C   UNL     1       2.029   4.718  19.398  0.00  0.00    +0.000 A 
ATOM     15  C   UNL     1       1.120   4.283  20.363  0.00  0.00    +0.000 A 
ENDBRANCH   1  13
TORSDOF 1
ENDMDL
MODEL 7
REMARK VINA RESULT:      -6.8      1.010      1.604
REMARK  Name = 
REMARK  1 active torsions:
REMARK  status: ('A' for Active; 'I' for Inactive)
REMARK    1  A    between atoms: C_4  and  C_5
REMARK                            x       y       z     vdW  Elec       q    Type
REMARK                         _______ _______ _______ _____ _____    ______ ____
ROOT
ATOM      1  C   UNL     1       3.865   4.595  17.788  0.00  0.00    +0.000 C 
ATOM      2  N   UNL     1       4.280   3.832  16.809  0.00  0.00    +0.000 NA
ATOM      3  N   UNL     1       5.245   4.352  15.995  0.00  0.00    +0.000 N 
ATOM      4  C   UNL     1       5.983   3.655  15.077  0.00  0.00    +0.000 A 
ATOM      5  N   UNL     1       6.788   4.464  14.422  0.00  0.00    +0.000 NA
ATOM      6  N   UNL     1       6.569   5.741  14.896  0.00  0.00    +0.000 NA
ATOM      7  C   UNL     1       5.653   5.652  15.828  0.00  0.00    +0.000 A 
ATOM      8  S   UNL     1       4.945   6.919  16.749  0.00  0.00    +0.000 S 
ATOM      9  C   UNL     1       4.493   5.925  18.188  0.00  0.00    +0.000 C 
ENDROOT
BRANCH   1  13
ATOM     10  C   UNL     1       0.610   3.075  20.156  0.00  0.00    +0.000 A 
ATOM     11  C   UNL     1       1.368   4.141  20.636  0.00  0.00    +0.000 A 
ATOM     12  C   UNL     1       2.432   4.643  19.881  0.00  0.00    +0.000 A 
ATOM     13  C   UNL     1       2.736   4.082  18.635  0.00  0.00    +0.000 A 
ATOM     14  C   UNL     1       1.971   3.005  18.163  0.00  0.00    +0.000 A 
ATOM     15  C   UNL     1       0.913   2.505  18.922  0.00  0.00    +0.000 A 
ENDBRANCH   1  13
TORSDOF 1
ENDMDL
MODEL 8
REMARK VINA RESULT:      -6.7      3.149      6.069
REMARK  Name = 
REMARK  1 active torsions:
REMARK  status: ('A' for Active; 'I' for Inactive)
REMARK    1  A    between atoms: C_4  and  C_5
REMARK                            x       y       z     vdW  Elec       q    Type
REMARK                         _______ _______ _______ _____ _____    ______ ____
ROOT
ATOM      1  C   UNL     1       6.484   4.461  15.815  0.00  0.00    +0.000 C 
ATOM      2  N   UNL     1       7.422   4.981  16.564  0.00  0.00    +0.000 NA
ATOM      3  N   UNL     1       7.154   5.080  17.899  0.00  0.00    +0.000 N 
ATOM      4  C   UNL     1       8.063   5.362  18.882  0.00  0.00    +0.000 A 
ATOM      5  N   UNL     1       7.469   5.436  20.054  0.00  0.00    +0.000 NA
ATOM      6  N   UNL     1       6.121   5.220  19.849  0.00  0.00    +0.000 NA
ATOM      7  C   UNL     1       5.957   5.010  18.567  0.00  0.00    +0.000 A 
ATOM      8  S   UNL     1       4.493   4.724  17.715  0.00  0.00    +0.000 S 
ATOM      9  C   UNL     1       5.211   3.804  16.335  0.00  0.00    +0.000 C 
ENDROOT
BRANCH   1  13
ATOM     10  C   UNL     1       7.106   4.318  11.559  0.00  0.00    +0.000 A 
ATOM     11  C   UNL     1       7.822   5.234  12.327  0.00  0.00    +0.000 A 
ATOM     12  C   UNL     1       7.627   5.298  13.710  0.00  0.00    +0.000 A 
ATOM     13  C   UNL     1       6.718   4.433  14.332  0.00  0.00    +0.000 A 
ATOM     14  C   UNL     1       5.997   3.518  13.550  0.00  0.00    +0.000 A 
ATOM     15  C   UNL     1       6.192   3.462  12.170  0.00  0.00    +0.000 A 
ENDBRANCH   1  13
TORSDOF 1
ENDMDL
MODEL 9
REMARK VINA RESULT:      -6.7      1.209      1.332
REMARK  Name = 
REMARK  1 active torsions:
REMARK  status: ('A' for Active; 'I' for Inactive)
REMARK    1  A    between atoms: C_4  and  C_5
REMARK                            x       y       z     vdW  Elec       q    Type
REMARK                         _______ _______ _______ _____ _____    ______ ____
ROOT
ATOM      1  C   UNL     1       4.144   4.426  18.266  0.00  0.00    +0.000 C 
ATOM      2  N   UNL     1       4.404   3.691  17.216  0.00  0.00    +0.000 NA
ATOM      3  N   UNL     1       5.271   4.216  16.301  0.00  0.00    +0.000 N 
ATOM      4  C   UNL     1       5.860   3.535  15.271  0.00  0.00    +0.000 A 
ATOM      5  N   UNL     1       6.599   4.346  14.544  0.00  0.00    +0.000 NA
ATOM      6  N   UNL     1       6.485   5.609  15.087  0.00  0.00    +0.000 NA
ATOM      7  C   UNL     1       5.695   5.509  16.127  0.00  0.00    +0.000 A 
ATOM      8  S   UNL     1       5.154   6.758  17.176  0.00  0.00    +0.000 S 
ATOM      9  C   UNL     1       4.861   5.723  18.627  0.00  0.00    +0.000 C 
ENDROOT
BRANCH   1  13
ATOM     10  C   UNL     1       1.263   2.910  21.080  0.00  0.00    +0.000 A 
ATOM     11  C   UNL     1       0.835   3.714  20.026  0.00  0.00    +0.000 A 
ATOM     12  C   UNL     1       1.759   4.219  19.106  0.00  0.00    +0.000 A 
ATOM     13  C   UNL     1       3.119   3.912  19.235  0.00  0.00    +0.000 A 
ATOM     14  C   UNL     1       3.542   3.108  20.304  0.00  0.00    +0.000 A 
ATOM     15  C   UNL     1       2.616   2.610  21.221  0.00  0.00    +0.000 A 
ENDBRANCH   1  13
TORSDOF 1
ENDMDL
