MODEL 1
REMARK VINA RESULT:      -8.0      0.000      0.000
REMARK  Name = 
REMARK  4 active torsions:
REMARK  status: ('A' for Active; 'I' for Inactive)
REMARK    1  A    between atoms: C_4  and  N_5
REMARK    2  A    between atoms: C_7  and  C_8
REMARK    3  A    between atoms: C_8  and  S_9
REMARK    4  A    between atoms: S_9  and  C_10
REMARK                            x       y       z     vdW  Elec       q    Type
REMARK                         _______ _______ _______ _____ _____    ______ ____
ROOT
ATOM      1  N   UNL     1       8.373   8.885  18.274  0.00  0.00    +0.000 N 
ATOM      2  C   UNL     1       8.507   7.655  18.879  0.00  0.00    +0.000 A 
ATOM      3  C   UNL     1       7.767   6.786  18.106  0.00  0.00    +0.000 A 
ATOM      4  N   UNL     1       7.189   7.493  17.087  0.00  0.00    +0.000 NA
ATOM      5  N   UNL     1       7.569   8.759  17.190  0.00  0.00    +0.000 NA
ENDROOT
BRANCH   1   9
ATOM      6  C   UNL     1      10.054  12.585  19.428  0.00  0.00    +0.000 A 
ATOM      7  C   UNL     1       9.449  12.458  18.178  0.00  0.00    +0.000 A 
ATOM      8  C   UNL     1       8.888  11.238  17.791  0.00  0.00    +0.000 A 
ATOM      9  C   UNL     1       8.934  10.134  18.653  0.00  0.00    +0.000 A 
ATOM     10  C   UNL     1       9.544  10.270  19.911  0.00  0.00    +0.000 A 
ATOM     11  C   UNL     1      10.101  11.493  20.292  0.00  0.00    +0.000 A 
ENDBRANCH   1   9
BRANCH   3  12
ATOM     12  C   UNL     1       7.527   5.326  18.276  0.00  0.00    +0.000 C 
BRANCH  12  13
ATOM     13  S   UNL     1       6.463   4.672  16.955  0.00  0.00    +0.000 S 
BRANCH  13  14
ATOM     14  C   UNL     1       5.019   4.270  17.859  0.00  0.00    +0.000 A 
ATOM     15  N   UNL     1       4.196   3.320  17.482  0.00  0.00    +0.000 NA
ATOM     16  C   UNL     1       3.084   3.313  18.311  0.00  0.00    +0.000 A 
ATOM     17  C   UNL     1       1.959   2.472  18.182  0.00  0.00    +0.000 A 
ATOM     18  C   UNL     1       0.870   2.624  19.047  0.00  0.00    +0.000 A 
ATOM     19  C   UNL     1       0.900   3.585  20.055  0.00  0.00    +0.000 A 
ATOM     20  C   UNL     1       2.017   4.406  20.229  0.00  0.00    +0.000 A 
ATOM     21  C   UNL     1       3.095   4.259  19.340  0.00  0.00    +0.000 A 
ATOM     22  S   UNL     1       4.575   5.134  19.271  0.00  0.00    +0.000 S 
ENDBRANCH  13  14
ENDBRANCH  12  13
ENDBRANCH   3  12
TORSDOF 4
ENDMDL
MODEL 2
REMARK VINA RESULT:      -7.8      4.248      6.766
REMARK  Name = 
REMARK  4 active torsions:
REMARK  status: ('A' for Active; 'I' for Inactive)
REMARK    1  A    between atoms: C_4  and  N_5
REMARK    2  A    between atoms: C_7  and  C_8
REMARK    3  A    between atoms: C_8  and  S_9
REMARK    4  A    between atoms: S_9  and  C_10
REMARK                            x       y       z     vdW  Elec       q    Type
REMARK                         _______ _______ _______ _____ _____    ______ ____
ROOT
ATOM      1  N   UNL     1       6.458   4.141  14.211  0.00  0.00    +0.000 N 
ATOM      2  C   UNL     1       6.544   3.648  15.495  0.00  0.00    +0.000 A 
ATOM      3  C   UNL     1       7.238   4.605  16.206  0.00  0.00    +0.000 A 
ATOM      4  N   UNL     1       7.576   5.621  15.355  0.00  0.00    +0.000 NA
ATOM      5  N   UNL     1       7.092   5.337  14.154  0.00  0.00    +0.000 NA
ENDROOT
BRANCH   1   9
ATOM      6  C   UNL     1       4.602   2.442  10.817  0.00  0.00    +0.000 A 
ATOM      7  C   UNL     1       5.829   1.947  11.257  0.00  0.00    +0.000 A 
ATOM      8  C   UNL     1       6.448   2.502  12.381  0.00  0.00    +0.000 A 
ATOM      9  C   UNL     1       5.841   3.561  13.070  0.00  0.00    +0.000 A 
ATOM     10  C   UNL     1       4.604   4.054  12.622  0.00  0.00    +0.000 A 
ATOM     11  C   UNL     1       3.992   3.493  11.499  0.00  0.00    +0.000 A 
ENDBRANCH   1   9
BRANCH   3  12
ATOM     12  C   UNL     1       7.646   4.619  17.638  0.00  0.00    +0.000 C 
BRANCH  12  13
ATOM     13  S   UNL     1       6.726   5.874  18.577  0.00  0.00    +0.000 S 
BRANCH  13  14
ATOM     14  C   UNL     1       5.158   5.108  18.708  0.00  0.00    +0.000 A 
ATOM     15  N   UNL     1       4.983   3.970  19.336  0.00  0.00    +0.000 NA
ATOM     16  C   UNL     1       3.673   3.544  19.169  0.00  0.00    +0.000 A 
ATOM     17  C   UNL     1       3.126   2.336  19.651  0.00  0.00    +0.000 A 
ATOM     18  C   UNL     1       1.804   1.997  19.344  0.00  0.00    +0.000 A 
ATOM     19  C   UNL     1       1.013   2.857  18.588  0.00  0.00    +0.000 A 
ATOM     20  C   UNL     1       1.518   4.077  18.131  0.00  0.00    +0.000 A 
ATOM     21  C   UNL     1       2.854   4.397  18.426  0.00  0.00    +0.000 A 
ATOM     22  S   UNL     1       3.764   5.787  17.978  0.00  0.00    +0.000 S 
ENDBRANCH  13  14
ENDBRANCH  12  13
ENDBRANCH   3  12
TORSDOF 4
ENDMDL
MODEL 3
REMARK VINA RESULT:      -7.8      0.932      1.074
REMARK  Name = 
REMARK  4 active torsions:
REMARK  status: ('A' for Active; 'I' for Inactive)
REMARK    1  A    between atoms: C_4  and  N_5
REMARK    2  A    between atoms: C_7  and  C_8
REMARK    3  A    between atoms: C_8  and  S_9
REMARK    4  A    between atoms: S_9  and  C_10
REMARK                            x       y       z     vdW  Elec       q    Type
REMARK                         _______ _______ _______ _____ _____    ______ ____
ROOT
ATOM      1  N   UNL     1       8.396   8.934  18.367  0.00  0.00    +0.000 N 
ATOM      2  C   UNL     1       8.552   7.705  18.969  0.00  0.00    +0.000 A 
ATOM      3  C   UNL     1       7.819   6.827  18.199  0.00  0.00    +0.000 A 
ATOM      4  N   UNL     1       7.224   7.527  17.184  0.00  0.00    +0.000 NA
ATOM      5  N   UNL     1       7.587   8.798  17.288  0.00  0.00    +0.000 NA
ENDROOT
BRANCH   1   9
ATOM      6  C   UNL     1      10.029  12.657  19.518  0.00  0.00    +0.000 A 
ATOM      7  C   UNL     1       9.496  12.499  18.239  0.00  0.00    +0.000 A 
ATOM      8  C   UNL     1       8.951  11.271  17.852  0.00  0.00    +0.000 A 
ATOM      9  C   UNL     1       8.941  10.191  18.744  0.00  0.00    +0.000 A 
ATOM     10  C   UNL     1       9.478  10.357  20.032  0.00  0.00    +0.000 A 
ATOM     11  C   UNL     1      10.020  11.587  20.411  0.00  0.00    +0.000 A 
ENDBRANCH   1   9
BRANCH   3  12
ATOM     12  C   UNL     1       7.601   5.363  18.367  0.00  0.00    +0.000 C 
BRANCH  12  13
ATOM     13  S   UNL     1       6.373   4.736  17.183  0.00  0.00    +0.000 S 
BRANCH  13  14
ATOM     14  C   UNL     1       4.996   4.484  18.232  0.00  0.00    +0.000 A 
ATOM     15  N   UNL     1       5.000   3.590  19.193  0.00  0.00    +0.000 NA
ATOM     16  C   UNL     1       3.740   3.524  19.771  0.00  0.00    +0.000 A 
ATOM     17  C   UNL     1       3.344   2.641  20.797  0.00  0.00    +0.000 A 
ATOM     18  C   UNL     1       2.016   2.632  21.236  0.00  0.00    +0.000 A 
ATOM     19  C   UNL     1       1.086   3.510  20.686  0.00  0.00    +0.000 A 
ATOM     20  C   UNL     1       1.460   4.422  19.696  0.00  0.00    +0.000 A 
ATOM     21  C   UNL     1       2.792   4.406  19.246  0.00  0.00    +0.000 A 
ATOM     22  S   UNL     1       3.541   5.365  18.030  0.00  0.00    +0.000 S 
ENDBRANCH  13  14
ENDBRANCH  12  13
ENDBRANCH   3  12
TORSDOF 4
ENDMDL
MODEL 4
REMARK VINA RESULT:      -7.8      4.841      6.493
REMARK  Name = 
REMARK  4 active torsions:
REMARK  status: ('A' for Active; 'I' for Inactive)
REMARK    1  A    between atoms: C_4  and  N_5
REMARK    2  A    between atoms: C_7  and  C_8
REMARK    3  A    between atoms: C_8  and  S_9
REMARK    4  A    between atoms: S_9  and  C_10
REMARK                            x       y       z     vdW  Elec       q    Type
REMARK                         _______ _______ _______ _____ _____    ______ ____
ROOT
ATOM      1  N   UNL     1       6.717   4.500  16.001  0.00  0.00    +0.000 N 
ATOM      2  C   UNL     1       5.588   4.591  16.785  0.00  0.00    +0.000 A 
ATOM      3  C   UNL     1       6.049   4.633  18.084  0.00  0.00    +0.000 A 
ATOM      4  N   UNL     1       7.415   4.541  18.065  0.00  0.00    +0.000 NA
ATOM      5  N   UNL     1       7.809   4.471  16.801  0.00  0.00    +0.000 NA
ENDROOT
BRANCH   1   9
ATOM      6  C   UNL     1       6.993   4.277  11.791  0.00  0.00    +0.000 A 
ATOM      7  C   UNL     1       7.803   5.168  12.493  0.00  0.00    +0.000 A 
ATOM      8  C   UNL     1       7.719   5.246  13.885  0.00  0.00    +0.000 A 
ATOM      9  C   UNL     1       6.819   4.431  14.585  0.00  0.00    +0.000 A 
ATOM     10  C   UNL     1       6.007   3.534  13.872  0.00  0.00    +0.000 A 
ATOM     11  C   UNL     1       6.097   3.461  12.480  0.00  0.00    +0.000 A 
ENDBRANCH   1   9
BRANCH   3  12
ATOM     12  C   UNL     1       5.292   4.716  19.364  0.00  0.00    +0.000 C 
BRANCH  12  13
ATOM     13  S   UNL     1       3.518   4.416  19.105  0.00  0.00    +0.000 S 
BRANCH  13  14
ATOM     14  C   UNL     1       2.884   6.043  19.225  0.00  0.00    +0.000 A 
ATOM     15  N   UNL     1       2.278   6.482  20.303  0.00  0.00    +0.000 NA
ATOM     16  C   UNL     1       1.772   7.752  20.066  0.00  0.00    +0.000 A 
ATOM     17  C   UNL     1       1.010   8.523  20.969  0.00  0.00    +0.000 A 
ATOM     18  C   UNL     1       0.499   9.763  20.570  0.00  0.00    +0.000 A 
ATOM     19  C   UNL     1       0.760  10.255  19.295  0.00  0.00    +0.000 A 
ATOM     20  C   UNL     1       1.544   9.530  18.394  0.00  0.00    +0.000 A 
ATOM     21  C   UNL     1       2.034   8.276  18.797  0.00  0.00    +0.000 A 
ATOM     22  S   UNL     1       2.982   7.143  17.915  0.00  0.00    +0.000 S 
ENDBRANCH  13  14
ENDBRANCH  12  13
ENDBRANCH   3  12
TORSDOF 4
ENDMDL
MODEL 5
REMARK VINA RESULT:      -7.8      4.760      6.398
REMARK  Name = 
REMARK  4 active torsions:
REMARK  status: ('A' for Active; 'I' for Inactive)
REMARK    1  A    between atoms: C_4  and  N_5
REMARK    2  A    between atoms: C_7  and  C_8
REMARK    3  A    between atoms: C_8  and  S_9
REMARK    4  A    between atoms: S_9  and  C_10
REMARK                            x       y       z     vdW  Elec       q    Type
REMARK                         _______ _______ _______ _____ _____    ______ ____
ROOT
ATOM      1  N   UNL     1       6.737   4.492  15.928  0.00  0.00    +0.000 N 
ATOM      2  C   UNL     1       5.622   4.528  16.736  0.00  0.00    +0.000 A 
ATOM      3  C   UNL     1       6.108   4.584  18.025  0.00  0.00    +0.000 A 
ATOM      4  N   UNL     1       7.475   4.555  17.978  0.00  0.00    +0.000 NA
ATOM      5  N   UNL     1       7.846   4.510  16.706  0.00  0.00    +0.000 NA
ENDROOT
BRANCH   1   9
ATOM      6  C   UNL     1       6.935   4.302  11.712  0.00  0.00    +0.000 A 
ATOM      7  C   UNL     1       7.751   5.196  12.405  0.00  0.00    +0.000 A 
ATOM      8  C   UNL     1       7.693   5.262  13.800  0.00  0.00    +0.000 A 
ATOM      9  C   UNL     1       6.813   4.435  14.511  0.00  0.00    +0.000 A 
ATOM     10  C   UNL     1       5.996   3.535  13.806  0.00  0.00    +0.000 A 
ATOM     11  C   UNL     1       6.059   3.474  12.412  0.00  0.00    +0.000 A 
ENDBRANCH   1   9
BRANCH   3  12
ATOM     12  C   UNL     1       5.374   4.627  19.321  0.00  0.00    +0.000 C 
BRANCH  12  13
ATOM     13  S   UNL     1       3.642   4.117  19.118  0.00  0.00    +0.000 S 
BRANCH  13  14
ATOM     14  C   UNL     1       2.829   5.666  19.172  0.00  0.00    +0.000 A 
ATOM     15  N   UNL     1       2.865   6.512  18.170  0.00  0.00    +0.000 NA
ATOM     16  C   UNL     1       2.248   7.698  18.542  0.00  0.00    +0.000 A 
ATOM     17  C   UNL     1       2.141   8.861  17.751  0.00  0.00    +0.000 A 
ATOM     18  C   UNL     1       1.555  10.016  18.281  0.00  0.00    +0.000 A 
ATOM     19  C   UNL     1       1.052  10.017  19.579  0.00  0.00    +0.000 A 
ATOM     20  C   UNL     1       1.110   8.868  20.371  0.00  0.00    +0.000 A 
ATOM     21  C   UNL     1       1.720   7.721  19.836  0.00  0.00    +0.000 A 
ATOM     22  S   UNL     1       1.977   6.184  20.565  0.00  0.00    +0.000 S 
ENDBRANCH  13  14
ENDBRANCH  12  13
ENDBRANCH   3  12
TORSDOF 4
ENDMDL
MODEL 6
REMARK VINA RESULT:      -7.6      0.833      1.394
REMARK  Name = 
REMARK  4 active torsions:
REMARK  status: ('A' for Active; 'I' for Inactive)
REMARK    1  A    between atoms: C_4  and  N_5
REMARK    2  A    between atoms: C_7  and  C_8
REMARK    3  A    between atoms: C_8  and  S_9
REMARK    4  A    between atoms: S_9  and  C_10
REMARK                            x       y       z     vdW  Elec       q    Type
REMARK                         _______ _______ _______ _____ _____    ______ ____
ROOT
ATOM      1  N   UNL     1       8.403   8.915  18.432  0.00  0.00    +0.000 N 
ATOM      2  C   UNL     1       7.460   8.676  17.457  0.00  0.00    +0.000 A 
ATOM      3  C   UNL     1       7.191   7.326  17.534  0.00  0.00    +0.000 A 
ATOM      4  N   UNL     1       7.978   6.779  18.512  0.00  0.00    +0.000 NA
ATOM      5  N   UNL     1       8.699   7.749  19.056  0.00  0.00    +0.000 NA
ENDROOT
BRANCH   1   9
ATOM      6  C   UNL     1      10.254  12.570  19.468  0.00  0.00    +0.000 A 
ATOM      7  C   UNL     1      10.047  11.596  20.444  0.00  0.00    +0.000 A 
ATOM      8  C   UNL     1       9.438  10.384  20.109  0.00  0.00    +0.000 A 
ATOM      9  C   UNL     1       9.029  10.140  18.791  0.00  0.00    +0.000 A 
ATOM     10  C   UNL     1       9.242  11.125  17.812  0.00  0.00    +0.000 A 
ATOM     11  C   UNL     1       9.852  12.333  18.154  0.00  0.00    +0.000 A 
ENDBRANCH   1   9
BRANCH   3  12
ATOM     12  C   UNL     1       6.264   6.489  16.722  0.00  0.00    +0.000 C 
BRANCH  12  13
ATOM     13  S   UNL     1       6.529   4.718  17.029  0.00  0.00    +0.000 S 
BRANCH  13  14
ATOM     14  C   UNL     1       5.066   4.309  17.899  0.00  0.00    +0.000 A 
ATOM     15  N   UNL     1       4.268   3.341  17.514  0.00  0.00    +0.000 NA
ATOM     16  C   UNL     1       3.133   3.331  18.312  0.00  0.00    +0.000 A 
ATOM     17  C   UNL     1       2.024   2.471  18.165  0.00  0.00    +0.000 A 
ATOM     18  C   UNL     1       0.910   2.620  18.997  0.00  0.00    +0.000 A 
ATOM     19  C   UNL     1       0.898   3.596  19.990  0.00  0.00    +0.000 A 
ATOM     20  C   UNL     1       1.997   4.436  20.182  0.00  0.00    +0.000 A 
ATOM     21  C   UNL     1       3.102   4.291  19.325  0.00  0.00    +0.000 A 
ATOM     22  S   UNL     1       4.571   5.187  19.284  0.00  0.00    +0.000 S 
ENDBRANCH  13  14
ENDBRANCH  12  13
ENDBRANCH   3  12
TORSDOF 4
ENDMDL
MODEL 7
REMARK VINA RESULT:      -7.6      4.304      6.893
REMARK  Name = 
REMARK  4 active torsions:
REMARK  status: ('A' for Active; 'I' for Inactive)
REMARK    1  A    between atoms: C_4  and  N_5
REMARK    2  A    between atoms: C_7  and  C_8
REMARK    3  A    between atoms: C_8  and  S_9
REMARK    4  A    between atoms: S_9  and  C_10
REMARK                            x       y       z     vdW  Elec       q    Type
REMARK                         _______ _______ _______ _____ _____    ______ ____
ROOT
ATOM      1  N   UNL     1       6.410   4.060  14.086  0.00  0.00    +0.000 N 
ATOM      2  C   UNL     1       6.235   3.706  15.406  0.00  0.00    +0.000 A 
ATOM      3  C   UNL     1       6.979   4.614  16.129  0.00  0.00    +0.000 A 
ATOM      4  N   UNL     1       7.599   5.465  15.254  0.00  0.00    +0.000 NA
ATOM      5  N   UNL     1       7.242   5.129  14.023  0.00  0.00    +0.000 NA
ENDROOT
BRANCH   1   9
ATOM      6  C   UNL     1       4.812   2.256  10.616  0.00  0.00    +0.000 A 
ATOM      7  C   UNL     1       4.078   3.230  11.292  0.00  0.00    +0.000 A 
ATOM      8  C   UNL     1       4.602   3.833  12.439  0.00  0.00    +0.000 A 
ATOM      9  C   UNL     1       5.865   3.461  12.919  0.00  0.00    +0.000 A 
ATOM     10  C   UNL     1       6.600   2.481  12.232  0.00  0.00    +0.000 A 
ATOM     11  C   UNL     1       6.070   1.883  11.086  0.00  0.00    +0.000 A 
ENDBRANCH   1   9
BRANCH   3  12
ATOM     12  C   UNL     1       7.184   4.724  17.600  0.00  0.00    +0.000 C 
BRANCH  12  13
ATOM     13  S   UNL     1       6.311   6.162  18.286  0.00  0.00    +0.000 S 
BRANCH  13  14
ATOM     14  C   UNL     1       4.762   5.450  18.686  0.00  0.00    +0.000 A 
ATOM     15  N   UNL     1       4.442   5.111  19.912  0.00  0.00    +0.000 NA
ATOM     16  C   UNL     1       3.217   4.459  19.909  0.00  0.00    +0.000 A 
ATOM     17  C   UNL     1       2.573   3.897  21.031  0.00  0.00    +0.000 A 
ATOM     18  C   UNL     1       1.370   3.201  20.870  0.00  0.00    +0.000 A 
ATOM     19  C   UNL     1       0.788   3.082  19.611  0.00  0.00    +0.000 A 
ATOM     20  C   UNL     1       1.385   3.662  18.488  0.00  0.00    +0.000 A 
ATOM     21  C   UNL     1       2.604   4.339  18.658  0.00  0.00    +0.000 A 
ATOM     22  S   UNL     1       3.591   5.115  17.482  0.00  0.00    +0.000 S 
ENDBRANCH  13  14
ENDBRANCH  12  13
ENDBRANCH   3  12
TORSDOF 4
ENDMDL
MODEL 8
REMARK VINA RESULT:      -7.6      1.037      1.459
REMARK  Name = 
REMARK  4 active torsions:
REMARK  status: ('A' for Active; 'I' for Inactive)
REMARK    1  A    between atoms: C_4  and  N_5
REMARK    2  A    between atoms: C_7  and  C_8
REMARK    3  A    between atoms: C_8  and  S_9
REMARK    4  A    between atoms: S_9  and  C_10
REMARK                            x       y       z     vdW  Elec       q    Type
REMARK                         _______ _______ _______ _____ _____    ______ ____
ROOT
ATOM      1  N   UNL     1       8.538   9.069  18.429  0.00  0.00    +0.000 N 
ATOM      2  C   UNL     1       8.610   7.793  18.945  0.00  0.00    +0.000 A 
ATOM      3  C   UNL     1       7.808   7.025  18.127  0.00  0.00    +0.000 A 
ATOM      4  N   UNL     1       7.257   7.834  17.171  0.00  0.00    +0.000 NA
ATOM      5  N   UNL     1       7.711   9.065  17.356  0.00  0.00    +0.000 NA
ENDROOT
BRANCH   1   9
ATOM      6  C   UNL     1      10.434  12.606  19.750  0.00  0.00    +0.000 A 
ATOM      7  C   UNL     1       9.938  11.696  20.682  0.00  0.00    +0.000 A 
ATOM      8  C   UNL     1       9.312  10.522  20.253  0.00  0.00    +0.000 A 
ATOM      9  C   UNL     1       9.175  10.254  18.884  0.00  0.00    +0.000 A 
ATOM     10  C   UNL     1       9.679  11.176  17.950  0.00  0.00    +0.000 A 
ATOM     11  C   UNL     1      10.304  12.346  18.387  0.00  0.00    +0.000 A 
ENDBRANCH   1   9
BRANCH   3  12
ATOM     12  C   UNL     1       7.487   5.572  18.199  0.00  0.00    +0.000 C 
BRANCH  12  13
ATOM     13  S   UNL     1       6.127   5.139  17.073  0.00  0.00    +0.000 S 
BRANCH  13  14
ATOM     14  C   UNL     1       4.849   4.786  18.215  0.00  0.00    +0.000 A 
ATOM     15  N   UNL     1       4.862   3.717  18.976  0.00  0.00    +0.000 NA
ATOM     16  C   UNL     1       3.670   3.634  19.681  0.00  0.00    +0.000 A 
ATOM     17  C   UNL     1       3.295   2.593  20.556  0.00  0.00    +0.000 A 
ATOM     18  C   UNL     1       2.026   2.599  21.145  0.00  0.00    +0.000 A 
ATOM     19  C   UNL     1       1.138   3.642  20.894  0.00  0.00    +0.000 A 
ATOM     20  C   UNL     1       1.498   4.705  20.062  0.00  0.00    +0.000 A 
ATOM     21  C   UNL     1       2.767   4.677  19.458  0.00  0.00    +0.000 A 
ATOM     22  S   UNL     1       3.478   5.802  18.369  0.00  0.00    +0.000 S 
ENDBRANCH  13  14
ENDBRANCH  12  13
ENDBRANCH   3  12
TORSDOF 4
ENDMDL
MODEL 9
REMARK VINA RESULT:      -7.4      4.681      7.004
REMARK  Name = 
REMARK  4 active torsions:
REMARK  status: ('A' for Active; 'I' for Inactive)
REMARK    1  A    between atoms: C_4  and  N_5
REMARK    2  A    between atoms: C_7  and  C_8
REMARK    3  A    between atoms: C_8  and  S_9
REMARK    4  A    between atoms: S_9  and  C_10
REMARK                            x       y       z     vdW  Elec       q    Type
REMARK                         _______ _______ _______ _____ _____    ______ ____
ROOT
ATOM      1  N   UNL     1       2.694   6.780  19.424  0.00  0.00    +0.000 N 
ATOM      2  C   UNL     1       3.935   6.569  18.863  0.00  0.00    +0.000 A 
ATOM      3  C   UNL     1       4.247   5.257  19.153  0.00  0.00    +0.000 A 
ATOM      4  N   UNL     1       3.227   4.719  19.891  0.00  0.00    +0.000 NA
ATOM      5  N   UNL     1       2.289   5.644  20.041  0.00  0.00    +0.000 NA
ENDROOT
BRANCH   1   9
ATOM      6  C   UNL     1       0.333  10.284  19.379  0.00  0.00    +0.000 A 
ATOM      7  C   UNL     1       0.526   9.592  20.575  0.00  0.00    +0.000 A 
ATOM      8  C   UNL     1       1.307   8.434  20.598  0.00  0.00    +0.000 A 
ATOM      9  C   UNL     1       1.900   7.959  19.420  0.00  0.00    +0.000 A 
ATOM     10  C   UNL     1       1.704   8.661  18.220  0.00  0.00    +0.000 A 
ATOM     11  C   UNL     1       0.922   9.818  18.205  0.00  0.00    +0.000 A 
ENDBRANCH   1   9
BRANCH   3  12
ATOM     12  C   UNL     1       5.465   4.469  18.817  0.00  0.00    +0.000 C 
BRANCH  12  13
ATOM     13  S   UNL     1       6.752   5.521  18.083  0.00  0.00    +0.000 S 
BRANCH  13  14
ATOM     14  C   UNL     1       6.738   4.958  16.426  0.00  0.00    +0.000 A 
ATOM     15  N   UNL     1       7.577   5.409  15.525  0.00  0.00    +0.000 NA
ATOM     16  C   UNL     1       7.250   4.884  14.282  0.00  0.00    +0.000 A 
ATOM     17  C   UNL     1       7.890   5.183  13.061  0.00  0.00    +0.000 A 
ATOM     18  C   UNL     1       7.407   4.637  11.867  0.00  0.00    +0.000 A 
ATOM     19  C   UNL     1       6.313   3.775  11.879  0.00  0.00    +0.000 A 
ATOM     20  C   UNL     1       5.684   3.432  13.078  0.00  0.00    +0.000 A 
ATOM     21  C   UNL     1       6.164   4.005  14.269  0.00  0.00    +0.000 A 
ATOM     22  S   UNL     1       5.587   3.813  15.879  0.00  0.00    +0.000 S 
ENDBRANCH  13  14
ENDBRANCH  12  13
ENDBRANCH   3  12
TORSDOF 4
ENDMDL
