MODEL 1
REMARK VINA RESULT:      -8.4      0.000      0.000
REMARK  Name = 
REMARK  5 active torsions:
REMARK  status: ('A' for Active; 'I' for Inactive)
REMARK    1  A    between atoms: C_2  and  C_19
REMARK    2  A    between atoms: N_3  and  C_4
REMARK    3  A    between atoms: C_4  and  N_6
REMARK    4  A    between atoms: N_6  and  C_7
REMARK    5  A    between atoms: C_10  and  N_11
REMARK                            x       y       z     vdW  Elec       q    Type
REMARK                         _______ _______ _______ _____ _____    ______ ____
ROOT
ATOM      1  C   UNL     1       0.718   9.765  19.795  0.00  0.00    +0.000 C 
ATOM      2  S   UNL     1       0.426  10.213  21.374  0.00  0.00    +0.000 S 
ENDROOT
BRANCH   1   5
ATOM      3  O   UNL     1       2.193   9.329  17.295  0.00  0.00    +0.000 OA
ATOM      4  C   UNL     1       2.151   8.511  18.206  0.00  0.00    +0.000 C 
ATOM      5  N   UNL     1       1.379   8.635  19.343  0.00  0.00    +0.000 N 
ATOM      6  H   UNL     1       1.331   7.851  19.974  0.00  0.00    +0.000 HD
BRANCH   4   7
ATOM      7  C   UNL     1       2.887   7.235  18.019  0.00  0.00    +0.000 A 
ATOM      8  C   UNL     1       2.403   5.978  18.409  0.00  0.00    +0.000 A 
ATOM      9  C   UNL     1       3.062   4.822  17.967  0.00  0.00    +0.000 A 
ATOM     10  C   UNL     1       4.185   4.925  17.139  0.00  0.00    +0.000 A 
ATOM     11  C   UNL     1       4.702   6.181  16.832  0.00  0.00    +0.000 A 
ATOM     12  C   UNL     1       4.064   7.330  17.270  0.00  0.00    +0.000 A 
ATOM     13  O   UNL     1       5.817   6.357  16.060  0.00  0.00    +0.000 OA
ATOM     14  C   UNL     1       5.858   5.331  15.074  0.00  0.00    +0.000 C 
ATOM     15  C   UNL     1       5.779   3.948  15.710  0.00  0.00    +0.000 C 
ATOM     16  O   UNL     1       4.683   3.765  16.618  0.00  0.00    +0.000 OA
ENDBRANCH   4   7
ENDBRANCH   1   5
BRANCH   1  17
ATOM     17  N   UNL     1       0.189  10.538  18.786  0.00  0.00    +0.000 N 
ATOM     18  H   UNL     1       0.837  10.789  18.045  0.00  0.00    +0.000 HD
BRANCH  17  19
ATOM     19  C   UNL     1      -1.178  10.747  18.522  0.00  0.00    +0.000 A 
ATOM     20  C   UNL     1      -1.816   9.889  17.636  0.00  0.00    +0.000 A 
ATOM     21  C   UNL     1      -3.178  10.058  17.359  0.00  0.00    +0.000 A 
ATOM     22  C   UNL     1      -3.940  11.057  17.980  0.00  0.00    +0.000 A 
ATOM     23  C   UNL     1      -3.278  11.897  18.885  0.00  0.00    +0.000 A 
ATOM     24  C   UNL     1      -1.917  11.745  19.158  0.00  0.00    +0.000 A 
BRANCH  22  25
ATOM     25  N   UNL     1      -5.299  11.198  17.785  0.00  0.00    +0.000 N 
ATOM     26  C   UNL     1      -5.882  12.391  17.155  0.00  0.00    +0.000 C 
ATOM     27  C   UNL     1      -6.621  13.244  18.190  0.00  0.00    +0.000 C 
ATOM     28  O   UNL     1      -7.603  12.472  18.903  0.00  0.00    +0.000 OA
ATOM     29  C   UNL     1      -6.971  11.379  19.592  0.00  0.00    +0.000 C 
ATOM     30  C   UNL     1      -6.242  10.434  18.620  0.00  0.00    +0.000 C 
ENDBRANCH  22  25
ENDBRANCH  17  19
ENDBRANCH   1  17
TORSDOF 5
ENDMDL
MODEL 2
REMARK VINA RESULT:      -8.2      1.185      2.064
REMARK  Name = 
REMARK  5 active torsions:
REMARK  status: ('A' for Active; 'I' for Inactive)
REMARK    1  A    between atoms: C_2  and  C_19
REMARK    2  A    between atoms: N_3  and  C_4
REMARK    3  A    between atoms: C_4  and  N_6
REMARK    4  A    between atoms: N_6  and  C_7
REMARK    5  A    between atoms: C_10  and  N_11
REMARK                            x       y       z     vdW  Elec       q    Type
REMARK                         _______ _______ _______ _____ _____    ______ ____
ROOT
ATOM      1  C   UNL     1       0.782   9.988  19.606  0.00  0.00    +0.000 C 
ATOM      2  S   UNL     1       0.610  10.610  21.143  0.00  0.00    +0.000 S 
ENDROOT
BRANCH   1   5
ATOM      3  O   UNL     1       2.257   9.327  17.156  0.00  0.00    +0.000 OA
ATOM      4  C   UNL     1       2.171   8.572  18.117  0.00  0.00    +0.000 C 
ATOM      5  N   UNL     1       1.395   8.803  19.235  0.00  0.00    +0.000 N 
ATOM      6  H   UNL     1       1.307   8.064  19.914  0.00  0.00    +0.000 HD
BRANCH   4   7
ATOM      7  C   UNL     1       2.850   7.256  18.020  0.00  0.00    +0.000 A 
ATOM      8  C   UNL     1       4.129   7.064  17.478  0.00  0.00    +0.000 A 
ATOM      9  C   UNL     1       4.773   5.831  17.658  0.00  0.00    +0.000 A 
ATOM     10  C   UNL     1       4.146   4.809  18.378  0.00  0.00    +0.000 A 
ATOM     11  C   UNL     1       2.842   4.986  18.836  0.00  0.00    +0.000 A 
ATOM     12  C   UNL     1       2.194   6.197  18.656  0.00  0.00    +0.000 A 
ATOM     13  O   UNL     1       2.155   4.019  19.514  0.00  0.00    +0.000 OA
ATOM     14  C   UNL     1       3.073   3.277  20.310  0.00  0.00    +0.000 C 
ATOM     15  C   UNL     1       4.215   2.723  19.467  0.00  0.00    +0.000 C 
ATOM     16  O   UNL     1       4.888   3.694  18.652  0.00  0.00    +0.000 OA
ENDBRANCH   4   7
ENDBRANCH   1   5
BRANCH   1  17
ATOM     17  N   UNL     1       0.190  10.657  18.559  0.00  0.00    +0.000 N 
ATOM     18  H   UNL     1       0.794  10.839  17.762  0.00  0.00    +0.000 HD
BRANCH  17  19
ATOM     19  C   UNL     1      -1.191  10.832  18.352  0.00  0.00    +0.000 A 
ATOM     20  C   UNL     1      -1.842   9.965  17.484  0.00  0.00    +0.000 A 
ATOM     21  C   UNL     1      -3.218  10.101  17.263  0.00  0.00    +0.000 A 
ATOM     22  C   UNL     1      -3.980  11.074  17.924  0.00  0.00    +0.000 A 
ATOM     23  C   UNL     1      -3.304  11.923  18.810  0.00  0.00    +0.000 A 
ATOM     24  C   UNL     1      -1.930  11.804  19.027  0.00  0.00    +0.000 A 
BRANCH  22  25
ATOM     25  N   UNL     1      -5.349  11.180  17.786  0.00  0.00    +0.000 N 
ATOM     26  C   UNL     1      -5.985  12.343  17.150  0.00  0.00    +0.000 C 
ATOM     27  C   UNL     1      -6.698  13.209  18.194  0.00  0.00    +0.000 C 
ATOM     28  O   UNL     1      -7.630  12.436  18.970  0.00  0.00    +0.000 OA
ATOM     29  C   UNL     1      -6.945  11.376  19.659  0.00  0.00    +0.000 C 
ATOM     30  C   UNL     1      -6.238  10.420  18.682  0.00  0.00    +0.000 C 
ENDBRANCH  22  25
ENDBRANCH  17  19
ENDBRANCH   1  17
TORSDOF 5
ENDMDL
MODEL 3
REMARK VINA RESULT:      -8.1      0.726      1.281
REMARK  Name = 
REMARK  5 active torsions:
REMARK  status: ('A' for Active; 'I' for Inactive)
REMARK    1  A    between atoms: C_2  and  C_19
REMARK    2  A    between atoms: N_3  and  C_4
REMARK    3  A    between atoms: C_4  and  N_6
REMARK    4  A    between atoms: N_6  and  C_7
REMARK    5  A    between atoms: C_10  and  N_11
REMARK                            x       y       z     vdW  Elec       q    Type
REMARK                         _______ _______ _______ _____ _____    ______ ____
ROOT
ATOM      1  C   UNL     1       1.055   9.391  20.088  0.00  0.00    +0.000 C 
ATOM      2  S   UNL     1       0.750   9.709  21.697  0.00  0.00    +0.000 S 
ENDROOT
BRANCH   1   5
ATOM      3  O   UNL     1       2.172   8.986  17.405  0.00  0.00    +0.000 OA
ATOM      4  C   UNL     1       2.288   8.173  18.314  0.00  0.00    +0.000 C 
ATOM      5  N   UNL     1       1.683   8.280  19.550  0.00  0.00    +0.000 N 
ATOM      6  H   UNL     1       1.751   7.499  20.182  0.00  0.00    +0.000 HD
BRANCH   4   7
ATOM      7  C   UNL     1       3.032   6.921  18.026  0.00  0.00    +0.000 A 
ATOM      8  C   UNL     1       2.548   5.633  18.299  0.00  0.00    +0.000 A 
ATOM      9  C   UNL     1       3.219   4.522  17.766  0.00  0.00    +0.000 A 
ATOM     10  C   UNL     1       4.352   4.701  16.967  0.00  0.00    +0.000 A 
ATOM     11  C   UNL     1       4.868   5.980  16.778  0.00  0.00    +0.000 A 
ATOM     12  C   UNL     1       4.219   7.084  17.305  0.00  0.00    +0.000 A 
ATOM     13  O   UNL     1       5.992   6.226  16.040  0.00  0.00    +0.000 OA
ATOM     14  C   UNL     1       6.051   5.291  14.969  0.00  0.00    +0.000 C 
ATOM     15  C   UNL     1       5.970   3.858  15.480  0.00  0.00    +0.000 C 
ATOM     16  O   UNL     1       4.862   3.592  16.353  0.00  0.00    +0.000 OA
ENDBRANCH   4   7
ENDBRANCH   1   5
BRANCH   1  17
ATOM     17  N   UNL     1       0.576  10.269  19.144  0.00  0.00    +0.000 N 
ATOM     18  H   UNL     1       1.202  10.457  18.367  0.00  0.00    +0.000 HD
BRANCH  17  19
ATOM     19  C   UNL     1      -0.762  10.676  18.983  0.00  0.00    +0.000 A 
ATOM     20  C   UNL     1      -1.223  11.739  19.750  0.00  0.00    +0.000 A 
ATOM     21  C   UNL     1      -2.545  12.180  19.608  0.00  0.00    +0.000 A 
ATOM     22  C   UNL     1      -3.422  11.600  18.681  0.00  0.00    +0.000 A 
ATOM     23  C   UNL     1      -2.927  10.544  17.906  0.00  0.00    +0.000 A 
ATOM     24  C   UNL     1      -1.615  10.088  18.049  0.00  0.00    +0.000 A 
BRANCH  22  25
ATOM     25  N   UNL     1      -4.703  12.065  18.465  0.00  0.00    +0.000 N 
ATOM     26  C   UNL     1      -5.356  13.016  19.375  0.00  0.00    +0.000 C 
ATOM     27  C   UNL     1      -6.463  12.325  20.179  0.00  0.00    +0.000 C 
ATOM     28  O   UNL     1      -7.404  11.664  19.317  0.00  0.00    +0.000 OA
ATOM     29  C   UNL     1      -6.738  10.668  18.524  0.00  0.00    +0.000 C 
ATOM     30  C   UNL     1      -5.638  11.281  17.639  0.00  0.00    +0.000 C 
ENDBRANCH  22  25
ENDBRANCH  17  19
ENDBRANCH   1  17
TORSDOF 5
ENDMDL
MODEL 4
REMARK VINA RESULT:      -7.9      1.232      2.277
REMARK  Name = 
REMARK  5 active torsions:
REMARK  status: ('A' for Active; 'I' for Inactive)
REMARK    1  A    between atoms: C_2  and  C_19
REMARK    2  A    between atoms: N_3  and  C_4
REMARK    3  A    between atoms: C_4  and  N_6
REMARK    4  A    between atoms: N_6  and  C_7
REMARK    5  A    between atoms: C_10  and  N_11
REMARK                            x       y       z     vdW  Elec       q    Type
REMARK                         _______ _______ _______ _____ _____    ______ ____
ROOT
ATOM      1  C   UNL     1       0.983   9.502  20.169  0.00  0.00    +0.000 C 
ATOM      2  S   UNL     1       0.813   9.671  21.819  0.00  0.00    +0.000 S 
ENDROOT
BRANCH   1   5
ATOM      3  O   UNL     1       2.385   9.397  17.593  0.00  0.00    +0.000 OA
ATOM      4  C   UNL     1       2.229   8.421  18.317  0.00  0.00    +0.000 C 
ATOM      5  N   UNL     1       1.481   8.411  19.476  0.00  0.00    +0.000 N 
ATOM      6  H   UNL     1       1.324   7.527  19.934  0.00  0.00    +0.000 HD
BRANCH   4   7
ATOM      7  C   UNL     1       2.781   7.124  17.851  0.00  0.00    +0.000 A 
ATOM      8  C   UNL     1       4.071   6.955  17.327  0.00  0.00    +0.000 A 
ATOM      9  C   UNL     1       4.574   5.658  17.149  0.00  0.00    +0.000 A 
ATOM     10  C   UNL     1       3.799   4.548  17.499  0.00  0.00    +0.000 A 
ATOM     11  C   UNL     1       2.489   4.731  17.936  0.00  0.00    +0.000 A 
ATOM     12  C   UNL     1       1.979   6.007  18.108  0.00  0.00    +0.000 A 
ATOM     13  O   UNL     1       1.662   3.693  18.260  0.00  0.00    +0.000 OA
ATOM     14  C   UNL     1       2.441   2.646  18.828  0.00  0.00    +0.000 C 
ATOM     15  C   UNL     1       3.582   2.240  17.903  0.00  0.00    +0.000 C 
ATOM     16  O   UNL     1       4.405   3.325  17.449  0.00  0.00    +0.000 OA
ENDBRANCH   4   7
ENDBRANCH   1   5
BRANCH   1  17
ATOM     17  N   UNL     1       0.513  10.507  19.355  0.00  0.00    +0.000 N 
ATOM     18  H   UNL     1       1.179  10.864  18.677  0.00  0.00    +0.000 HD
BRANCH  17  19
ATOM     19  C   UNL     1      -0.835  10.863  19.159  0.00  0.00    +0.000 A 
ATOM     20  C   UNL     1      -1.345  11.933  19.882  0.00  0.00    +0.000 A 
ATOM     21  C   UNL     1      -2.677  12.325  19.703  0.00  0.00    +0.000 A 
ATOM     22  C   UNL     1      -3.517  11.686  18.781  0.00  0.00    +0.000 A 
ATOM     23  C   UNL     1      -2.974  10.623  18.049  0.00  0.00    +0.000 A 
ATOM     24  C   UNL     1      -1.650  10.217  18.229  0.00  0.00    +0.000 A 
BRANCH  22  25
ATOM     25  N   UNL     1      -4.809  12.100  18.528  0.00  0.00    +0.000 N 
ATOM     26  C   UNL     1      -5.504  13.072  19.385  0.00  0.00    +0.000 C 
ATOM     27  C   UNL     1      -6.599  12.385  20.208  0.00  0.00    +0.000 C 
ATOM     28  O   UNL     1      -7.508  11.655  19.366  0.00  0.00    +0.000 OA
ATOM     29  C   UNL     1      -6.801  10.644  18.629  0.00  0.00    +0.000 C 
ATOM     30  C   UNL     1      -5.709  11.250  17.729  0.00  0.00    +0.000 C 
ENDBRANCH  22  25
ENDBRANCH  17  19
ENDBRANCH   1  17
TORSDOF 5
ENDMDL
MODEL 5
REMARK VINA RESULT:      -7.8      1.487      2.176
REMARK  Name = 
REMARK  5 active torsions:
REMARK  status: ('A' for Active; 'I' for Inactive)
REMARK    1  A    between atoms: C_2  and  C_19
REMARK    2  A    between atoms: N_3  and  C_4
REMARK    3  A    between atoms: C_4  and  N_6
REMARK    4  A    between atoms: N_6  and  C_7
REMARK    5  A    between atoms: C_10  and  N_11
REMARK                            x       y       z     vdW  Elec       q    Type
REMARK                         _______ _______ _______ _____ _____    ______ ____
ROOT
ATOM      1  C   UNL     1       1.330  10.611  18.555  0.00  0.00    +0.000 C 
ATOM      2  S   UNL     1       1.882  12.157  18.260  0.00  0.00    +0.000 S 
ENDROOT
BRANCH   1   5
ATOM      3  O   UNL     1       1.801   8.184  20.136  0.00  0.00    +0.000 OA
ATOM      4  C   UNL     1       2.027   8.261  18.935  0.00  0.00    +0.000 C 
ATOM      5  N   UNL     1       1.923   9.415  18.185  0.00  0.00    +0.000 N 
ATOM      6  H   UNL     1       2.244   9.393  17.231  0.00  0.00    +0.000 HD
BRANCH   4   7
ATOM      7  C   UNL     1       2.571   7.057  18.258  0.00  0.00    +0.000 A 
ATOM      8  C   UNL     1       3.795   7.018  17.576  0.00  0.00    +0.000 A 
ATOM      9  C   UNL     1       4.325   5.778  17.189  0.00  0.00    +0.000 A 
ATOM     10  C   UNL     1       3.642   4.596  17.489  0.00  0.00    +0.000 A 
ATOM     11  C   UNL     1       2.387   4.658  18.090  0.00  0.00    +0.000 A 
ATOM     12  C   UNL     1       1.850   5.877  18.469  0.00  0.00    +0.000 A 
ATOM     13  O   UNL     1       1.646   3.546  18.378  0.00  0.00    +0.000 OA
ATOM     14  C   UNL     1       2.528   2.485  18.726  0.00  0.00    +0.000 C 
ATOM     15  C   UNL     1       3.567   2.248  17.636  0.00  0.00    +0.000 C 
ATOM     16  O   UNL     1       4.286   3.420  17.226  0.00  0.00    +0.000 OA
ENDBRANCH   4   7
ENDBRANCH   1   5
BRANCH   1  17
ATOM     17  N   UNL     1       0.197  10.454  19.320  0.00  0.00    +0.000 N 
ATOM     18  H   UNL     1       0.355  10.379  20.320  0.00  0.00    +0.000 HD
BRANCH  17  19
ATOM     19  C   UNL     1      -1.129  10.692  18.910  0.00  0.00    +0.000 A 
ATOM     20  C   UNL     1      -1.666   9.883  17.917  0.00  0.00    +0.000 A 
ATOM     21  C   UNL     1      -2.985  10.082  17.493  0.00  0.00    +0.000 A 
ATOM     22  C   UNL     1      -3.806  11.062  18.068  0.00  0.00    +0.000 A 
ATOM     23  C   UNL     1      -3.248  11.852  19.081  0.00  0.00    +0.000 A 
ATOM     24  C   UNL     1      -1.929  11.669  19.502  0.00  0.00    +0.000 A 
BRANCH  22  25
ATOM     25  N   UNL     1      -5.133  11.229  17.724  0.00  0.00    +0.000 N 
ATOM     26  C   UNL     1      -5.607  12.397  16.968  0.00  0.00    +0.000 C 
ATOM     27  C   UNL     1      -6.419  13.333  17.870  0.00  0.00    +0.000 C 
ATOM     28  O   UNL     1      -7.494  12.633  18.520  0.00  0.00    +0.000 OA
ATOM     29  C   UNL     1      -6.974  11.567  19.333  0.00  0.00    +0.000 C 
ATOM     30  C   UNL     1      -6.183  10.544  18.498  0.00  0.00    +0.000 C 
ENDBRANCH  22  25
ENDBRANCH  17  19
ENDBRANCH   1  17
TORSDOF 5
ENDMDL
MODEL 6
REMARK VINA RESULT:      -7.8      1.730      2.634
REMARK  Name = 
REMARK  5 active torsions:
REMARK  status: ('A' for Active; 'I' for Inactive)
REMARK    1  A    between atoms: C_2  and  C_19
REMARK    2  A    between atoms: N_3  and  C_4
REMARK    3  A    between atoms: C_4  and  N_6
REMARK    4  A    between atoms: N_6  and  C_7
REMARK    5  A    between atoms: C_10  and  N_11
REMARK                            x       y       z     vdW  Elec       q    Type
REMARK                         _______ _______ _______ _____ _____    ______ ____
ROOT
ATOM      1  C   UNL     1       1.641  10.298  18.442  0.00  0.00    +0.000 C 
ATOM      2  S   UNL     1       2.167  11.798  17.939  0.00  0.00    +0.000 S 
ENDROOT
BRANCH   1   5
ATOM      3  O   UNL     1       1.997   7.907  20.106  0.00  0.00    +0.000 OA
ATOM      4  C   UNL     1       2.217   7.930  18.902  0.00  0.00    +0.000 C 
ATOM      5  N   UNL     1       2.168   9.061  18.112  0.00  0.00    +0.000 N 
ATOM      6  H   UNL     1       2.480   8.988  17.157  0.00  0.00    +0.000 HD
BRANCH   4   7
ATOM      7  C   UNL     1       2.692   6.676  18.265  0.00  0.00    +0.000 A 
ATOM      8  C   UNL     1       3.919   6.542  17.598  0.00  0.00    +0.000 A 
ATOM      9  C   UNL     1       4.375   5.262  17.252  0.00  0.00    +0.000 A 
ATOM     10  C   UNL     1       3.617   4.133  17.577  0.00  0.00    +0.000 A 
ATOM     11  C   UNL     1       2.363   4.289  18.162  0.00  0.00    +0.000 A 
ATOM     12  C   UNL     1       1.898   5.549  18.501  0.00  0.00    +0.000 A 
ATOM     13  O   UNL     1       1.553   3.233  18.473  0.00  0.00    +0.000 OA
ATOM     14  C   UNL     1       2.364   2.130  18.860  0.00  0.00    +0.000 C 
ATOM     15  C   UNL     1       3.397   1.799  17.789  0.00  0.00    +0.000 C 
ATOM     16  O   UNL     1       4.191   2.913  17.354  0.00  0.00    +0.000 OA
ENDBRANCH   4   7
ENDBRANCH   1   5
BRANCH   1  17
ATOM     17  N   UNL     1       0.614  10.237  19.357  0.00  0.00    +0.000 N 
ATOM     18  H   UNL     1       0.898  10.077  20.319  0.00  0.00    +0.000 HD
BRANCH  17  19
ATOM     19  C   UNL     1      -0.711  10.667  19.156  0.00  0.00    +0.000 A 
ATOM     20  C   UNL     1      -1.229  11.625  20.018  0.00  0.00    +0.000 A 
ATOM     21  C   UNL     1      -2.539  12.087  19.841  0.00  0.00    +0.000 A 
ATOM     22  C   UNL     1      -3.346  11.635  18.789  0.00  0.00    +0.000 A 
ATOM     23  C   UNL     1      -2.794  10.684  17.921  0.00  0.00    +0.000 A 
ATOM     24  C   UNL     1      -1.493  10.208  18.097  0.00  0.00    +0.000 A 
BRANCH  22  25
ATOM     25  N   UNL     1      -4.612  12.130  18.545  0.00  0.00    +0.000 N 
ATOM     26  C   UNL     1      -5.301  13.021  19.488  0.00  0.00    +0.000 C 
ATOM     27  C   UNL     1      -6.452  12.288  20.185  0.00  0.00    +0.000 C 
ATOM     28  O   UNL     1      -7.355  11.702  19.232  0.00  0.00    +0.000 OA
ATOM     29  C   UNL     1      -6.658  10.757  18.402  0.00  0.00    +0.000 C 
ATOM     30  C   UNL     1      -5.511  11.419  17.619  0.00  0.00    +0.000 C 
ENDBRANCH  22  25
ENDBRANCH  17  19
ENDBRANCH   1  17
TORSDOF 5
ENDMDL
MODEL 7
REMARK VINA RESULT:      -7.7      2.090     10.044
REMARK  Name = 
REMARK  5 active torsions:
REMARK  status: ('A' for Active; 'I' for Inactive)
REMARK    1  A    between atoms: C_2  and  C_19
REMARK    2  A    between atoms: N_3  and  C_4
REMARK    3  A    between atoms: C_4  and  N_6
REMARK    4  A    between atoms: N_6  and  C_7
REMARK    5  A    between atoms: C_10  and  N_11
REMARK                            x       y       z     vdW  Elec       q    Type
REMARK                         _______ _______ _______ _____ _____    ______ ____
ROOT
ATOM      1  C   UNL     1       0.605  11.458  19.077  0.00  0.00    +0.000 C 
ATOM      2  S   UNL     1       1.986  12.295  18.661  0.00  0.00    +0.000 S 
ENDROOT
BRANCH   1   5
ATOM      3  O   UNL     1      -1.256   9.962  17.370  0.00  0.00    +0.000 OA
ATOM      4  C   UNL     1      -1.574  10.961  18.003  0.00  0.00    +0.000 C 
ATOM      5  N   UNL     1      -0.701  11.751  18.723  0.00  0.00    +0.000 N 
ATOM      6  H   UNL     1      -1.048  12.613  19.111  0.00  0.00    +0.000 HD
BRANCH   4   7
ATOM      7  C   UNL     1      -2.978  11.430  17.887  0.00  0.00    +0.000 A 
ATOM      8  C   UNL     1      -3.784  11.243  16.755  0.00  0.00    +0.000 A 
ATOM      9  C   UNL     1      -5.159  11.503  16.841  0.00  0.00    +0.000 A 
ATOM     10  C   UNL     1      -5.719  11.937  18.047  0.00  0.00    +0.000 A 
ATOM     11  C   UNL     1      -4.892  12.200  19.136  0.00  0.00    +0.000 A 
ATOM     12  C   UNL     1      -3.531  11.954  19.060  0.00  0.00    +0.000 A 
ATOM     13  O   UNL     1      -5.365  12.661  20.333  0.00  0.00    +0.000 OA
ATOM     14  C   UNL     1      -6.655  12.104  20.561  0.00  0.00    +0.000 C 
ATOM     15  C   UNL     1      -7.595  12.387  19.396  0.00  0.00    +0.000 C 
ATOM     16  O   UNL     1      -7.082  12.020  18.106  0.00  0.00    +0.000 OA
ENDBRANCH   4   7
ENDBRANCH   1   5
BRANCH   1  17
ATOM     17  N   UNL     1       0.738  10.287  19.788  0.00  0.00    +0.000 N 
ATOM     18  H   UNL     1       0.074  10.160  20.545  0.00  0.00    +0.000 HD
BRANCH  17  19
ATOM     19  C   UNL     1       1.465   9.147  19.393  0.00  0.00    +0.000 A 
ATOM     20  C   UNL     1       1.610   8.111  20.306  0.00  0.00    +0.000 A 
ATOM     21  C   UNL     1       2.315   6.956  19.946  0.00  0.00    +0.000 A 
ATOM     22  C   UNL     1       2.859   6.793  18.664  0.00  0.00    +0.000 A 
ATOM     23  C   UNL     1       2.682   7.844  17.755  0.00  0.00    +0.000 A 
ATOM     24  C   UNL     1       1.991   9.004  18.109  0.00  0.00    +0.000 A 
BRANCH  22  25
ATOM     25  N   UNL     1       3.490   5.635  18.257  0.00  0.00    +0.000 N 
ATOM     26  C   UNL     1       2.952   4.301  18.556  0.00  0.00    +0.000 C 
ATOM     27  C   UNL     1       3.807   3.597  19.615  0.00  0.00    +0.000 C 
ATOM     28  O   UNL     1       5.191   3.550  19.228  0.00  0.00    +0.000 OA
ATOM     29  C   UNL     1       5.703   4.882  19.051  0.00  0.00    +0.000 C 
ATOM     30  C   UNL     1       4.934   5.652  17.963  0.00  0.00    +0.000 C 
ENDBRANCH  22  25
ENDBRANCH  17  19
ENDBRANCH   1  17
TORSDOF 5
ENDMDL
MODEL 8
REMARK VINA RESULT:      -7.7      1.850      2.456
REMARK  Name = 
REMARK  5 active torsions:
REMARK  status: ('A' for Active; 'I' for Inactive)
REMARK    1  A    between atoms: C_2  and  C_19
REMARK    2  A    between atoms: N_3  and  C_4
REMARK    3  A    between atoms: C_4  and  N_6
REMARK    4  A    between atoms: N_6  and  C_7
REMARK    5  A    between atoms: C_10  and  N_11
REMARK                            x       y       z     vdW  Elec       q    Type
REMARK                         _______ _______ _______ _____ _____    ______ ____
ROOT
ATOM      1  C   UNL     1       0.959   9.912  19.281  0.00  0.00    +0.000 C 
ATOM      2  S   UNL     1       1.159  10.926  20.590  0.00  0.00    +0.000 S 
ENDROOT
BRANCH   1   5
ATOM      3  O   UNL     1       2.579   8.723  17.142  0.00  0.00    +0.000 OA
ATOM      4  C   UNL     1       2.270   8.126  18.166  0.00  0.00    +0.000 C 
ATOM      5  N   UNL     1       1.420   8.614  19.138  0.00  0.00    +0.000 N 
ATOM      6  H   UNL     1       1.143   7.995  19.882  0.00  0.00    +0.000 HD
BRANCH   4   7
ATOM      7  C   UNL     1       2.745   6.727  18.317  0.00  0.00    +0.000 A 
ATOM      8  C   UNL     1       3.917   6.358  18.992  0.00  0.00    +0.000 A 
ATOM      9  C   UNL     1       4.141   5.005  19.286  0.00  0.00    +0.000 A 
ATOM     10  C   UNL     1       3.201   4.039  18.916  0.00  0.00    +0.000 A 
ATOM     11  C   UNL     1       2.084   4.412  18.172  0.00  0.00    +0.000 A 
ATOM     12  C   UNL     1       1.856   5.744  17.869  0.00  0.00    +0.000 A 
ATOM     13  O   UNL     1       1.143   3.518  17.745  0.00  0.00    +0.000 OA
ATOM     14  C   UNL     1       1.012   2.489  18.720  0.00  0.00    +0.000 C 
ATOM     15  C   UNL     1       2.358   1.844  19.029  0.00  0.00    +0.000 C 
ATOM     16  O   UNL     1       3.404   2.767  19.370  0.00  0.00    +0.000 OA
ENDBRANCH   4   7
ENDBRANCH   1   5
BRANCH   1  17
ATOM     17  N   UNL     1       0.186  10.345  18.228  0.00  0.00    +0.000 N 
ATOM     18  H   UNL     1       0.550  10.133  17.305  0.00  0.00    +0.000 HD
BRANCH  17  19
ATOM     19  C   UNL     1      -1.159  10.757  18.293  0.00  0.00    +0.000 A 
ATOM     20  C   UNL     1      -2.124   9.948  17.708  0.00  0.00    +0.000 A 
ATOM     21  C   UNL     1      -3.473  10.319  17.763  0.00  0.00    +0.000 A 
ATOM     22  C   UNL     1      -3.894  11.478  18.429  0.00  0.00    +0.000 A 
ATOM     23  C   UNL     1      -2.904  12.267  19.029  0.00  0.00    +0.000 A 
ATOM     24  C   UNL     1      -1.555  11.912  18.968  0.00  0.00    +0.000 A 
BRANCH  22  25
ATOM     25  N   UNL     1      -5.222  11.827  18.567  0.00  0.00    +0.000 N 
ATOM     26  C   UNL     1      -5.671  12.842  19.530  0.00  0.00    +0.000 C 
ATOM     27  C   UNL     1      -6.417  12.189  20.698  0.00  0.00    +0.000 C 
ATOM     28  O   UNL     1      -7.499  11.363  20.235  0.00  0.00    +0.000 OA
ATOM     29  C   UNL     1      -6.998  10.320  19.383  0.00  0.00    +0.000 C 
ATOM     30  C   UNL     1      -6.275  10.885  18.148  0.00  0.00    +0.000 C 
ENDBRANCH  22  25
ENDBRANCH  17  19
ENDBRANCH   1  17
TORSDOF 5
ENDMDL
MODEL 9
REMARK VINA RESULT:      -7.7      2.771      4.110
REMARK  Name = 
REMARK  5 active torsions:
REMARK  status: ('A' for Active; 'I' for Inactive)
REMARK    1  A    between atoms: C_2  and  C_19
REMARK    2  A    between atoms: N_3  and  C_4
REMARK    3  A    between atoms: C_4  and  N_6
REMARK    4  A    between atoms: N_6  and  C_7
REMARK    5  A    between atoms: C_10  and  N_11
REMARK                            x       y       z     vdW  Elec       q    Type
REMARK                         _______ _______ _______ _____ _____    ______ ____
ROOT
ATOM      1  C   UNL     1       2.257   5.845  20.166  0.00  0.00    +0.000 C 
ATOM      2  S   UNL     1       1.254   4.528  20.368  0.00  0.00    +0.000 S 
ENDROOT
BRANCH   1   5
ATOM      3  O   UNL     1       4.630   4.180  19.708  0.00  0.00    +0.000 OA
ATOM      4  C   UNL     1       4.322   5.127  18.995  0.00  0.00    +0.000 C 
ATOM      5  N   UNL     1       3.280   5.996  19.245  0.00  0.00    +0.000 N 
ATOM      6  H   UNL     1       3.186   6.808  18.656  0.00  0.00    +0.000 HD
BRANCH   4   7
ATOM      7  C   UNL     1       5.208   5.438  17.845  0.00  0.00    +0.000 A 
ATOM      8  C   UNL     1       6.488   5.998  17.962  0.00  0.00    +0.000 A 
ATOM      9  C   UNL     1       7.331   6.023  16.841  0.00  0.00    +0.000 A 
ATOM     10  C   UNL     1       6.899   5.486  15.624  0.00  0.00    +0.000 A 
ATOM     11  C   UNL     1       5.595   5.012  15.503  0.00  0.00    +0.000 A 
ATOM     12  C   UNL     1       4.751   4.990  16.601  0.00  0.00    +0.000 A 
ATOM     13  O   UNL     1       5.093   4.508  14.336  0.00  0.00    +0.000 OA
ATOM     14  C   UNL     1       6.139   3.843  13.637  0.00  0.00    +0.000 C 
ATOM     15  C   UNL     1       7.337   4.760  13.428  0.00  0.00    +0.000 C 
ATOM     16  O   UNL     1       7.821   5.399  14.620  0.00  0.00    +0.000 OA
ENDBRANCH   4   7
ENDBRANCH   1   5
BRANCH   1  17
ATOM     17  N   UNL     1       2.027   6.967  20.929  0.00  0.00    +0.000 N 
ATOM     18  H   UNL     1       2.607   7.055  21.758  0.00  0.00    +0.000 HD
BRANCH  17  19
ATOM     19  C   UNL     1       1.322   8.118  20.530  0.00  0.00    +0.000 A 
ATOM     20  C   UNL     1       1.559   8.630  19.262  0.00  0.00    +0.000 A 
ATOM     21  C   UNL     1       0.867   9.766  18.826  0.00  0.00    +0.000 A 
ATOM     22  C   UNL     1      -0.098  10.395  19.625  0.00  0.00    +0.000 A 
ATOM     23  C   UNL     1      -0.334   9.848  20.893  0.00  0.00    +0.000 A 
ATOM     24  C   UNL     1       0.361   8.723  21.341  0.00  0.00    +0.000 A 
BRANCH  22  25
ATOM     25  N   UNL     1      -0.850  11.468  19.193  0.00  0.00    +0.000 N 
ATOM     26  C   UNL     1      -1.299  12.530  20.105  0.00  0.00    +0.000 C 
ATOM     27  C   UNL     1      -2.808  12.431  20.351  0.00  0.00    +0.000 C 
ATOM     28  O   UNL     1      -3.543  12.430  19.116  0.00  0.00    +0.000 OA
ATOM     29  C   UNL     1      -3.148  11.311  18.303  0.00  0.00    +0.000 C 
ATOM     30  C   UNL     1      -1.648  11.355  17.960  0.00  0.00    +0.000 C 
ENDBRANCH  22  25
ENDBRANCH  17  19
ENDBRANCH   1  17
TORSDOF 5
ENDMDL
