MODEL 1
REMARK VINA RESULT:      -6.4      0.000      0.000
REMARK  Name = 
REMARK  19 active torsions:
REMARK  status: ('A' for Active; 'I' for Inactive)
REMARK    1  A    between atoms: C_1  and  C_2
REMARK    2  A    between atoms: C_3  and  C_4
REMARK    3  A    between atoms: C_4  and  C_5
REMARK    4  A    between atoms: C_5  and  O_6
REMARK    5  A    between atoms: N_9  and  C_10
REMARK    6  A    between atoms: C_10  and  C_11
REMARK    7  A    between atoms: C_11  and  C_12
REMARK    8  A    between atoms: C_12  and  C_13
REMARK    9  A    between atoms: C_13  and  C_14
REMARK   10  A    between atoms: C_14  and  C_15
REMARK   11  A    between atoms: C_15  and  C_16
REMARK   12  A    between atoms: C_16  and  C_17
REMARK   13  A    between atoms: C_17  and  C_18
REMARK   14  A    between atoms: C_18  and  C_19
REMARK   15  A    between atoms: C_19  and  C_20
REMARK   16  A    between atoms: C_20  and  O_21
REMARK   17  A    between atoms: O_21  and  C_22
REMARK   18  A    between atoms: C_25  and  C_26
REMARK   19  A    between atoms: N_28  and  O_29
REMARK                            x       y       z     vdW  Elec       q    Type
REMARK                         _______ _______ _______ _____ _____    ______ ____
ROOT
ATOM      1  C   UNL     1       1.135   5.477  20.061  0.00  0.00    +0.000 C 
ENDROOT
BRANCH   1   2
ATOM      2  C   UNL     1       1.536   4.172  20.751  0.00  0.00    +0.000 C 
BRANCH   2   3
ATOM      3  C   UNL     1       1.002   2.931  20.036  0.00  0.00    +0.000 C 
BRANCH   3   4
ATOM      4  C   UNL     1       2.121   2.087  19.438  0.00  0.00    +0.000 C 
BRANCH   4   5
ATOM      5  O   UNL     1       3.378   2.576  19.899  0.00  0.00    +0.000 OA
BRANCH   5   6
ATOM      6  C   UNL     1       4.112   3.247  18.955  0.00  0.00    +0.000 A 
ATOM      7  C   UNL     1       3.606   3.189  17.657  0.00  0.00    +0.000 A 
ATOM      8  C   UNL     1       4.281   3.824  16.607  0.00  0.00    +0.000 A 
ATOM      9  C   UNL     1       5.454   4.551  16.854  0.00  0.00    +0.000 A 
ATOM     10  C   UNL     1       5.941   4.626  18.162  0.00  0.00    +0.000 A 
ATOM     11  C   UNL     1       5.276   3.977  19.203  0.00  0.00    +0.000 A 
BRANCH   9  12
ATOM     12  C   UNL     1       6.208   5.245  15.758  0.00  0.00    +0.000 C 
ATOM     13  N   UNL     1       5.702   6.355  15.136  0.00  0.00    +0.000 N 
ATOM     14  N   UNL     1       7.373   4.781  15.389  0.00  0.00    +0.000 NA
ATOM     15  H   UNL     1       5.292   7.060  15.733  0.00  0.00    +0.000 HD
ATOM     16  H   UNL     1       6.422   6.752  14.537  0.00  0.00    +0.000 HD
BRANCH  14  17
ATOM     17  O   UNL     1       7.894   5.604  14.377  0.00  0.00    +0.000 OA
ATOM     18  H   UNL     1       7.190   6.270  14.274  0.00  0.00    +0.000 HD
ENDBRANCH  14  17
ENDBRANCH   9  12
ENDBRANCH   5   6
ENDBRANCH   4   5
ENDBRANCH   3   4
ENDBRANCH   2   3
ENDBRANCH   1   2
BRANCH   1  19
ATOM     19  C   UNL     1       2.303   6.452  20.007  0.00  0.00    +0.000 C 
BRANCH  19  20
ATOM     20  C   UNL     1       2.780   6.644  18.569  0.00  0.00    +0.000 C 
BRANCH  20  21
ATOM     21  C   UNL     1       2.037   7.800  17.904  0.00  0.00    +0.000 C 
BRANCH  21  22
ATOM     22  C   UNL     1       1.756   8.902  18.917  0.00  0.00    +0.000 C 
BRANCH  22  23
ATOM     23  C   UNL     1       0.652   9.851  18.449  0.00  0.00    +0.000 C 
BRANCH  23  24
ATOM     24  C   UNL     1       0.937  11.258  18.968  0.00  0.00    +0.000 C 
BRANCH  24  25
ATOM     25  C   UNL     1      -0.260  12.197  18.840  0.00  0.00    +0.000 C 
BRANCH  25  31
ATOM     26  C   UNL     1      -3.215  12.173  19.286  0.00  0.00    +0.000 C 
ATOM     27  C   UNL     1      -2.264  12.399  20.403  0.00  0.00    +0.000 A 
ATOM     28  C   UNL     1      -2.543  12.596  21.747  0.00  0.00    +0.000 A 
ATOM     29  S   UNL     1      -1.074  12.765  22.630  0.00  0.00    +0.000 S 
ATOM     30  C   UNL     1      -0.134  12.607  21.220  0.00  0.00    +0.000 A 
ATOM     31  N   UNL     1      -0.892  12.412  20.153  0.00  0.00    +0.000 N 
BRANCH  28  32
ATOM     32  C   UNL     1      -3.858  12.652  22.485  0.00  0.00    +0.000 C 
BRANCH  32  33
ATOM     33  C   UNL     1      -3.688  12.652  24.005  0.00  0.00    +0.000 C 
BRANCH  33  34
ATOM     34  O   UNL     1      -4.888  13.043  24.659  0.00  0.00    +0.000 OA
ATOM     35  H   UNL     1      -4.671  13.754  25.290  0.00  0.00    +0.000 HD
ENDBRANCH  33  34
ENDBRANCH  32  33
ENDBRANCH  28  32
ENDBRANCH  25  31
ENDBRANCH  24  25
ENDBRANCH  23  24
ENDBRANCH  22  23
ENDBRANCH  21  22
ENDBRANCH  20  21
ENDBRANCH  19  20
ENDBRANCH   1  19
TORSDOF 18
ENDMDL
MODEL 2
REMARK VINA RESULT:      -6.2      1.364      1.991
REMARK  Name = 
REMARK  19 active torsions:
REMARK  status: ('A' for Active; 'I' for Inactive)
REMARK    1  A    between atoms: C_1  and  C_2
REMARK    2  A    between atoms: C_3  and  C_4
REMARK    3  A    between atoms: C_4  and  C_5
REMARK    4  A    between atoms: C_5  and  O_6
REMARK    5  A    between atoms: N_9  and  C_10
REMARK    6  A    between atoms: C_10  and  C_11
REMARK    7  A    between atoms: C_11  and  C_12
REMARK    8  A    between atoms: C_12  and  C_13
REMARK    9  A    between atoms: C_13  and  C_14
REMARK   10  A    between atoms: C_14  and  C_15
REMARK   11  A    between atoms: C_15  and  C_16
REMARK   12  A    between atoms: C_16  and  C_17
REMARK   13  A    between atoms: C_17  and  C_18
REMARK   14  A    between atoms: C_18  and  C_19
REMARK   15  A    between atoms: C_19  and  C_20
REMARK   16  A    between atoms: C_20  and  O_21
REMARK   17  A    between atoms: O_21  and  C_22
REMARK   18  A    between atoms: C_25  and  C_26
REMARK   19  A    between atoms: N_28  and  O_29
REMARK                            x       y       z     vdW  Elec       q    Type
REMARK                         _______ _______ _______ _____ _____    ______ ____
ROOT
ATOM      1  C   UNL     1       2.569   6.465  19.797  0.00  0.00    +0.000 C 
ENDROOT
BRANCH   1   2
ATOM      2  C   UNL     1       1.619   5.668  20.693  0.00  0.00    +0.000 C 
BRANCH   2   3
ATOM      3  C   UNL     1       1.117   4.383  20.034  0.00  0.00    +0.000 C 
BRANCH   3   4
ATOM      4  C   UNL     1       1.608   3.136  20.761  0.00  0.00    +0.000 C 
BRANCH   4   5
ATOM      5  O   UNL     1       2.199   2.244  19.819  0.00  0.00    +0.000 OA
BRANCH   5   6
ATOM      6  C   UNL     1       3.111   2.825  18.976  0.00  0.00    +0.000 A 
ATOM      7  C   UNL     1       4.242   3.354  19.597  0.00  0.00    +0.000 A 
ATOM      8  C   UNL     1       5.233   3.986  18.837  0.00  0.00    +0.000 A 
ATOM      9  C   UNL     1       5.117   4.066  17.442  0.00  0.00    +0.000 A 
ATOM     10  C   UNL     1       3.993   3.510  16.825  0.00  0.00    +0.000 A 
ATOM     11  C   UNL     1       2.997   2.896  17.586  0.00  0.00    +0.000 A 
BRANCH   9  12
ATOM     12  C   UNL     1       6.156   4.735  16.591  0.00  0.00    +0.000 C 
ATOM     13  N   UNL     1       6.585   4.177  15.417  0.00  0.00    +0.000 N 
ATOM     14  N   UNL     1       6.664   5.876  16.980  0.00  0.00    +0.000 NA
ATOM     15  H   UNL     1       5.871   3.803  14.807  0.00  0.00    +0.000 HD
ATOM     16  H   UNL     1       7.172   4.849  14.929  0.00  0.00    +0.000 HD
BRANCH  14  17
ATOM     17  O   UNL     1       7.587   6.316  16.018  0.00  0.00    +0.000 OA
ATOM     18  H   UNL     1       7.222   5.938  15.197  0.00  0.00    +0.000 HD
ENDBRANCH  14  17
ENDBRANCH   9  12
ENDBRANCH   5   6
ENDBRANCH   4   5
ENDBRANCH   3   4
ENDBRANCH   2   3
ENDBRANCH   1   2
BRANCH   1  19
ATOM     19  C   UNL     1       2.214   6.292  18.327  0.00  0.00    +0.000 C 
BRANCH  19  20
ATOM     20  C   UNL     1       2.532   7.563  17.542  0.00  0.00    +0.000 C 
BRANCH  20  21
ATOM     21  C   UNL     1       2.131   8.802  18.337  0.00  0.00    +0.000 C 
BRANCH  21  22
ATOM     22  C   UNL     1       0.800   9.346  17.836  0.00  0.00    +0.000 C 
BRANCH  22  23
ATOM     23  C   UNL     1      -0.098   9.823  18.978  0.00  0.00    +0.000 C 
BRANCH  23  24
ATOM     24  C   UNL     1       0.618   9.609  20.310  0.00  0.00    +0.000 C 
BRANCH  24  25
ATOM     25  C   UNL     1       0.949  10.914  21.029  0.00  0.00    +0.000 C 
BRANCH  25  31
ATOM     26  C   UNL     1      -1.020  10.483  23.236  0.00  0.00    +0.000 C 
ATOM     27  C   UNL     1      -1.203  11.562  22.234  0.00  0.00    +0.000 A 
ATOM     28  C   UNL     1      -2.216  12.506  22.158  0.00  0.00    +0.000 A 
ATOM     29  S   UNL     1      -1.931  13.562  20.827  0.00  0.00    +0.000 S 
ATOM     30  C   UNL     1      -0.516  12.726  20.384  0.00  0.00    +0.000 A 
ATOM     31  N   UNL     1      -0.266  11.726  21.213  0.00  0.00    +0.000 N 
BRANCH  28  32
ATOM     32  C   UNL     1      -3.425  12.730  23.032  0.00  0.00    +0.000 C 
BRANCH  32  33
ATOM     33  C   UNL     1      -3.464  14.130  23.647  0.00  0.00    +0.000 C 
BRANCH  33  34
ATOM     34  O   UNL     1      -2.344  14.353  24.492  0.00  0.00    +0.000 OA
ATOM     35  H   UNL     1      -2.318  15.302  24.719  0.00  0.00    +0.000 HD
ENDBRANCH  33  34
ENDBRANCH  32  33
ENDBRANCH  28  32
ENDBRANCH  25  31
ENDBRANCH  24  25
ENDBRANCH  23  24
ENDBRANCH  22  23
ENDBRANCH  21  22
ENDBRANCH  20  21
ENDBRANCH  19  20
ENDBRANCH   1  19
TORSDOF 18
ENDMDL
MODEL 3
REMARK VINA RESULT:      -6.2      1.428      1.687
REMARK  Name = 
REMARK  19 active torsions:
REMARK  status: ('A' for Active; 'I' for Inactive)
REMARK    1  A    between atoms: C_1  and  C_2
REMARK    2  A    between atoms: C_3  and  C_4
REMARK    3  A    between atoms: C_4  and  C_5
REMARK    4  A    between atoms: C_5  and  O_6
REMARK    5  A    between atoms: N_9  and  C_10
REMARK    6  A    between atoms: C_10  and  C_11
REMARK    7  A    between atoms: C_11  and  C_12
REMARK    8  A    between atoms: C_12  and  C_13
REMARK    9  A    between atoms: C_13  and  C_14
REMARK   10  A    between atoms: C_14  and  C_15
REMARK   11  A    between atoms: C_15  and  C_16
REMARK   12  A    between atoms: C_16  and  C_17
REMARK   13  A    between atoms: C_17  and  C_18
REMARK   14  A    between atoms: C_18  and  C_19
REMARK   15  A    between atoms: C_19  and  C_20
REMARK   16  A    between atoms: C_20  and  O_21
REMARK   17  A    between atoms: O_21  and  C_22
REMARK   18  A    between atoms: C_25  and  C_26
REMARK   19  A    between atoms: N_28  and  O_29
REMARK                            x       y       z     vdW  Elec       q    Type
REMARK                         _______ _______ _______ _____ _____    ______ ____
ROOT
ATOM      1  C   UNL     1       1.325   4.412  18.512  0.00  0.00    +0.000 C 
ENDROOT
BRANCH   1   2
ATOM      2  C   UNL     1       1.226   4.238  20.029  0.00  0.00    +0.000 C 
BRANCH   2   3
ATOM      3  C   UNL     1       1.375   2.783  20.473  0.00  0.00    +0.000 C 
BRANCH   3   4
ATOM      4  C   UNL     1       2.803   2.453  20.890  0.00  0.00    +0.000 C 
BRANCH   4   5
ATOM      5  O   UNL     1       3.539   2.018  19.748  0.00  0.00    +0.000 OA
BRANCH   5   6
ATOM      6  C   UNL     1       4.279   2.997  19.138  0.00  0.00    +0.000 A 
ATOM      7  C   UNL     1       4.294   2.950  17.744  0.00  0.00    +0.000 A 
ATOM      8  C   UNL     1       5.030   3.891  17.014  0.00  0.00    +0.000 A 
ATOM      9  C   UNL     1       5.734   4.909  17.673  0.00  0.00    +0.000 A 
ATOM     10  C   UNL     1       5.693   4.966  19.069  0.00  0.00    +0.000 A 
ATOM     11  C   UNL     1       4.973   4.016  19.795  0.00  0.00    +0.000 A 
BRANCH   9  12
ATOM     12  C   UNL     1       6.535   5.937  16.929  0.00  0.00    +0.000 C 
ATOM     13  N   UNL     1       6.373   6.132  15.583  0.00  0.00    +0.000 N 
ATOM     14  N   UNL     1       7.408   6.662  17.579  0.00  0.00    +0.000 NA
ATOM     15  H   UNL     1       5.421   6.167  15.244  0.00  0.00    +0.000 HD
ATOM     16  H   UNL     1       6.894   6.960  15.307  0.00  0.00    +0.000 HD
BRANCH  14  17
ATOM     17  O   UNL     1       8.009   7.563  16.686  0.00  0.00    +0.000 OA
ATOM     18  H   UNL     1       7.822   7.150  15.823  0.00  0.00    +0.000 HD
ENDBRANCH  14  17
ENDBRANCH   9  12
ENDBRANCH   5   6
ENDBRANCH   4   5
ENDBRANCH   3   4
ENDBRANCH   2   3
ENDBRANCH   1   2
BRANCH   1  19
ATOM     19  C   UNL     1       1.805   5.811  18.148  0.00  0.00    +0.000 C 
BRANCH  19  20
ATOM     20  C   UNL     1       2.434   6.497  19.358  0.00  0.00    +0.000 C 
BRANCH  20  21
ATOM     21  C   UNL     1       2.096   7.985  19.371  0.00  0.00    +0.000 C 
BRANCH  21  22
ATOM     22  C   UNL     1       2.079   8.537  17.951  0.00  0.00    +0.000 C 
BRANCH  22  23
ATOM     23  C   UNL     1       1.866  10.051  17.921  0.00  0.00    +0.000 C 
BRANCH  23  24
ATOM     24  C   UNL     1       0.789  10.433  18.933  0.00  0.00    +0.000 C 
BRANCH  24  25
ATOM     25  C   UNL     1       1.281  11.420  19.988  0.00  0.00    +0.000 C 
BRANCH  25  31
ATOM     26  C   UNL     1      -0.249  13.852  20.810  0.00  0.00    +0.000 C 
ATOM     27  C   UNL     1      -0.382  12.569  21.542  0.00  0.00    +0.000 A 
ATOM     28  C   UNL     1      -1.191  12.276  22.630  0.00  0.00    +0.000 A 
ATOM     29  S   UNL     1      -1.001  10.622  23.071  0.00  0.00    +0.000 S 
ATOM     30  C   UNL     1       0.151  10.362  21.845  0.00  0.00    +0.000 A 
ATOM     31  N   UNL     1       0.356  11.458  21.134  0.00  0.00    +0.000 N 
BRANCH  28  32
ATOM     32  C   UNL     1      -2.157  13.140  23.403  0.00  0.00    +0.000 C 
BRANCH  32  33
ATOM     33  C   UNL     1      -3.618  12.749  23.176  0.00  0.00    +0.000 C 
BRANCH  33  34
ATOM     34  O   UNL     1      -4.134  12.015  24.279  0.00  0.00    +0.000 OA
ATOM     35  H   UNL     1      -4.999  12.396  24.519  0.00  0.00    +0.000 HD
ENDBRANCH  33  34
ENDBRANCH  32  33
ENDBRANCH  28  32
ENDBRANCH  25  31
ENDBRANCH  24  25
ENDBRANCH  23  24
ENDBRANCH  22  23
ENDBRANCH  21  22
ENDBRANCH  20  21
ENDBRANCH  19  20
ENDBRANCH   1  19
TORSDOF 18
ENDMDL
MODEL 4
REMARK VINA RESULT:      -6.2      6.251      8.429
REMARK  Name = 
REMARK  19 active torsions:
REMARK  status: ('A' for Active; 'I' for Inactive)
REMARK    1  A    between atoms: C_1  and  C_2
REMARK    2  A    between atoms: C_3  and  C_4
REMARK    3  A    between atoms: C_4  and  C_5
REMARK    4  A    between atoms: C_5  and  O_6
REMARK    5  A    between atoms: N_9  and  C_10
REMARK    6  A    between atoms: C_10  and  C_11
REMARK    7  A    between atoms: C_11  and  C_12
REMARK    8  A    between atoms: C_12  and  C_13
REMARK    9  A    between atoms: C_13  and  C_14
REMARK   10  A    between atoms: C_14  and  C_15
REMARK   11  A    between atoms: C_15  and  C_16
REMARK   12  A    between atoms: C_16  and  C_17
REMARK   13  A    between atoms: C_17  and  C_18
REMARK   14  A    between atoms: C_18  and  C_19
REMARK   15  A    between atoms: C_19  and  C_20
REMARK   16  A    between atoms: C_20  and  O_21
REMARK   17  A    between atoms: O_21  and  C_22
REMARK   18  A    between atoms: C_25  and  C_26
REMARK   19  A    between atoms: N_28  and  O_29
REMARK                            x       y       z     vdW  Elec       q    Type
REMARK                         _______ _______ _______ _____ _____    ______ ____
ROOT
ATOM      1  C   UNL     1       7.433   7.468  17.739  0.00  0.00    +0.000 C 
ENDROOT
BRANCH   1   2
ATOM      2  C   UNL     1       7.480   5.964  18.010  0.00  0.00    +0.000 C 
BRANCH   2   3
ATOM      3  C   UNL     1       7.023   5.128  16.814  0.00  0.00    +0.000 C 
BRANCH   3   4
ATOM      4  C   UNL     1       5.787   4.296  17.134  0.00  0.00    +0.000 C 
BRANCH   4   5
ATOM      5  O   UNL     1       4.638   4.923  16.570  0.00  0.00    +0.000 OA
BRANCH   5   6
ATOM      6  C   UNL     1       3.902   5.668  17.454  0.00  0.00    +0.000 A 
ATOM      7  C   UNL     1       3.779   7.020  17.135  0.00  0.00    +0.000 A 
ATOM      8  C   UNL     1       3.063   7.881  17.975  0.00  0.00    +0.000 A 
ATOM      9  C   UNL     1       2.435   7.390  19.129  0.00  0.00    +0.000 A 
ATOM     10  C   UNL     1       2.541   6.029  19.428  0.00  0.00    +0.000 A 
ATOM     11  C   UNL     1       3.270   5.176  18.599  0.00  0.00    +0.000 A 
BRANCH   9  12
ATOM     12  C   UNL     1       1.659   8.278  20.055  0.00  0.00    +0.000 C 
ATOM     13  N   UNL     1       1.564   8.005  21.394  0.00  0.00    +0.000 N 
ATOM     14  N   UNL     1       1.060   9.337  19.575  0.00  0.00    +0.000 NA
ATOM     15  H   UNL     1       2.417   7.731  21.860  0.00  0.00    +0.000 HD
ATOM     16  H   UNL     1       1.126   8.797  21.860  0.00  0.00    +0.000 HD
BRANCH  14  17
ATOM     17  O   UNL     1       0.426  10.020  20.625  0.00  0.00    +0.000 OA
ATOM     18  H   UNL     1      -0.041  10.733  20.153  0.00  0.00    +0.000 HD
ENDBRANCH  14  17
ENDBRANCH   9  12
ENDBRANCH   5   6
ENDBRANCH   4   5
ENDBRANCH   3   4
ENDBRANCH   2   3
ENDBRANCH   1   2
BRANCH   1  19
ATOM     19  C   UNL     1       8.485   8.208  18.555  0.00  0.00    +0.000 C 
BRANCH  19  20
ATOM     20  C   UNL     1       8.588   9.665  18.110  0.00  0.00    +0.000 C 
BRANCH  20  21
ATOM     21  C   UNL     1       8.953  10.564  19.288  0.00  0.00    +0.000 C 
BRANCH  21  22
ATOM     22  C   UNL     1      10.422  10.960  19.218  0.00  0.00    +0.000 C 
BRANCH  22  23
ATOM     23  C   UNL     1      10.779  11.624  17.887  0.00  0.00    +0.000 C 
BRANCH  23  24
ATOM     24  C   UNL     1      11.287  13.040  18.145  0.00  0.00    +0.000 C 
BRANCH  24  25
ATOM     25  C   UNL     1      10.539  14.100  17.341  0.00  0.00    +0.000 C 
BRANCH  25  31
ATOM     26  C   UNL     1       7.669  13.269  17.288  0.00  0.00    +0.000 C 
ATOM     27  C   UNL     1       8.143  14.362  18.172  0.00  0.00    +0.000 A 
ATOM     28  C   UNL     1       7.413  15.116  19.079  0.00  0.00    +0.000 A 
ATOM     29  S   UNL     1       8.453  16.227  19.886  0.00  0.00    +0.000 S 
ATOM     30  C   UNL     1       9.807  15.702  18.998  0.00  0.00    +0.000 A 
ATOM     31  N   UNL     1       9.489  14.728  18.162  0.00  0.00    +0.000 N 
BRANCH  28  32
ATOM     32  C   UNL     1       5.949  15.079  19.441  0.00  0.00    +0.000 C 
BRANCH  32  33
ATOM     33  C   UNL     1       5.057  15.734  18.384  0.00  0.00    +0.000 C 
BRANCH  33  34
ATOM     34  O   UNL     1       4.493  14.764  17.512  0.00  0.00    +0.000 OA
ATOM     35  H   UNL     1       4.838  14.927  16.614  0.00  0.00    +0.000 HD
ENDBRANCH  33  34
ENDBRANCH  32  33
ENDBRANCH  28  32
ENDBRANCH  25  31
ENDBRANCH  24  25
ENDBRANCH  23  24
ENDBRANCH  22  23
ENDBRANCH  21  22
ENDBRANCH  20  21
ENDBRANCH  19  20
ENDBRANCH   1  19
TORSDOF 18
ENDMDL
MODEL 5
REMARK VINA RESULT:      -6.1      6.909     10.156
REMARK  Name = 
REMARK  19 active torsions:
REMARK  status: ('A' for Active; 'I' for Inactive)
REMARK    1  A    between atoms: C_1  and  C_2
REMARK    2  A    between atoms: C_3  and  C_4
REMARK    3  A    between atoms: C_4  and  C_5
REMARK    4  A    between atoms: C_5  and  O_6
REMARK    5  A    between atoms: N_9  and  C_10
REMARK    6  A    between atoms: C_10  and  C_11
REMARK    7  A    between atoms: C_11  and  C_12
REMARK    8  A    between atoms: C_12  and  C_13
REMARK    9  A    between atoms: C_13  and  C_14
REMARK   10  A    between atoms: C_14  and  C_15
REMARK   11  A    between atoms: C_15  and  C_16
REMARK   12  A    between atoms: C_16  and  C_17
REMARK   13  A    between atoms: C_17  and  C_18
REMARK   14  A    between atoms: C_18  and  C_19
REMARK   15  A    between atoms: C_19  and  C_20
REMARK   16  A    between atoms: C_20  and  O_21
REMARK   17  A    between atoms: O_21  and  C_22
REMARK   18  A    between atoms: C_25  and  C_26
REMARK   19  A    between atoms: N_28  and  O_29
REMARK                            x       y       z     vdW  Elec       q    Type
REMARK                         _______ _______ _______ _____ _____    ______ ____
ROOT
ATOM      1  C   UNL     1       6.558   5.753  18.126  0.00  0.00    +0.000 C 
ENDROOT
BRANCH   1   2
ATOM      2  C   UNL     1       5.088   5.927  17.743  0.00  0.00    +0.000 C 
BRANCH   2   3
ATOM      3  C   UNL     1       4.168   4.922  18.436  0.00  0.00    +0.000 C 
BRANCH   3   4
ATOM      4  C   UNL     1       2.795   5.512  18.738  0.00  0.00    +0.000 C 
BRANCH   4   5
ATOM      5  O   UNL     1       2.938   6.586  19.664  0.00  0.00    +0.000 OA
BRANCH   5   6
ATOM      6  C   UNL     1       2.213   7.708  19.355  0.00  0.00    +0.000 A 
ATOM      7  C   UNL     1       1.479   8.251  20.409  0.00  0.00    +0.000 A 
ATOM      8  C   UNL     1       0.688   9.388  20.206  0.00  0.00    +0.000 A 
ATOM      9  C   UNL     1       0.649  10.012  18.951  0.00  0.00    +0.000 A 
ATOM     10  C   UNL     1       1.408   9.477  17.906  0.00  0.00    +0.000 A 
ATOM     11  C   UNL     1       2.182   8.333  18.106  0.00  0.00    +0.000 A 
BRANCH   9  12
ATOM     12  C   UNL     1      -0.185  11.231  18.691  0.00  0.00    +0.000 C 
ATOM     13  N   UNL     1       0.374  12.398  18.244  0.00  0.00    +0.000 N 
ATOM     14  N   UNL     1      -1.476  11.179  18.895  0.00  0.00    +0.000 NA
ATOM     15  H   UNL     1       1.055  12.317  17.501  0.00  0.00    +0.000 HD
ATOM     16  H   UNL     1      -0.370  13.045  17.994  0.00  0.00    +0.000 HD
BRANCH  14  17
ATOM     17  O   UNL     1      -2.043  12.420  18.561  0.00  0.00    +0.000 OA
ATOM     18  H   UNL     1      -2.203  12.814  19.438  0.00  0.00    +0.000 HD
ENDBRANCH  14  17
ENDBRANCH   9  12
ENDBRANCH   5   6
ENDBRANCH   4   5
ENDBRANCH   3   4
ENDBRANCH   2   3
ENDBRANCH   1   2
BRANCH   1  19
ATOM     19  C   UNL     1       7.451   6.689  17.322  0.00  0.00    +0.000 C 
BRANCH  19  20
ATOM     20  C   UNL     1       8.123   7.711  18.235  0.00  0.00    +0.000 C 
BRANCH  20  21
ATOM     21  C   UNL     1       7.821   9.133  17.768  0.00  0.00    +0.000 C 
BRANCH  21  22
ATOM     22  C   UNL     1       8.924  10.083  18.216  0.00  0.00    +0.000 C 
BRANCH  22  23
ATOM     23  C   UNL     1       9.152  10.034  19.727  0.00  0.00    +0.000 C 
BRANCH  23  24
ATOM     24  C   UNL     1       9.552  11.420  20.227  0.00  0.00    +0.000 C 
BRANCH  24  25
ATOM     25  C   UNL     1      11.059  11.656  20.195  0.00  0.00    +0.000 C 
BRANCH  25  31
ATOM     26  C   UNL     1      10.735  14.610  20.512  0.00  0.00    +0.000 C 
ATOM     27  C   UNL     1      11.281  14.019  19.264  0.00  0.00    +0.000 A 
ATOM     28  C   UNL     1      11.729  14.671  18.125  0.00  0.00    +0.000 A 
ATOM     29  S   UNL     1      12.306  13.519  16.982  0.00  0.00    +0.000 S 
ATOM     30  C   UNL     1      11.919  12.215  18.005  0.00  0.00    +0.000 A 
ATOM     31  N   UNL     1      11.408  12.635  19.151  0.00  0.00    +0.000 N 
BRANCH  28  32
ATOM     32  C   UNL     1      11.795  16.141  17.790  0.00  0.00    +0.000 C 
BRANCH  32  33
ATOM     33  C   UNL     1      10.750  16.563  16.755  0.00  0.00    +0.000 C 
BRANCH  33  34
ATOM     34  O   UNL     1       9.468  16.038  17.073  0.00  0.00    +0.000 OA
ATOM     35  H   UNL     1       9.518  15.065  17.024  0.00  0.00    +0.000 HD
ENDBRANCH  33  34
ENDBRANCH  32  33
ENDBRANCH  28  32
ENDBRANCH  25  31
ENDBRANCH  24  25
ENDBRANCH  23  24
ENDBRANCH  22  23
ENDBRANCH  21  22
ENDBRANCH  20  21
ENDBRANCH  19  20
ENDBRANCH   1  19
TORSDOF 18
ENDMDL
MODEL 6
REMARK VINA RESULT:      -6.0      3.148     10.306
REMARK  Name = 
REMARK  19 active torsions:
REMARK  status: ('A' for Active; 'I' for Inactive)
REMARK    1  A    between atoms: C_1  and  C_2
REMARK    2  A    between atoms: C_3  and  C_4
REMARK    3  A    between atoms: C_4  and  C_5
REMARK    4  A    between atoms: C_5  and  O_6
REMARK    5  A    between atoms: N_9  and  C_10
REMARK    6  A    between atoms: C_10  and  C_11
REMARK    7  A    between atoms: C_11  and  C_12
REMARK    8  A    between atoms: C_12  and  C_13
REMARK    9  A    between atoms: C_13  and  C_14
REMARK   10  A    between atoms: C_14  and  C_15
REMARK   11  A    between atoms: C_15  and  C_16
REMARK   12  A    between atoms: C_16  and  C_17
REMARK   13  A    between atoms: C_17  and  C_18
REMARK   14  A    between atoms: C_18  and  C_19
REMARK   15  A    between atoms: C_19  and  C_20
REMARK   16  A    between atoms: C_20  and  O_21
REMARK   17  A    between atoms: O_21  and  C_22
REMARK   18  A    between atoms: C_25  and  C_26
REMARK   19  A    between atoms: N_28  and  O_29
REMARK                            x       y       z     vdW  Elec       q    Type
REMARK                         _______ _______ _______ _____ _____    ______ ____
ROOT
ATOM      1  C   UNL     1       1.875   6.544  19.958  0.00  0.00    +0.000 C 
ENDROOT
BRANCH   1   2
ATOM      2  C   UNL     1       2.567   6.796  18.618  0.00  0.00    +0.000 C 
BRANCH   2   3
ATOM      3  C   UNL     1       2.327   8.207  18.079  0.00  0.00    +0.000 C 
BRANCH   3   4
ATOM      4  C   UNL     1       1.395   9.013  18.976  0.00  0.00    +0.000 C 
BRANCH   4   5
ATOM      5  O   UNL     1       0.649   9.930  18.178  0.00  0.00    +0.000 OA
BRANCH   5   6
ATOM      6  C   UNL     1      -0.273  10.671  18.869  0.00  0.00    +0.000 A 
ATOM      7  C   UNL     1      -1.434  10.984  18.164  0.00  0.00    +0.000 A 
ATOM      8  C   UNL     1      -2.440  11.751  18.765  0.00  0.00    +0.000 A 
ATOM      9  C   UNL     1      -2.305  12.186  20.091  0.00  0.00    +0.000 A 
ATOM     10  C   UNL     1      -1.150  11.846  20.800  0.00  0.00    +0.000 A 
ATOM     11  C   UNL     1      -0.141  11.097  20.193  0.00  0.00    +0.000 A 
BRANCH   9  12
ATOM     12  C   UNL     1      -3.358  13.010  20.771  0.00  0.00    +0.000 C 
ATOM     13  N   UNL     1      -3.870  14.139  20.189  0.00  0.00    +0.000 N 
ATOM     14  N   UNL     1      -3.798  12.643  21.947  0.00  0.00    +0.000 NA
ATOM     15  H   UNL     1      -4.106  14.073  19.208  0.00  0.00    +0.000 HD
ATOM     16  H   UNL     1      -4.663  14.461  20.738  0.00  0.00    +0.000 HD
BRANCH  14  17
ATOM     17  O   UNL     1      -4.789  13.545  22.367  0.00  0.00    +0.000 OA
ATOM     18  H   UNL     1      -5.345  12.985  22.940  0.00  0.00    +0.000 HD
ENDBRANCH  14  17
ENDBRANCH   9  12
ENDBRANCH   5   6
ENDBRANCH   4   5
ENDBRANCH   3   4
ENDBRANCH   2   3
ENDBRANCH   1   2
BRANCH   1  19
ATOM     19  C   UNL     1       2.394   5.272  20.615  0.00  0.00    +0.000 C 
BRANCH  19  20
ATOM     20  C   UNL     1       1.335   4.173  20.575  0.00  0.00    +0.000 C 
BRANCH  20  21
ATOM     21  C   UNL     1       1.980   2.796  20.706  0.00  0.00    +0.000 C 
BRANCH  21  22
ATOM     22  C   UNL     1       1.702   1.960  19.463  0.00  0.00    +0.000 C 
BRANCH  22  23
ATOM     23  C   UNL     1       1.955   2.740  18.173  0.00  0.00    +0.000 C 
BRANCH  23  24
ATOM     24  C   UNL     1       3.450   2.737  17.862  0.00  0.00    +0.000 C 
BRANCH  24  25
ATOM     25  C   UNL     1       3.860   3.831  16.881  0.00  0.00    +0.000 C 
BRANCH  25  31
ATOM     26  C   UNL     1       5.363   5.873  15.298  0.00  0.00    +0.000 C 
ATOM     27  C   UNL     1       5.725   5.561  16.703  0.00  0.00    +0.000 A 
ATOM     28  C   UNL     1       6.721   6.129  17.483  0.00  0.00    +0.000 A 
ATOM     29  S   UNL     1       6.690   5.439  19.062  0.00  0.00    +0.000 S 
ATOM     30  C   UNL     1       5.400   4.406  18.654  0.00  0.00    +0.000 A 
ATOM     31  N   UNL     1       5.005   4.595  17.406  0.00  0.00    +0.000 N 
BRANCH  28  32
ATOM     32  C   UNL     1       7.732   7.202  17.167  0.00  0.00    +0.000 C 
BRANCH  32  33
ATOM     33  C   UNL     1       8.170   7.990  18.403  0.00  0.00    +0.000 C 
BRANCH  33  34
ATOM     34  O   UNL     1       8.227   9.385  18.132  0.00  0.00    +0.000 OA
ATOM     35  H   UNL     1       7.676   9.845  18.793  0.00  0.00    +0.000 HD
ENDBRANCH  33  34
ENDBRANCH  32  33
ENDBRANCH  28  32
ENDBRANCH  25  31
ENDBRANCH  24  25
ENDBRANCH  23  24
ENDBRANCH  22  23
ENDBRANCH  21  22
ENDBRANCH  20  21
ENDBRANCH  19  20
ENDBRANCH   1  19
TORSDOF 18
ENDMDL
MODEL 7
REMARK VINA RESULT:      -6.0      3.199     11.093
REMARK  Name = 
REMARK  19 active torsions:
REMARK  status: ('A' for Active; 'I' for Inactive)
REMARK    1  A    between atoms: C_1  and  C_2
REMARK    2  A    between atoms: C_3  and  C_4
REMARK    3  A    between atoms: C_4  and  C_5
REMARK    4  A    between atoms: C_5  and  O_6
REMARK    5  A    between atoms: N_9  and  C_10
REMARK    6  A    between atoms: C_10  and  C_11
REMARK    7  A    between atoms: C_11  and  C_12
REMARK    8  A    between atoms: C_12  and  C_13
REMARK    9  A    between atoms: C_13  and  C_14
REMARK   10  A    between atoms: C_14  and  C_15
REMARK   11  A    between atoms: C_15  and  C_16
REMARK   12  A    between atoms: C_16  and  C_17
REMARK   13  A    between atoms: C_17  and  C_18
REMARK   14  A    between atoms: C_18  and  C_19
REMARK   15  A    between atoms: C_19  and  C_20
REMARK   16  A    between atoms: C_20  and  O_21
REMARK   17  A    between atoms: O_21  and  C_22
REMARK   18  A    between atoms: C_25  and  C_26
REMARK   19  A    between atoms: N_28  and  O_29
REMARK                            x       y       z     vdW  Elec       q    Type
REMARK                         _______ _______ _______ _____ _____    ______ ____
ROOT
ATOM      1  C   UNL     1       2.734   7.333  17.981  0.00  0.00    +0.000 C 
ENDROOT
BRANCH   1   2
ATOM      2  C   UNL     1       2.523   8.847  18.030  0.00  0.00    +0.000 C 
BRANCH   2   3
ATOM      3  C   UNL     1       1.057   9.238  18.218  0.00  0.00    +0.000 C 
BRANCH   3   4
ATOM      4  C   UNL     1       0.829  10.011  19.512  0.00  0.00    +0.000 C 
BRANCH   4   5
ATOM      5  O   UNL     1      -0.146  11.027  19.289  0.00  0.00    +0.000 OA
BRANCH   5   6
ATOM      6  C   UNL     1      -0.848  11.400  20.405  0.00  0.00    +0.000 A 
ATOM      7  C   UNL     1      -1.934  12.243  20.171  0.00  0.00    +0.000 A 
ATOM      8  C   UNL     1      -2.715  12.701  21.239  0.00  0.00    +0.000 A 
ATOM      9  C   UNL     1      -2.434  12.295  22.551  0.00  0.00    +0.000 A 
ATOM     10  C   UNL     1      -1.359  11.429  22.775  0.00  0.00    +0.000 A 
ATOM     11  C   UNL     1      -0.572  10.988  21.711  0.00  0.00    +0.000 A 
BRANCH   9  12
ATOM     12  C   UNL     1      -3.244  12.763  23.723  0.00  0.00    +0.000 C 
ATOM     13  N   UNL     1      -4.248  11.995  24.251  0.00  0.00    +0.000 N 
ATOM     14  N   UNL     1      -2.988  13.931  24.253  0.00  0.00    +0.000 NA
ATOM     15  H   UNL     1      -4.044  11.013  24.380  0.00  0.00    +0.000 HD
ATOM     16  H   UNL     1      -4.568  12.422  25.116  0.00  0.00    +0.000 HD
BRANCH  14  17
ATOM     17  O   UNL     1      -3.850  14.138  25.343  0.00  0.00    +0.000 OA
ATOM     18  H   UNL     1      -3.614  15.042  25.621  0.00  0.00    +0.000 HD
ENDBRANCH  14  17
ENDBRANCH   9  12
ENDBRANCH   5   6
ENDBRANCH   4   5
ENDBRANCH   3   4
ENDBRANCH   2   3
ENDBRANCH   1   2
BRANCH   1  19
ATOM     19  C   UNL     1       2.420   6.689  19.325  0.00  0.00    +0.000 C 
BRANCH  19  20
ATOM     20  C   UNL     1       1.622   5.401  19.133  0.00  0.00    +0.000 C 
BRANCH  20  21
ATOM     21  C   UNL     1       1.176   4.838  20.479  0.00  0.00    +0.000 C 
BRANCH  21  22
ATOM     22  C   UNL     1       2.384   4.393  21.294  0.00  0.00    +0.000 C 
BRANCH  22  23
ATOM     23  C   UNL     1       2.338   2.902  21.630  0.00  0.00    +0.000 C 
BRANCH  23  24
ATOM     24  C   UNL     1       3.142   2.123  20.592  0.00  0.00    +0.000 C 
BRANCH  24  25
ATOM     25  C   UNL     1       4.470   2.787  20.241  0.00  0.00    +0.000 C 
BRANCH  25  31
ATOM     26  C   UNL     1       5.949   5.214  19.316  0.00  0.00    +0.000 C 
ATOM     27  C   UNL     1       5.136   4.399  18.380  0.00  0.00    +0.000 A 
ATOM     28  C   UNL     1       4.950   4.577  17.017  0.00  0.00    +0.000 A 
ATOM     29  S   UNL     1       3.948   3.322  16.395  0.00  0.00    +0.000 S 
ATOM     30  C   UNL     1       3.772   2.614  17.933  0.00  0.00    +0.000 A 
ATOM     31  N   UNL     1       4.453   3.278  18.852  0.00  0.00    +0.000 N 
BRANCH  28  32
ATOM     32  C   UNL     1       5.485   5.628  16.077  0.00  0.00    +0.000 C 
BRANCH  32  33
ATOM     33  C   UNL     1       6.304   5.037  14.928  0.00  0.00    +0.000 C 
BRANCH  33  34
ATOM     34  O   UNL     1       7.688   4.994  15.249  0.00  0.00    +0.000 OA
ATOM     35  H   UNL     1       8.192   4.956  14.415  0.00  0.00    +0.000 HD
ENDBRANCH  33  34
ENDBRANCH  32  33
ENDBRANCH  28  32
ENDBRANCH  25  31
ENDBRANCH  24  25
ENDBRANCH  23  24
ENDBRANCH  22  23
ENDBRANCH  21  22
ENDBRANCH  20  21
ENDBRANCH  19  20
ENDBRANCH   1  19
TORSDOF 18
ENDMDL
MODEL 8
REMARK VINA RESULT:      -6.0      1.511      1.722
REMARK  Name = 
REMARK  19 active torsions:
REMARK  status: ('A' for Active; 'I' for Inactive)
REMARK    1  A    between atoms: C_1  and  C_2
REMARK    2  A    between atoms: C_3  and  C_4
REMARK    3  A    between atoms: C_4  and  C_5
REMARK    4  A    between atoms: C_5  and  O_6
REMARK    5  A    between atoms: N_9  and  C_10
REMARK    6  A    between atoms: C_10  and  C_11
REMARK    7  A    between atoms: C_11  and  C_12
REMARK    8  A    between atoms: C_12  and  C_13
REMARK    9  A    between atoms: C_13  and  C_14
REMARK   10  A    between atoms: C_14  and  C_15
REMARK   11  A    between atoms: C_15  and  C_16
REMARK   12  A    between atoms: C_16  and  C_17
REMARK   13  A    between atoms: C_17  and  C_18
REMARK   14  A    between atoms: C_18  and  C_19
REMARK   15  A    between atoms: C_19  and  C_20
REMARK   16  A    between atoms: C_20  and  O_21
REMARK   17  A    between atoms: O_21  and  C_22
REMARK   18  A    between atoms: C_25  and  C_26
REMARK   19  A    between atoms: N_28  and  O_29
REMARK                            x       y       z     vdW  Elec       q    Type
REMARK                         _______ _______ _______ _____ _____    ______ ____
ROOT
ATOM      1  C   UNL     1       1.962   5.395  20.847  0.00  0.00    +0.000 C 
ENDROOT
BRANCH   1   2
ATOM      2  C   UNL     1       0.916   4.469  20.225  0.00  0.00    +0.000 C 
BRANCH   2   3
ATOM      3  C   UNL     1       1.185   2.991  20.508  0.00  0.00    +0.000 C 
BRANCH   3   4
ATOM      4  C   UNL     1       1.416   2.194  19.230  0.00  0.00    +0.000 C 
BRANCH   4   5
ATOM      5  O   UNL     1       2.795   1.840  19.138  0.00  0.00    +0.000 OA
BRANCH   5   6
ATOM      6  C   UNL     1       3.608   2.831  18.651  0.00  0.00    +0.000 A 
ATOM      7  C   UNL     1       3.284   3.293  17.376  0.00  0.00    +0.000 A 
ATOM      8  C   UNL     1       4.055   4.293  16.771  0.00  0.00    +0.000 A 
ATOM      9  C   UNL     1       5.141   4.862  17.452  0.00  0.00    +0.000 A 
ATOM     10  C   UNL     1       5.443   4.412  18.740  0.00  0.00    +0.000 A 
ATOM     11  C   UNL     1       4.684   3.403  19.334  0.00  0.00    +0.000 A 
BRANCH   9  12
ATOM     12  C   UNL     1       5.993   5.935  16.840  0.00  0.00    +0.000 C 
ATOM     13  N   UNL     1       5.541   6.697  15.795  0.00  0.00    +0.000 N 
ATOM     14  N   UNL     1       7.193   6.147  17.313  0.00  0.00    +0.000 NA
ATOM     15  H   UNL     1       4.596   7.048  15.868  0.00  0.00    +0.000 HD
ATOM     16  H   UNL     1       6.203   7.452  15.630  0.00  0.00    +0.000 HD
BRANCH  14  17
ATOM     17  O   UNL     1       7.783   7.207  16.606  0.00  0.00    +0.000 OA
ATOM     18  H   UNL     1       7.745   6.885  15.686  0.00  0.00    +0.000 HD
ENDBRANCH  14  17
ENDBRANCH   9  12
ENDBRANCH   5   6
ENDBRANCH   4   5
ENDBRANCH   3   4
ENDBRANCH   2   3
ENDBRANCH   1   2
BRANCH   1  19
ATOM     19  C   UNL     1       1.999   6.741  20.135  0.00  0.00    +0.000 C 
BRANCH  19  20
ATOM     20  C   UNL     1       1.371   7.829  21.003  0.00  0.00    +0.000 C 
BRANCH  20  21
ATOM     21  C   UNL     1       1.166   9.109  20.199  0.00  0.00    +0.000 C 
BRANCH  21  22
ATOM     22  C   UNL     1      -0.278   9.581  20.313  0.00  0.00    +0.000 C 
BRANCH  22  23
ATOM     23  C   UNL     1      -0.394  10.917  21.050  0.00  0.00    +0.000 C 
BRANCH  23  24
ATOM     24  C   UNL     1       0.210  12.025  20.190  0.00  0.00    +0.000 C 
BRANCH  24  25
ATOM     25  C   UNL     1      -0.842  12.885  19.496  0.00  0.00    +0.000 C 
BRANCH  25  31
ATOM     26  C   UNL     1      -3.759  12.470  19.994  0.00  0.00    +0.000 C 
ATOM     27  C   UNL     1      -2.980  13.479  20.753  0.00  0.00    +0.000 A 
ATOM     28  C   UNL     1      -3.414  14.322  21.765  0.00  0.00    +0.000 A 
ATOM     29  S   UNL     1      -2.095  15.268  22.343  0.00  0.00    +0.000 S 
ATOM     30  C   UNL     1      -1.019  14.562  21.229  0.00  0.00    +0.000 A 
ATOM     31  N   UNL     1      -1.621  13.649  20.485  0.00  0.00    +0.000 N 
BRANCH  28  32
ATOM     32  C   UNL     1      -4.774  14.490  22.394  0.00  0.00    +0.000 C 
BRANCH  32  33
ATOM     33  C   UNL     1      -5.106  13.386  23.399  0.00  0.00    +0.000 C 
BRANCH  33  34
ATOM     34  O   UNL     1      -5.983  12.420  22.834  0.00  0.00    +0.000 OA
ATOM     35  H   UNL     1      -5.627  11.534  23.034  0.00  0.00    +0.000 HD
ENDBRANCH  33  34
ENDBRANCH  32  33
ENDBRANCH  28  32
ENDBRANCH  25  31
ENDBRANCH  24  25
ENDBRANCH  23  24
ENDBRANCH  22  23
ENDBRANCH  21  22
ENDBRANCH  20  21
ENDBRANCH  19  20
ENDBRANCH   1  19
TORSDOF 18
ENDMDL
MODEL 9
REMARK VINA RESULT:      -5.9      5.323     10.424
REMARK  Name = 
REMARK  19 active torsions:
REMARK  status: ('A' for Active; 'I' for Inactive)
REMARK    1  A    between atoms: C_1  and  C_2
REMARK    2  A    between atoms: C_3  and  C_4
REMARK    3  A    between atoms: C_4  and  C_5
REMARK    4  A    between atoms: C_5  and  O_6
REMARK    5  A    between atoms: N_9  and  C_10
REMARK    6  A    between atoms: C_10  and  C_11
REMARK    7  A    between atoms: C_11  and  C_12
REMARK    8  A    between atoms: C_12  and  C_13
REMARK    9  A    between atoms: C_13  and  C_14
REMARK   10  A    between atoms: C_14  and  C_15
REMARK   11  A    between atoms: C_15  and  C_16
REMARK   12  A    between atoms: C_16  and  C_17
REMARK   13  A    between atoms: C_17  and  C_18
REMARK   14  A    between atoms: C_18  and  C_19
REMARK   15  A    between atoms: C_19  and  C_20
REMARK   16  A    between atoms: C_20  and  O_21
REMARK   17  A    between atoms: O_21  and  C_22
REMARK   18  A    between atoms: C_25  and  C_26
REMARK   19  A    between atoms: N_28  and  O_29
REMARK                            x       y       z     vdW  Elec       q    Type
REMARK                         _______ _______ _______ _____ _____    ______ ____
ROOT
ATOM      1  C   UNL     1       8.881   9.609  18.876  0.00  0.00    +0.000 C 
ENDROOT
BRANCH   1   2
ATOM      2  C   UNL     1       9.248  10.789  17.974  0.00  0.00    +0.000 C 
BRANCH   2   3
ATOM      3  C   UNL     1       9.356  12.110  18.736  0.00  0.00    +0.000 C 
BRANCH   3   4
ATOM      4  C   UNL     1       9.537  13.300  17.801  0.00  0.00    +0.000 C 
BRANCH   4   5
ATOM      5  O   UNL     1       9.149  14.494  18.477  0.00  0.00    +0.000 OA
BRANCH   5   6
ATOM      6  C   UNL     1       7.796  14.652  18.630  0.00  0.00    +0.000 A 
ATOM      7  C   UNL     1       7.383  15.048  19.901  0.00  0.00    +0.000 A 
ATOM      8  C   UNL     1       6.022  15.225  20.178  0.00  0.00    +0.000 A 
ATOM      9  C   UNL     1       5.062  15.036  19.173  0.00  0.00    +0.000 A 
ATOM     10  C   UNL     1       5.486  14.664  17.894  0.00  0.00    +0.000 A 
ATOM     11  C   UNL     1       6.842  14.471  17.626  0.00  0.00    +0.000 A 
BRANCH   9  12
ATOM     12  C   UNL     1       3.594  15.214  19.427  0.00  0.00    +0.000 C 
ATOM     13  N   UNL     1       3.042  16.458  19.584  0.00  0.00    +0.000 N 
ATOM     14  N   UNL     1       2.825  14.159  19.501  0.00  0.00    +0.000 NA
ATOM     15  H   UNL     1       3.338  17.169  18.930  0.00  0.00    +0.000 HD
ATOM     16  H   UNL     1       2.029  16.368  19.599  0.00  0.00    +0.000 HD
BRANCH  14  17
ATOM     17  O   UNL     1       1.500  14.574  19.716  0.00  0.00    +0.000 OA
ATOM     18  H   UNL     1       1.600  15.540  19.798  0.00  0.00    +0.000 HD
ENDBRANCH  14  17
ENDBRANCH   9  12
ENDBRANCH   5   6
ENDBRANCH   4   5
ENDBRANCH   3   4
ENDBRANCH   2   3
ENDBRANCH   1   2
BRANCH   1  19
ATOM     19  C   UNL     1       8.228   8.489  18.077  0.00  0.00    +0.000 C 
BRANCH  19  20
ATOM     20  C   UNL     1       8.342   7.159  18.819  0.00  0.00    +0.000 C 
BRANCH  20  21
ATOM     21  C   UNL     1       7.458   6.100  18.167  0.00  0.00    +0.000 C 
BRANCH  21  22
ATOM     22  C   UNL     1       7.118   6.500  16.737  0.00  0.00    +0.000 C 
BRANCH  22  23
ATOM     23  C   UNL     1       6.787   5.291  15.861  0.00  0.00    +0.000 C 
BRANCH  23  24
ATOM     24  C   UNL     1       6.005   4.268  16.682  0.00  0.00    +0.000 C 
BRANCH  24  25
ATOM     25  C   UNL     1       4.526   4.207  16.312  0.00  0.00    +0.000 C 
BRANCH  25  31
ATOM     26  C   UNL     1       2.821   2.207  17.734  0.00  0.00    +0.000 C 
ATOM     27  C   UNL     1       2.886   3.622  18.175  0.00  0.00    +0.000 A 
ATOM     28  C   UNL     1       2.247   4.221  19.250  0.00  0.00    +0.000 A 
ATOM     29  S   UNL     1       2.699   5.881  19.348  0.00  0.00    +0.000 S 
ATOM     30  C   UNL     1       3.685   5.759  17.965  0.00  0.00    +0.000 A 
ATOM     31  N   UNL     1       3.687   4.528  17.480  0.00  0.00    +0.000 N 
BRANCH  28  32
ATOM     32  C   UNL     1       1.303   3.652  20.280  0.00  0.00    +0.000 C 
BRANCH  32  33
ATOM     33  C   UNL     1       1.971   3.421  21.637  0.00  0.00    +0.000 C 
BRANCH  33  34
ATOM     34  O   UNL     1       1.326   2.380  22.359  0.00  0.00    +0.000 OA
ATOM     35  H   UNL     1       1.843   2.206  23.167  0.00  0.00    +0.000 HD
ENDBRANCH  33  34
ENDBRANCH  32  33
ENDBRANCH  28  32
ENDBRANCH  25  31
ENDBRANCH  24  25
ENDBRANCH  23  24
ENDBRANCH  22  23
ENDBRANCH  21  22
ENDBRANCH  20  21
ENDBRANCH  19  20
ENDBRANCH   1  19
TORSDOF 18
ENDMDL
