MODEL 1
REMARK VINA RESULT:      -8.6      0.000      0.000
REMARK  Name = 
REMARK  6 active torsions:
REMARK  status: ('A' for Active; 'I' for Inactive)
REMARK    1  A    between atoms: C_2  and  C_3
REMARK    2  A    between atoms: C_5  and  C_6
REMARK    3  A    between atoms: C_12  and  C_14
REMARK    4  A    between atoms: C_14  and  C_15
REMARK    5  A    between atoms: C_15  and  C_16
REMARK    6  A    between atoms: C_16  and  C_17
REMARK                            x       y       z     vdW  Elec       q    Type
REMARK                         _______ _______ _______ _____ _____    ______ ____
ROOT
ATOM      1  C   UNL     1       2.566   4.820  17.981  0.00  0.00    +0.000 C 
ATOM      2  C   UNL     1       1.528   4.021  18.803  0.00  0.00    +0.000 C 
ATOM      3  C   UNL     1       1.609   2.518  18.582  0.00  0.00    +0.000 C 
ATOM      4  C   UNL     1       3.037   2.029  18.750  0.00  0.00    +0.000 C 
ATOM      5  C   UNL     1       3.982   2.802  17.845  0.00  0.00    +0.000 C 
ATOM      6  N   UNL     1       3.931   4.249  18.143  0.00  0.00    +0.000 N 
ATOM      7  C   UNL     1       5.086   5.027  18.274  0.00  0.00    +0.000 C 
ATOM      8  O   UNL     1       5.089   6.255  18.367  0.00  0.00    +0.000 OA
ENDROOT
BRANCH   1  11
ATOM      9  C   UNL     1       1.967   8.387  18.634  0.00  0.00    +0.000 A 
ATOM     10  C   UNL     1       2.167   7.396  17.643  0.00  0.00    +0.000 A 
ATOM     11  C   UNL     1       2.386   6.249  18.362  0.00  0.00    +0.000 A 
ATOM     12  O   UNL     1       2.250   6.516  19.684  0.00  0.00    +0.000 OA
ATOM     13  N   UNL     1       2.048   7.855  19.868  0.00  0.00    +0.000 NA
BRANCH   9  15
ATOM     14  O   UNL     1       2.280  10.493  17.668  0.00  0.00    +0.000 OA
ATOM     15  C   UNL     1       1.605   9.780  18.428  0.00  0.00    +0.000 C 
ATOM     16  N   UNL     1       0.528  10.296  19.124  0.00  0.00    +0.000 N 
ATOM     17  C   UNL     1       0.081  11.662  18.875  0.00  0.00    +0.000 C 
ATOM     18  C   UNL     1       0.280  12.520  20.130  0.00  0.00    +0.000 C 
ATOM     19  O   UNL     1      -0.348  11.921  21.276  0.00  0.00    +0.000 OA
ATOM     20  C   UNL     1       0.195  10.622  21.531  0.00  0.00    +0.000 C 
ATOM     21  C   UNL     1      -0.028   9.688  20.340  0.00  0.00    +0.000 C 
ENDBRANCH   9  15
ENDBRANCH   1  11
BRANCH   7  22
ATOM     22  C   UNL     1       6.438   4.359  18.220  0.00  0.00    +0.000 C 
BRANCH  22  23
ATOM     23  C   UNL     1       7.052   4.508  16.823  0.00  0.00    +0.000 C 
BRANCH  23  24
ATOM     24  C   UNL     1       6.032   5.039  15.822  0.00  0.00    +0.000 C 
BRANCH  24  25
ATOM     25  C   UNL     1       6.395   4.667  14.405  0.00  0.00    +0.000 A 
ATOM     26  C   UNL     1       7.464   5.298  13.757  0.00  0.00    +0.000 A 
ATOM     27  C   UNL     1       7.779   4.981  12.434  0.00  0.00    +0.000 A 
ATOM     28  C   UNL     1       7.030   4.026  11.748  0.00  0.00    +0.000 A 
ATOM     29  C   UNL     1       5.969   3.386  12.386  0.00  0.00    +0.000 A 
ATOM     30  C   UNL     1       5.648   3.708  13.706  0.00  0.00    +0.000 A 
ENDBRANCH  24  25
ENDBRANCH  23  24
ENDBRANCH  22  23
ENDBRANCH   7  22
TORSDOF 6
ENDMDL
MODEL 2
REMARK VINA RESULT:      -8.6      1.364      2.634
REMARK  Name = 
REMARK  6 active torsions:
REMARK  status: ('A' for Active; 'I' for Inactive)
REMARK    1  A    between atoms: C_2  and  C_3
REMARK    2  A    between atoms: C_5  and  C_6
REMARK    3  A    between atoms: C_12  and  C_14
REMARK    4  A    between atoms: C_14  and  C_15
REMARK    5  A    between atoms: C_15  and  C_16
REMARK    6  A    between atoms: C_16  and  C_17
REMARK                            x       y       z     vdW  Elec       q    Type
REMARK                         _______ _______ _______ _____ _____    ______ ____
ROOT
ATOM      1  C   UNL     1       1.666   4.580  18.268  0.00  0.00    +0.000 C 
ATOM      2  C   UNL     1       1.201   3.981  19.615  0.00  0.00    +0.000 C 
ATOM      3  C   UNL     1       1.013   2.471  19.574  0.00  0.00    +0.000 C 
ATOM      4  C   UNL     1       2.242   1.795  18.990  0.00  0.00    +0.000 C 
ATOM      5  C   UNL     1       2.581   2.378  17.628  0.00  0.00    +0.000 C 
ATOM      6  N   UNL     1       2.833   3.831  17.724  0.00  0.00    +0.000 N 
ATOM      7  C   UNL     1       3.925   4.445  17.104  0.00  0.00    +0.000 C 
ATOM      8  O   UNL     1       4.087   5.663  17.027  0.00  0.00    +0.000 OA
ENDROOT
BRANCH   1  11
ATOM      9  C   UNL     1       1.884   8.228  18.648  0.00  0.00    +0.000 A 
ATOM     10  C   UNL     1       1.527   7.161  17.790  0.00  0.00    +0.000 A 
ATOM     11  C   UNL     1       1.856   6.038  18.506  0.00  0.00    +0.000 A 
ATOM     12  O   UNL     1       2.301   6.404  19.733  0.00  0.00    +0.000 OA
ATOM     13  N   UNL     1       2.379   7.767  19.811  0.00  0.00    +0.000 NA
BRANCH   9  15
ATOM     14  O   UNL     1       2.418  10.282  17.664  0.00  0.00    +0.000 OA
ATOM     15  C   UNL     1       1.667   9.649  18.424  0.00  0.00    +0.000 C 
ATOM     16  N   UNL     1       0.641  10.279  19.102  0.00  0.00    +0.000 N 
ATOM     17  C   UNL     1       0.337  11.681  18.835  0.00  0.00    +0.000 C 
ATOM     18  C   UNL     1       0.609  12.528  20.084  0.00  0.00    +0.000 C 
ATOM     19  O   UNL     1      -0.089  12.007  21.229  0.00  0.00    +0.000 OA
ATOM     20  C   UNL     1       0.317  10.663  21.502  0.00  0.00    +0.000 C 
ATOM     21  C   UNL     1       0.012   9.744  20.318  0.00  0.00    +0.000 C 
ENDBRANCH   9  15
ENDBRANCH   1  11
BRANCH   7  22
ATOM     22  C   UNL     1       4.952   3.591  16.400  0.00  0.00    +0.000 C 
BRANCH  22  23
ATOM     23  C   UNL     1       5.489   4.314  15.160  0.00  0.00    +0.000 C 
BRANCH  23  24
ATOM     24  C   UNL     1       6.983   4.589  15.280  0.00  0.00    +0.000 C 
BRANCH  24  25
ATOM     25  C   UNL     1       7.314   5.339  16.546  0.00  0.00    +0.000 A 
ATOM     26  C   UNL     1       7.302   6.740  16.565  0.00  0.00    +0.000 A 
ATOM     27  C   UNL     1       7.642   7.437  17.725  0.00  0.00    +0.000 A 
ATOM     28  C   UNL     1       7.993   6.741  18.881  0.00  0.00    +0.000 A 
ATOM     29  C   UNL     1       8.000   5.348  18.876  0.00  0.00    +0.000 A 
ATOM     30  C   UNL     1       7.669   4.649  17.714  0.00  0.00    +0.000 A 
ENDBRANCH  24  25
ENDBRANCH  23  24
ENDBRANCH  22  23
ENDBRANCH   7  22
TORSDOF 6
ENDMDL
MODEL 3
REMARK VINA RESULT:      -8.2      0.819      1.193
REMARK  Name = 
REMARK  6 active torsions:
REMARK  status: ('A' for Active; 'I' for Inactive)
REMARK    1  A    between atoms: C_2  and  C_3
REMARK    2  A    between atoms: C_5  and  C_6
REMARK    3  A    between atoms: C_12  and  C_14
REMARK    4  A    between atoms: C_14  and  C_15
REMARK    5  A    between atoms: C_15  and  C_16
REMARK    6  A    between atoms: C_16  and  C_17
REMARK                            x       y       z     vdW  Elec       q    Type
REMARK                         _______ _______ _______ _____ _____    ______ ____
ROOT
ATOM      1  C   UNL     1       2.734   4.837  19.057  0.00  0.00    +0.000 C 
ATOM      2  C   UNL     1       2.081   4.207  20.309  0.00  0.00    +0.000 C 
ATOM      3  C   UNL     1       2.342   2.714  20.442  0.00  0.00    +0.000 C 
ATOM      4  C   UNL     1       3.825   2.416  20.304  0.00  0.00    +0.000 C 
ATOM      5  C   UNL     1       4.372   2.991  19.007  0.00  0.00    +0.000 C 
ATOM      6  N   UNL     1       4.169   4.454  18.952  0.00  0.00    +0.000 N 
ATOM      7  C   UNL     1       5.179   5.336  18.555  0.00  0.00    +0.000 C 
ATOM      8  O   UNL     1       5.009   6.537  18.346  0.00  0.00    +0.000 OA
ENDROOT
BRANCH   1  11
ATOM      9  C   UNL     1       1.829   8.397  18.927  0.00  0.00    +0.000 A 
ATOM     10  C   UNL     1       2.115   7.233  18.172  0.00  0.00    +0.000 A 
ATOM     11  C   UNL     1       2.431   6.294  19.120  0.00  0.00    +0.000 A 
ATOM     12  O   UNL     1       2.270   6.832  20.354  0.00  0.00    +0.000 OA
ATOM     13  N   UNL     1       1.953   8.157  20.245  0.00  0.00    +0.000 NA
BRANCH   9  15
ATOM     14  O   UNL     1       1.977  10.273  17.538  0.00  0.00    +0.000 OA
ATOM     15  C   UNL     1       1.349   9.676  18.427  0.00  0.00    +0.000 C 
ATOM     16  N   UNL     1       0.211  10.223  18.990  0.00  0.00    +0.000 N 
ATOM     17  C   UNL     1      -0.350  11.458  18.454  0.00  0.00    +0.000 C 
ATOM     18  C   UNL     1      -0.263  12.576  19.500  0.00  0.00    +0.000 C 
ATOM     19  O   UNL     1      -0.866  12.174  20.743  0.00  0.00    +0.000 OA
ATOM     20  C   UNL     1      -0.215  11.014  21.270  0.00  0.00    +0.000 C 
ATOM     21  C   UNL     1      -0.321   9.834  20.303  0.00  0.00    +0.000 C 
ENDBRANCH   9  15
ENDBRANCH   1  11
BRANCH   7  22
ATOM     22  C   UNL     1       6.561   4.799  18.276  0.00  0.00    +0.000 C 
BRANCH  22  23
ATOM     23  C   UNL     1       6.642   4.248  16.848  0.00  0.00    +0.000 C 
BRANCH  23  24
ATOM     24  C   UNL     1       6.933   5.355  15.841  0.00  0.00    +0.000 C 
BRANCH  24  25
ATOM     25  C   UNL     1       6.851   4.853  14.421  0.00  0.00    +0.000 A 
ATOM     26  C   UNL     1       5.907   3.882  14.064  0.00  0.00    +0.000 A 
ATOM     27  C   UNL     1       5.852   3.390  12.759  0.00  0.00    +0.000 A 
ATOM     28  C   UNL     1       6.740   3.867  11.795  0.00  0.00    +0.000 A 
ATOM     29  C   UNL     1       7.679   4.839  12.137  0.00  0.00    +0.000 A 
ATOM     30  C   UNL     1       7.739   5.325  13.444  0.00  0.00    +0.000 A 
ENDBRANCH  24  25
ENDBRANCH  23  24
ENDBRANCH  22  23
ENDBRANCH   7  22
TORSDOF 6
ENDMDL
MODEL 4
REMARK VINA RESULT:      -8.1      4.187      7.333
REMARK  Name = 
REMARK  6 active torsions:
REMARK  status: ('A' for Active; 'I' for Inactive)
REMARK    1  A    between atoms: C_2  and  C_3
REMARK    2  A    between atoms: C_5  and  C_6
REMARK    3  A    between atoms: C_12  and  C_14
REMARK    4  A    between atoms: C_14  and  C_15
REMARK    5  A    between atoms: C_15  and  C_16
REMARK    6  A    between atoms: C_16  and  C_17
REMARK                            x       y       z     vdW  Elec       q    Type
REMARK                         _______ _______ _______ _____ _____    ______ ____
ROOT
ATOM      1  C   UNL     1      -1.145  11.929  18.630  0.00  0.00    +0.000 C 
ATOM      2  C   UNL     1      -2.621  11.837  19.081  0.00  0.00    +0.000 C 
ATOM      3  C   UNL     1      -3.513  11.105  18.090  0.00  0.00    +0.000 C 
ATOM      4  C   UNL     1      -2.901   9.768  17.707  0.00  0.00    +0.000 C 
ATOM      5  C   UNL     1      -1.484   9.952  17.190  0.00  0.00    +0.000 C 
ATOM      6  N   UNL     1      -0.631  10.596  18.211  0.00  0.00    +0.000 N 
ATOM      7  C   UNL     1       0.652  10.130  18.518  0.00  0.00    +0.000 C 
ATOM      8  O   UNL     1       1.452  10.722  19.242  0.00  0.00    +0.000 OA
ENDROOT
BRANCH   1  11
ATOM      9  C   UNL     1       0.624  13.896  21.181  0.00  0.00    +0.000 A 
ATOM     10  C   UNL     1       0.313  13.773  19.805  0.00  0.00    +0.000 A 
ATOM     11  C   UNL     1      -0.416  12.613  19.734  0.00  0.00    +0.000 A 
ATOM     12  O   UNL     1      -0.596  12.120  20.983  0.00  0.00    +0.000 OA
ATOM     13  N   UNL     1       0.096  12.878  21.886  0.00  0.00    +0.000 NA
BRANCH   9  15
ATOM     14  O   UNL     1       0.668  15.983  22.235  0.00  0.00    +0.000 OA
ATOM     15  C   UNL     1       1.310  14.999  21.834  0.00  0.00    +0.000 C 
ATOM     16  N   UNL     1       2.686  14.944  21.959  0.00  0.00    +0.000 N 
ATOM     17  C   UNL     1       3.398  15.988  22.688  0.00  0.00    +0.000 C 
ATOM     18  C   UNL     1       4.317  16.764  21.736  0.00  0.00    +0.000 C 
ATOM     19  O   UNL     1       5.193  15.876  21.020  0.00  0.00    +0.000 OA
ATOM     20  C   UNL     1       4.442  14.935  20.249  0.00  0.00    +0.000 C 
ATOM     21  C   UNL     1       3.548  14.076  21.145  0.00  0.00    +0.000 C 
ENDBRANCH   9  15
ENDBRANCH   1  11
BRANCH   7  22
ATOM     22  C   UNL     1       1.151   8.861  17.870  0.00  0.00    +0.000 C 
BRANCH  22  23
ATOM     23  C   UNL     1       2.194   8.180  18.764  0.00  0.00    +0.000 C 
BRANCH  23  24
ATOM     24  C   UNL     1       2.760   6.928  18.104  0.00  0.00    +0.000 C 
BRANCH  24  25
ATOM     25  C   UNL     1       2.162   5.671  18.687  0.00  0.00    +0.000 A 
ATOM     26  C   UNL     1       1.981   5.546  20.070  0.00  0.00    +0.000 A 
ATOM     27  C   UNL     1       1.462   4.371  20.615  0.00  0.00    +0.000 A 
ATOM     28  C   UNL     1       1.114   3.309  19.781  0.00  0.00    +0.000 A 
ATOM     29  C   UNL     1       1.282   3.425  18.403  0.00  0.00    +0.000 A 
ATOM     30  C   UNL     1       1.810   4.597  17.858  0.00  0.00    +0.000 A 
ENDBRANCH  24  25
ENDBRANCH  23  24
ENDBRANCH  22  23
ENDBRANCH   7  22
TORSDOF 6
ENDMDL
MODEL 5
REMARK VINA RESULT:      -8.1      3.813      6.844
REMARK  Name = 
REMARK  6 active torsions:
REMARK  status: ('A' for Active; 'I' for Inactive)
REMARK    1  A    between atoms: C_2  and  C_3
REMARK    2  A    between atoms: C_5  and  C_6
REMARK    3  A    between atoms: C_12  and  C_14
REMARK    4  A    between atoms: C_14  and  C_15
REMARK    5  A    between atoms: C_15  and  C_16
REMARK    6  A    between atoms: C_16  and  C_17
REMARK                            x       y       z     vdW  Elec       q    Type
REMARK                         _______ _______ _______ _____ _____    ______ ____
ROOT
ATOM      1  C   UNL     1      -0.612   9.495  20.489  0.00  0.00    +0.000 C 
ATOM      2  C   UNL     1      -0.595  10.286  21.818  0.00  0.00    +0.000 C 
ATOM      3  C   UNL     1       0.228   9.617  22.909  0.00  0.00    +0.000 C 
ATOM      4  C   UNL     1       1.608   9.253  22.391  0.00  0.00    +0.000 C 
ATOM      5  C   UNL     1       1.505   8.402  21.135  0.00  0.00    +0.000 C 
ATOM      6  N   UNL     1       0.767   9.117  20.074  0.00  0.00    +0.000 N 
ATOM      7  C   UNL     1       1.217   9.166  18.750  0.00  0.00    +0.000 C 
ATOM      8  O   UNL     1       0.562   9.613  17.809  0.00  0.00    +0.000 OA
ENDROOT
BRANCH   1  11
ATOM      9  C   UNL     1      -2.811  11.312  18.172  0.00  0.00    +0.000 A 
ATOM     10  C   UNL     1      -2.504  10.058  18.754  0.00  0.00    +0.000 A 
ATOM     11  C   UNL     1      -1.402  10.315  19.528  0.00  0.00    +0.000 A 
ATOM     12  O   UNL     1      -1.118  11.639  19.478  0.00  0.00    +0.000 OA
ATOM     13  N   UNL     1      -1.953  12.259  18.591  0.00  0.00    +0.000 NA
BRANCH   9  15
ATOM     14  O   UNL     1      -3.815  11.679  16.092  0.00  0.00    +0.000 OA
ATOM     15  C   UNL     1      -3.949  11.636  17.325  0.00  0.00    +0.000 C 
ATOM     16  N   UNL     1      -5.159  11.931  17.925  0.00  0.00    +0.000 N 
ATOM     17  C   UNL     1      -6.343  12.172  17.106  0.00  0.00    +0.000 C 
ATOM     18  C   UNL     1      -6.815  13.621  17.274  0.00  0.00    +0.000 C 
ATOM     19  O   UNL     1      -7.012  13.946  18.662  0.00  0.00    +0.000 OA
ATOM     20  C   UNL     1      -5.797  13.784  19.398  0.00  0.00    +0.000 C 
ATOM     21  C   UNL     1      -5.300  12.339  19.329  0.00  0.00    +0.000 C 
ENDBRANCH   9  15
ENDBRANCH   1  11
BRANCH   7  22
ATOM     22  C   UNL     1       2.557   8.564  18.403  0.00  0.00    +0.000 C 
BRANCH  22  23
ATOM     23  C   UNL     1       2.370   7.265  17.611  0.00  0.00    +0.000 C 
BRANCH  23  24
ATOM     24  C   UNL     1       3.244   6.145  18.164  0.00  0.00    +0.000 C 
BRANCH  24  25
ATOM     25  C   UNL     1       2.416   5.031  18.755  0.00  0.00    +0.000 A 
ATOM     26  C   UNL     1       1.937   3.995  17.943  0.00  0.00    +0.000 A 
ATOM     27  C   UNL     1       1.142   2.982  18.480  0.00  0.00    +0.000 A 
ATOM     28  C   UNL     1       0.820   2.992  19.836  0.00  0.00    +0.000 A 
ATOM     29  C   UNL     1       1.297   4.013  20.655  0.00  0.00    +0.000 A 
ATOM     30  C   UNL     1       2.086   5.031  20.117  0.00  0.00    +0.000 A 
ENDBRANCH  24  25
ENDBRANCH  23  24
ENDBRANCH  22  23
ENDBRANCH   7  22
TORSDOF 6
ENDMDL
MODEL 6
REMARK VINA RESULT:      -8.0      1.576      2.832
REMARK  Name = 
REMARK  6 active torsions:
REMARK  status: ('A' for Active; 'I' for Inactive)
REMARK    1  A    between atoms: C_2  and  C_3
REMARK    2  A    between atoms: C_5  and  C_6
REMARK    3  A    between atoms: C_12  and  C_14
REMARK    4  A    between atoms: C_14  and  C_15
REMARK    5  A    between atoms: C_15  and  C_16
REMARK    6  A    between atoms: C_16  and  C_17
REMARK                            x       y       z     vdW  Elec       q    Type
REMARK                         _______ _______ _______ _____ _____    ______ ____
ROOT
ATOM      1  C   UNL     1       1.848   4.658  19.449  0.00  0.00    +0.000 C 
ATOM      2  C   UNL     1       1.838   4.307  20.954  0.00  0.00    +0.000 C 
ATOM      3  C   UNL     1       1.850   2.810  21.226  0.00  0.00    +0.000 C 
ATOM      4  C   UNL     1       2.960   2.132  20.442  0.00  0.00    +0.000 C 
ATOM      5  C   UNL     1       2.849   2.454  18.961  0.00  0.00    +0.000 C 
ATOM      6  N   UNL     1       2.920   3.913  18.732  0.00  0.00    +0.000 N 
ATOM      7  C   UNL     1       3.719   4.476  17.732  0.00  0.00    +0.000 C 
ATOM      8  O   UNL     1       3.690   5.663  17.406  0.00  0.00    +0.000 OA
ENDROOT
BRANCH   1  11
ATOM      9  C   UNL     1       1.743   8.306  19.016  0.00  0.00    +0.000 A 
ATOM     10  C   UNL     1       1.578   7.048  18.389  0.00  0.00    +0.000 A 
ATOM     11  C   UNL     1       1.897   6.145  19.370  0.00  0.00    +0.000 A 
ATOM     12  O   UNL     1       2.156   6.810  20.523  0.00  0.00    +0.000 OA
ATOM     13  N   UNL     1       2.121   8.157  20.299  0.00  0.00    +0.000 NA
BRANCH   9  15
ATOM     14  O   UNL     1       2.188  10.099  17.583  0.00  0.00    +0.000 OA
ATOM     15  C   UNL     1       1.450   9.616  18.456  0.00  0.00    +0.000 C 
ATOM     16  N   UNL     1       0.366  10.320  18.945  0.00  0.00    +0.000 N 
ATOM     17  C   UNL     1      -0.011  11.595  18.346  0.00  0.00    +0.000 C 
ATOM     18  C   UNL     1       0.168  12.730  19.362  0.00  0.00    +0.000 C 
ATOM     19  O   UNL     1      -0.537  12.450  20.584  0.00  0.00    +0.000 OA
ATOM     20  C   UNL     1      -0.062  11.239  21.178  0.00  0.00    +0.000 C 
ATOM     21  C   UNL     1      -0.271  10.047  20.241  0.00  0.00    +0.000 C 
ENDBRANCH   9  15
ENDBRANCH   1  11
BRANCH   7  22
ATOM     22  C   UNL     1       4.628   3.584  16.923  0.00  0.00    +0.000 C 
BRANCH  22  23
ATOM     23  C   UNL     1       5.143   4.328  15.686  0.00  0.00    +0.000 C 
BRANCH  23  24
ATOM     24  C   UNL     1       6.666   4.406  15.678  0.00  0.00    +0.000 C 
BRANCH  24  25
ATOM     25  C   UNL     1       7.185   5.311  16.767  0.00  0.00    +0.000 A 
ATOM     26  C   UNL     1       7.633   4.777  17.982  0.00  0.00    +0.000 A 
ATOM     27  C   UNL     1       8.080   5.614  19.004  0.00  0.00    +0.000 A 
ATOM     28  C   UNL     1       8.089   6.997  18.821  0.00  0.00    +0.000 A 
ATOM     29  C   UNL     1       7.653   7.539  17.614  0.00  0.00    +0.000 A 
ATOM     30  C   UNL     1       7.197   6.702  16.593  0.00  0.00    +0.000 A 
ENDBRANCH  24  25
ENDBRANCH  23  24
ENDBRANCH  22  23
ENDBRANCH   7  22
TORSDOF 6
ENDMDL
MODEL 7
REMARK VINA RESULT:      -8.0      4.040      7.070
REMARK  Name = 
REMARK  6 active torsions:
REMARK  status: ('A' for Active; 'I' for Inactive)
REMARK    1  A    between atoms: C_2  and  C_3
REMARK    2  A    between atoms: C_5  and  C_6
REMARK    3  A    between atoms: C_12  and  C_14
REMARK    4  A    between atoms: C_14  and  C_15
REMARK    5  A    between atoms: C_15  and  C_16
REMARK    6  A    between atoms: C_16  and  C_17
REMARK                            x       y       z     vdW  Elec       q    Type
REMARK                         _______ _______ _______ _____ _____    ______ ____
ROOT
ATOM      1  C   UNL     1      -0.340  11.142  20.790  0.00  0.00    +0.000 C 
ATOM      2  C   UNL     1      -0.491  11.737  22.209  0.00  0.00    +0.000 C 
ATOM      3  C   UNL     1      -1.166  10.793  23.193  0.00  0.00    +0.000 C 
ATOM      4  C   UNL     1      -0.502   9.427  23.165  0.00  0.00    +0.000 C 
ATOM      5  C   UNL     1      -0.473   8.872  21.750  0.00  0.00    +0.000 C 
ATOM      6  N   UNL     1       0.258   9.780  20.842  0.00  0.00    +0.000 N 
ATOM      7  C   UNL     1       1.212   9.318  19.930  0.00  0.00    +0.000 C 
ATOM      8  O   UNL     1       1.729  10.012  19.054  0.00  0.00    +0.000 OA
ENDROOT
BRANCH   1  11
ATOM      9  C   UNL     1       1.727  13.557  18.947  0.00  0.00    +0.000 A 
ATOM     10  C   UNL     1       1.594  12.795  20.133  0.00  0.00    +0.000 A 
ATOM     11  C   UNL     1       0.386  12.165  19.986  0.00  0.00    +0.000 A 
ATOM     12  O   UNL     1      -0.131  12.464  18.769  0.00  0.00    +0.000 OA
ATOM     13  N   UNL     1       0.667  13.376  18.138  0.00  0.00    +0.000 NA
BRANCH   9  15
ATOM     14  O   UNL     1       3.879  13.803  18.067  0.00  0.00    +0.000 OA
ATOM     15  C   UNL     1       2.872  14.356  18.536  0.00  0.00    +0.000 C 
ATOM     16  N   UNL     1       2.825  15.725  18.717  0.00  0.00    +0.000 N 
ATOM     17  C   UNL     1       3.915  16.566  18.235  0.00  0.00    +0.000 C 
ATOM     18  C   UNL     1       4.627  17.238  19.415  0.00  0.00    +0.000 C 
ATOM     19  O   UNL     1       3.694  17.947  20.250  0.00  0.00    +0.000 OA
ATOM     20  C   UNL     1       2.703  17.057  20.772  0.00  0.00    +0.000 C 
ATOM     21  C   UNL     1       1.906  16.398  19.645  0.00  0.00    +0.000 C 
ENDBRANCH   9  15
ENDBRANCH   1  11
BRANCH   7  22
ATOM     22  C   UNL     1       1.598   7.859  19.939  0.00  0.00    +0.000 C 
BRANCH  22  23
ATOM     23  C   UNL     1       2.428   7.519  18.696  0.00  0.00    +0.000 C 
BRANCH  23  24
ATOM     24  C   UNL     1       3.261   6.260  18.910  0.00  0.00    +0.000 C 
BRANCH  24  25
ATOM     25  C   UNL     1       2.394   5.056  19.182  0.00  0.00    +0.000 A 
ATOM     26  C   UNL     1       2.141   4.645  20.497  0.00  0.00    +0.000 A 
ATOM     27  C   UNL     1       1.369   3.510  20.750  0.00  0.00    +0.000 A 
ATOM     28  C   UNL     1       0.837   2.777  19.690  0.00  0.00    +0.000 A 
ATOM     29  C   UNL     1       1.076   3.181  18.378  0.00  0.00    +0.000 A 
ATOM     30  C   UNL     1       1.855   4.311  18.124  0.00  0.00    +0.000 A 
ENDBRANCH  24  25
ENDBRANCH  23  24
ENDBRANCH  22  23
ENDBRANCH   7  22
TORSDOF 6
ENDMDL
MODEL 8
REMARK VINA RESULT:      -8.0      1.675      2.306
REMARK  Name = 
REMARK  6 active torsions:
REMARK  status: ('A' for Active; 'I' for Inactive)
REMARK    1  A    between atoms: C_2  and  C_3
REMARK    2  A    between atoms: C_5  and  C_6
REMARK    3  A    between atoms: C_12  and  C_14
REMARK    4  A    between atoms: C_14  and  C_15
REMARK    5  A    between atoms: C_15  and  C_16
REMARK    6  A    between atoms: C_16  and  C_17
REMARK                            x       y       z     vdW  Elec       q    Type
REMARK                         _______ _______ _______ _____ _____    ______ ____
ROOT
ATOM      1  C   UNL     1       2.395   4.900  18.637  0.00  0.00    +0.000 C 
ATOM      2  C   UNL     1       1.339   3.827  18.988  0.00  0.00    +0.000 C 
ATOM      3  C   UNL     1       1.546   2.510  18.255  0.00  0.00    +0.000 C 
ATOM      4  C   UNL     1       2.981   2.035  18.405  0.00  0.00    +0.000 C 
ATOM      5  C   UNL     1       3.956   3.112  17.957  0.00  0.00    +0.000 C 
ATOM      6  N   UNL     1       3.774   4.349  18.745  0.00  0.00    +0.000 N 
ATOM      7  C   UNL     1       4.852   5.059  19.283  0.00  0.00    +0.000 C 
ATOM      8  O   UNL     1       4.760   6.169  19.809  0.00  0.00    +0.000 OA
ENDROOT
BRANCH   1  11
ATOM      9  C   UNL     1       1.569   7.995  20.438  0.00  0.00    +0.000 A 
ATOM     10  C   UNL     1       2.116   7.439  19.257  0.00  0.00    +0.000 A 
ATOM     11  C   UNL     1       2.078   6.086  19.480  0.00  0.00    +0.000 A 
ATOM     12  O   UNL     1       1.480   5.846  20.672  0.00  0.00    +0.000 OA
ATOM     13  N   UNL     1       1.212   7.028  21.304  0.00  0.00    +0.000 NA
BRANCH   9  15
ATOM     14  O   UNL     1       1.298   9.822  21.872  0.00  0.00    +0.000 OA
ATOM     15  C   UNL     1       1.290   9.397  20.706  0.00  0.00    +0.000 C 
ATOM     16  N   UNL     1       0.979  10.226  19.644  0.00  0.00    +0.000 N 
ATOM     17  C   UNL     1       0.781  11.655  19.863  0.00  0.00    +0.000 C 
ATOM     18  C   UNL     1      -0.670  12.041  19.553  0.00  0.00    +0.000 C 
ATOM     19  O   UNL     1      -1.052  11.614  18.234  0.00  0.00    +0.000 OA
ATOM     20  C   UNL     1      -0.930  10.195  18.106  0.00  0.00    +0.000 C 
ATOM     21  C   UNL     1       0.513   9.743  18.337  0.00  0.00    +0.000 C 
ENDBRANCH   9  15
ENDBRANCH   1  11
BRANCH   7  22
ATOM     22  C   UNL     1       6.246   4.496  19.154  0.00  0.00    +0.000 C 
BRANCH  22  23
ATOM     23  C   UNL     1       7.290   5.589  19.413  0.00  0.00    +0.000 C 
BRANCH  23  24
ATOM     24  C   UNL     1       7.804   6.186  18.108  0.00  0.00    +0.000 C 
BRANCH  24  25
ATOM     25  C   UNL     1       6.988   5.729  16.924  0.00  0.00    +0.000 A 
ATOM     26  C   UNL     1       7.295   4.529  16.272  0.00  0.00    +0.000 A 
ATOM     27  C   UNL     1       6.564   4.121  15.154  0.00  0.00    +0.000 A 
ATOM     28  C   UNL     1       5.515   4.908  14.681  0.00  0.00    +0.000 A 
ATOM     29  C   UNL     1       5.196   6.101  15.327  0.00  0.00    +0.000 A 
ATOM     30  C   UNL     1       5.932   6.513  16.439  0.00  0.00    +0.000 A 
ENDBRANCH  24  25
ENDBRANCH  23  24
ENDBRANCH  22  23
ENDBRANCH   7  22
TORSDOF 6
ENDMDL
MODEL 9
REMARK VINA RESULT:      -8.0      1.554      2.024
REMARK  Name = 
REMARK  6 active torsions:
REMARK  status: ('A' for Active; 'I' for Inactive)
REMARK    1  A    between atoms: C_2  and  C_3
REMARK    2  A    between atoms: C_5  and  C_6
REMARK    3  A    between atoms: C_12  and  C_14
REMARK    4  A    between atoms: C_14  and  C_15
REMARK    5  A    between atoms: C_15  and  C_16
REMARK    6  A    between atoms: C_16  and  C_17
REMARK                            x       y       z     vdW  Elec       q    Type
REMARK                         _______ _______ _______ _____ _____    ______ ____
ROOT
ATOM      1  C   UNL     1       2.479   4.918  18.436  0.00  0.00    +0.000 C 
ATOM      2  C   UNL     1       1.424   3.881  18.884  0.00  0.00    +0.000 C 
ATOM      3  C   UNL     1       1.665   2.488  18.320  0.00  0.00    +0.000 C 
ATOM      4  C   UNL     1       3.100   2.053  18.565  0.00  0.00    +0.000 C 
ATOM      5  C   UNL     1       4.076   3.081  18.018  0.00  0.00    +0.000 C 
ATOM      6  N   UNL     1       3.860   4.401  18.648  0.00  0.00    +0.000 N 
ATOM      7  C   UNL     1       4.915   5.184  19.126  0.00  0.00    +0.000 C 
ATOM      8  O   UNL     1       4.797   6.347  19.513  0.00  0.00    +0.000 OA
ENDROOT
BRANCH   1  11
ATOM      9  C   UNL     1       1.470   8.157  19.848  0.00  0.00    +0.000 A 
ATOM     10  C   UNL     1       1.836   7.455  18.675  0.00  0.00    +0.000 A 
ATOM     11  C   UNL     1       2.127   6.192  19.123  0.00  0.00    +0.000 A 
ATOM     12  O   UNL     1       1.878   6.120  20.453  0.00  0.00    +0.000 OA
ATOM     13  N   UNL     1       1.525   7.353  20.926  0.00  0.00    +0.000 NA
BRANCH   9  15
ATOM     14  O   UNL     1       1.521  10.426  19.285  0.00  0.00    +0.000 OA
ATOM     15  C   UNL     1       0.979   9.523  19.941  0.00  0.00    +0.000 C 
ATOM     16  N   UNL     1      -0.069   9.793  20.801  0.00  0.00    +0.000 N 
ATOM     17  C   UNL     1      -0.646  11.132  20.854  0.00  0.00    +0.000 C 
ATOM     18  C   UNL     1      -0.404  11.758  22.233  0.00  0.00    +0.000 C 
ATOM     19  O   UNL     1      -0.875  10.898  23.285  0.00  0.00    +0.000 OA
ATOM     20  C   UNL     1      -0.207   9.634  23.244  0.00  0.00    +0.000 C 
ATOM     21  C   UNL     1      -0.461   8.920  21.915  0.00  0.00    +0.000 C 
ENDBRANCH   9  15
ENDBRANCH   1  11
BRANCH   7  22
ATOM     22  C   UNL     1       6.318   4.627  19.104  0.00  0.00    +0.000 C 
BRANCH  22  23
ATOM     23  C   UNL     1       7.341   5.750  19.314  0.00  0.00    +0.000 C 
BRANCH  23  24
ATOM     24  C   UNL     1       7.691   6.435  17.998  0.00  0.00    +0.000 C 
BRANCH  24  25
ATOM     25  C   UNL     1       6.965   5.811  16.832  0.00  0.00    +0.000 A 
ATOM     26  C   UNL     1       5.908   6.487  16.210  0.00  0.00    +0.000 A 
ATOM     27  C   UNL     1       5.211   5.897  15.154  0.00  0.00    +0.000 A 
ATOM     28  C   UNL     1       5.567   4.626  14.707  0.00  0.00    +0.000 A 
ATOM     29  C   UNL     1       6.622   3.947  15.313  0.00  0.00    +0.000 A 
ATOM     30  C   UNL     1       7.314   4.533  16.375  0.00  0.00    +0.000 A 
ENDBRANCH  24  25
ENDBRANCH  23  24
ENDBRANCH  22  23
ENDBRANCH   7  22
TORSDOF 6
ENDMDL
