MODEL 1
REMARK VINA RESULT:      -8.0      0.000      0.000
REMARK  Name = 
REMARK  11 active torsions:
REMARK  status: ('A' for Active; 'I' for Inactive)
REMARK    1  A    between atoms: C_2  and  O_3
REMARK    2  A    between atoms: C_2  and  C_4
REMARK    3  A    between atoms: C_4  and  C_5
REMARK    4  A    between atoms: C_5  and  C_6
REMARK    5  A    between atoms: C_6  and  C_7
REMARK    6  A    between atoms: C_8  and  C_9
REMARK    7  A    between atoms: C_9  and  C_10
REMARK    8  A    between atoms: C_16  and  C_17
REMARK    9  A    between atoms: C_17  and  N_18
REMARK   10  A    between atoms: N_21  and  C_22
REMARK   11  A    between atoms: C_22  and  C_23
REMARK                            x       y       z     vdW  Elec       q    Type
REMARK                         _______ _______ _______ _____ _____    ______ ____
ROOT
ATOM      1  C   UNL     1       2.141   3.934  18.751  0.00  0.00    +0.000 C 
ATOM      2  C   UNL     1       0.973   3.509  19.667  0.00  0.00    +0.000 C 
ATOM      3  C   UNL     1       1.325   2.406  20.663  0.00  0.00    +0.000 C 
ATOM      4  C   UNL     1       2.329   3.114  21.567  0.00  0.00    +0.000 C 
ATOM      5  C   UNL     1       2.265   4.557  21.054  0.00  0.00    +0.000 C 
ATOM      6  O   UNL     1       0.905   4.644  20.564  0.00  0.00    +0.000 OA
ATOM      7  C   UNL     1       3.064   4.691  19.749  0.00  0.00    +0.000 C 
ENDROOT
BRANCH   1   8
ATOM      8  C   UNL     1       2.804   2.779  17.999  0.00  0.00    +0.000 C 
BRANCH   8  10
ATOM      9  C   UNL     1       4.412   3.965  16.497  0.00  0.00    +0.000 C 
ATOM     10  C   UNL     1       4.176   3.101  17.495  0.00  0.00    +0.000 C 
BRANCH   9  11
ATOM     11  C   UNL     1       5.800   4.215  15.989  0.00  0.00    +0.000 C 
BRANCH  11  12
ATOM     12  C   UNL     1       6.441   5.394  16.713  0.00  0.00    +0.000 C 
BRANCH  12  13
ATOM     13  C   UNL     1       7.545   4.931  17.673  0.00  0.00    +0.000 C 
BRANCH  13  15
ATOM     14  O   UNL     1       6.733   5.329  19.897  0.00  0.00    +0.000 OA
ATOM     15  C   UNL     1       7.486   5.630  19.000  0.00  0.00    +0.000 C 
BRANCH  15  16
ATOM     16  O   UNL     1       8.376   6.641  19.146  0.00  0.00    +0.000 OA
ATOM     17  H   UNL     1       8.080   7.394  19.678  0.00  0.00    +0.000 HD
ENDBRANCH  15  16
ENDBRANCH  13  15
ENDBRANCH  12  13
ENDBRANCH  11  12
ENDBRANCH   9  11
ENDBRANCH   8  10
ENDBRANCH   1   8
BRANCH   7  18
ATOM     18  C   UNL     1       3.254   6.170  19.347  0.00  0.00    +0.000 C 
BRANCH  18  19
ATOM     19  N   UNL     1       2.375   7.096  20.065  0.00  0.00    +0.000 N 
ATOM     20  C   UNL     1       1.828   8.186  19.454  0.00  0.00    +0.000 C 
ATOM     21  O   UNL     1       2.026   8.475  18.267  0.00  0.00    +0.000 OA
ATOM     22  N   UNL     1       1.088   8.960  20.300  0.00  0.00    +0.000 N 
ATOM     23  H   UNL     1       2.569   7.222  21.048  0.00  0.00    +0.000 HD
ATOM     24  H   UNL     1       0.702   8.516  21.124  0.00  0.00    +0.000 HD
BRANCH  22  25
ATOM     25  C   UNL     1       0.454  10.170  19.819  0.00  0.00    +0.000 C 
BRANCH  25  26
ATOM     26  C   UNL     1      -0.432  10.789  20.870  0.00  0.00    +0.000 A 
ATOM     27  C   UNL     1      -1.269  11.868  20.549  0.00  0.00    +0.000 A 
ATOM     28  C   UNL     1      -2.070  12.462  21.526  0.00  0.00    +0.000 A 
ATOM     29  C   UNL     1      -2.047  11.984  22.834  0.00  0.00    +0.000 A 
ATOM     30  C   UNL     1      -1.231  10.906  23.164  0.00  0.00    +0.000 A 
ATOM     31  C   UNL     1      -0.424  10.310  22.189  0.00  0.00    +0.000 A 
ENDBRANCH  25  26
ENDBRANCH  22  25
ENDBRANCH  18  19
ENDBRANCH   7  18
TORSDOF 11
ENDMDL
MODEL 2
REMARK VINA RESULT:      -7.7      1.709      4.581
REMARK  Name = 
REMARK  11 active torsions:
REMARK  status: ('A' for Active; 'I' for Inactive)
REMARK    1  A    between atoms: C_2  and  O_3
REMARK    2  A    between atoms: C_2  and  C_4
REMARK    3  A    between atoms: C_4  and  C_5
REMARK    4  A    between atoms: C_5  and  C_6
REMARK    5  A    between atoms: C_6  and  C_7
REMARK    6  A    between atoms: C_8  and  C_9
REMARK    7  A    between atoms: C_9  and  C_10
REMARK    8  A    between atoms: C_16  and  C_17
REMARK    9  A    between atoms: C_17  and  N_18
REMARK   10  A    between atoms: N_21  and  C_22
REMARK   11  A    between atoms: C_22  and  C_23
REMARK                            x       y       z     vdW  Elec       q    Type
REMARK                         _______ _______ _______ _____ _____    ______ ____
ROOT
ATOM      1  C   UNL     1       5.839   5.536  17.741  0.00  0.00    +0.000 C 
ATOM      2  C   UNL     1       6.918   5.206  16.687  0.00  0.00    +0.000 C 
ATOM      3  C   UNL     1       6.622   3.962  15.853  0.00  0.00    +0.000 C 
ATOM      4  C   UNL     1       5.391   4.401  15.067  0.00  0.00    +0.000 C 
ATOM      5  C   UNL     1       5.278   5.882  15.445  0.00  0.00    +0.000 C 
ATOM      6  O   UNL     1       6.659   6.235  15.702  0.00  0.00    +0.000 OA
ATOM      7  C   UNL     1       4.664   6.027  16.846  0.00  0.00    +0.000 C 
ENDROOT
BRANCH   1   8
ATOM      8  C   UNL     1       5.502   4.377  18.681  0.00  0.00    +0.000 C 
BRANCH   8  10
ATOM      9  C   UNL     1       3.775   2.746  17.903  0.00  0.00    +0.000 C 
ATOM     10  C   UNL     1       4.097   3.881  18.540  0.00  0.00    +0.000 C 
BRANCH   9  11
ATOM     11  C   UNL     1       2.348   2.316  17.739  0.00  0.00    +0.000 C 
BRANCH  11  12
ATOM     12  C   UNL     1       1.424   3.144  18.626  0.00  0.00    +0.000 C 
BRANCH  12  13
ATOM     13  C   UNL     1       1.133   2.432  19.954  0.00  0.00    +0.000 C 
BRANCH  13  15
ATOM     14  O   UNL     1       1.962   4.374  21.092  0.00  0.00    +0.000 OA
ATOM     15  C   UNL     1       1.565   3.234  21.146  0.00  0.00    +0.000 C 
BRANCH  15  16
ATOM     16  O   UNL     1       1.458   2.587  22.332  0.00  0.00    +0.000 OA
ATOM     17  H   UNL     1       0.686   2.814  22.871  0.00  0.00    +0.000 HD
ENDBRANCH  15  16
ENDBRANCH  13  15
ENDBRANCH  12  13
ENDBRANCH  11  12
ENDBRANCH   9  11
ENDBRANCH   8  10
ENDBRANCH   1   8
BRANCH   7  18
ATOM     18  C   UNL     1       4.282   7.491  17.152  0.00  0.00    +0.000 C 
BRANCH  18  19
ATOM     19  N   UNL     1       3.157   7.627  18.081  0.00  0.00    +0.000 N 
ATOM     20  C   UNL     1       2.310   8.695  18.031  0.00  0.00    +0.000 C 
ATOM     21  O   UNL     1       2.420   9.617  17.212  0.00  0.00    +0.000 OA
ATOM     22  N   UNL     1       1.364   8.675  19.014  0.00  0.00    +0.000 N 
ATOM     23  H   UNL     1       3.297   7.249  19.006  0.00  0.00    +0.000 HD
ATOM     24  H   UNL     1       1.125   7.778  19.415  0.00  0.00    +0.000 HD
BRANCH  22  25
ATOM     25  C   UNL     1       0.396   9.748  19.120  0.00  0.00    +0.000 C 
BRANCH  25  26
ATOM     26  C   UNL     1      -0.047   9.957  20.545  0.00  0.00    +0.000 A 
ATOM     27  C   UNL     1      -0.512  11.211  20.969  0.00  0.00    +0.000 A 
ATOM     28  C   UNL     1      -0.898  11.417  22.295  0.00  0.00    +0.000 A 
ATOM     29  C   UNL     1      -0.823  10.372  23.213  0.00  0.00    +0.000 A 
ATOM     30  C   UNL     1      -0.375   9.119  22.805  0.00  0.00    +0.000 A 
ATOM     31  C   UNL     1       0.015   8.910  21.477  0.00  0.00    +0.000 A 
ENDBRANCH  25  26
ENDBRANCH  22  25
ENDBRANCH  18  19
ENDBRANCH   7  18
TORSDOF 11
ENDMDL
MODEL 3
REMARK VINA RESULT:      -7.6      1.863      2.420
REMARK  Name = 
REMARK  11 active torsions:
REMARK  status: ('A' for Active; 'I' for Inactive)
REMARK    1  A    between atoms: C_2  and  O_3
REMARK    2  A    between atoms: C_2  and  C_4
REMARK    3  A    between atoms: C_4  and  C_5
REMARK    4  A    between atoms: C_5  and  C_6
REMARK    5  A    between atoms: C_6  and  C_7
REMARK    6  A    between atoms: C_8  and  C_9
REMARK    7  A    between atoms: C_9  and  C_10
REMARK    8  A    between atoms: C_16  and  C_17
REMARK    9  A    between atoms: C_17  and  N_18
REMARK   10  A    between atoms: N_21  and  C_22
REMARK   11  A    between atoms: C_22  and  C_23
REMARK                            x       y       z     vdW  Elec       q    Type
REMARK                         _______ _______ _______ _____ _____    ______ ____
ROOT
ATOM      1  C   UNL     1       2.590   3.635  17.976  0.00  0.00    +0.000 C 
ATOM      2  C   UNL     1       2.385   2.185  18.464  0.00  0.00    +0.000 C 
ATOM      3  C   UNL     1       3.679   1.399  18.661  0.00  0.00    +0.000 C 
ATOM      4  C   UNL     1       4.321   2.146  19.826  0.00  0.00    +0.000 C 
ATOM      5  C   UNL     1       3.217   3.131  20.225  0.00  0.00    +0.000 C 
ATOM      6  O   UNL     1       2.018   2.413  19.847  0.00  0.00    +0.000 OA
ATOM      7  C   UNL     1       3.183   4.314  19.245  0.00  0.00    +0.000 C 
ENDROOT
BRANCH   1   8
ATOM      8  C   UNL     1       3.442   3.759  16.712  0.00  0.00    +0.000 C 
BRANCH   8  10
ATOM      9  C   UNL     1       5.676   4.653  16.034  0.00  0.00    +0.000 C 
ATOM     10  C   UNL     1       4.634   4.649  16.878  0.00  0.00    +0.000 C 
BRANCH   9  11
ATOM     11  C   UNL     1       6.873   5.524  16.270  0.00  0.00    +0.000 C 
BRANCH  11  12
ATOM     12  C   UNL     1       6.605   6.529  17.385  0.00  0.00    +0.000 C 
BRANCH  12  13
ATOM     13  C   UNL     1       7.763   6.575  18.391  0.00  0.00    +0.000 C 
BRANCH  13  15
ATOM     14  O   UNL     1       6.511   5.136  19.847  0.00  0.00    +0.000 OA
ATOM     15  C   UNL     1       7.573   5.623  19.535  0.00  0.00    +0.000 C 
BRANCH  15  16
ATOM     16  O   UNL     1       8.708   5.312  20.207  0.00  0.00    +0.000 OA
ATOM     17  H   UNL     1       9.188   4.533  19.891  0.00  0.00    +0.000 HD
ENDBRANCH  15  16
ENDBRANCH  13  15
ENDBRANCH  12  13
ENDBRANCH  11  12
ENDBRANCH   9  11
ENDBRANCH   8  10
ENDBRANCH   1   8
BRANCH   7  18
ATOM     18  C   UNL     1       2.280   5.455  19.761  0.00  0.00    +0.000 C 
BRANCH  18  19
ATOM     19  N   UNL     1       2.209   6.607  18.858  0.00  0.00    +0.000 N 
ATOM     20  C   UNL     1       1.928   7.861  19.316  0.00  0.00    +0.000 C 
ATOM     21  O   UNL     1       1.715   8.122  20.508  0.00  0.00    +0.000 OA
ATOM     22  N   UNL     1       1.846   8.789  18.320  0.00  0.00    +0.000 N 
ATOM     23  H   UNL     1       1.876   6.420  17.924  0.00  0.00    +0.000 HD
ATOM     24  H   UNL     1       2.339   8.596  17.457  0.00  0.00    +0.000 HD
BRANCH  22  25
ATOM     25  C   UNL     1       1.532  10.169  18.629  0.00  0.00    +0.000 C 
BRANCH  25  26
ATOM     26  C   UNL     1       0.058  10.449  18.486  0.00  0.00    +0.000 A 
ATOM     27  C   UNL     1      -0.570  11.396  19.309  0.00  0.00    +0.000 A 
ATOM     28  C   UNL     1      -1.940  11.638  19.200  0.00  0.00    +0.000 A 
ATOM     29  C   UNL     1      -2.700  10.938  18.266  0.00  0.00    +0.000 A 
ATOM     30  C   UNL     1      -2.090  10.004  17.433  0.00  0.00    +0.000 A 
ATOM     31  C   UNL     1      -0.716   9.757  17.543  0.00  0.00    +0.000 A 
ENDBRANCH  25  26
ENDBRANCH  22  25
ENDBRANCH  18  19
ENDBRANCH   7  18
TORSDOF 11
ENDMDL
MODEL 4
REMARK VINA RESULT:      -7.4      1.889      2.485
REMARK  Name = 
REMARK  11 active torsions:
REMARK  status: ('A' for Active; 'I' for Inactive)
REMARK    1  A    between atoms: C_2  and  O_3
REMARK    2  A    between atoms: C_2  and  C_4
REMARK    3  A    between atoms: C_4  and  C_5
REMARK    4  A    between atoms: C_5  and  C_6
REMARK    5  A    between atoms: C_6  and  C_7
REMARK    6  A    between atoms: C_8  and  C_9
REMARK    7  A    between atoms: C_9  and  C_10
REMARK    8  A    between atoms: C_16  and  C_17
REMARK    9  A    between atoms: C_17  and  N_18
REMARK   10  A    between atoms: N_21  and  C_22
REMARK   11  A    between atoms: C_22  and  C_23
REMARK                            x       y       z     vdW  Elec       q    Type
REMARK                         _______ _______ _______ _____ _____    ______ ____
ROOT
ATOM      1  C   UNL     1       2.519   4.308  17.996  0.00  0.00    +0.000 C 
ATOM      2  C   UNL     1       1.143   3.779  18.455  0.00  0.00    +0.000 C 
ATOM      3  C   UNL     1       1.158   2.333  18.945  0.00  0.00    +0.000 C 
ATOM      4  C   UNL     1       2.006   2.443  20.208  0.00  0.00    +0.000 C 
ATOM      5  C   UNL     1       2.198   3.958  20.338  0.00  0.00    +0.000 C 
ATOM      6  O   UNL     1       0.993   4.470  19.719  0.00  0.00    +0.000 OA
ATOM      7  C   UNL     1       3.272   4.442  19.351  0.00  0.00    +0.000 C 
ENDROOT
BRANCH   1   8
ATOM      8  C   UNL     1       3.211   3.437  16.948  0.00  0.00    +0.000 C 
BRANCH   8  10
ATOM      9  C   UNL     1       5.324   4.510  16.152  0.00  0.00    +0.000 C 
ATOM     10  C   UNL     1       4.698   3.604  16.918  0.00  0.00    +0.000 C 
BRANCH   9  11
ATOM     11  C   UNL     1       6.819   4.605  16.113  0.00  0.00    +0.000 C 
BRANCH  11  12
ATOM     12  C   UNL     1       7.399   4.664  17.523  0.00  0.00    +0.000 C 
BRANCH  12  13
ATOM     13  C   UNL     1       6.917   5.911  18.276  0.00  0.00    +0.000 C 
BRANCH  13  15
ATOM     14  O   UNL     1       7.708   7.763  16.971  0.00  0.00    +0.000 OA
ATOM     15  C   UNL     1       7.761   7.119  17.993  0.00  0.00    +0.000 C 
BRANCH  15  16
ATOM     16  O   UNL     1       8.600   7.470  18.997  0.00  0.00    +0.000 OA
ATOM     17  H   UNL     1       8.932   8.379  18.975  0.00  0.00    +0.000 HD
ENDBRANCH  15  16
ENDBRANCH  13  15
ENDBRANCH  12  13
ENDBRANCH  11  12
ENDBRANCH   9  11
ENDBRANCH   8  10
ENDBRANCH   1   8
BRANCH   7  18
ATOM     18  C   UNL     1       3.691   5.900  19.636  0.00  0.00    +0.000 C 
BRANCH  18  19
ATOM     19  N   UNL     1       3.135   6.871  18.689  0.00  0.00    +0.000 N 
ATOM     20  C   UNL     1       2.176   7.767  19.061  0.00  0.00    +0.000 C 
ATOM     21  O   UNL     1       1.709   7.833  20.206  0.00  0.00    +0.000 OA
ATOM     22  N   UNL     1       1.742   8.546  18.028  0.00  0.00    +0.000 N 
ATOM     23  H   UNL     1       3.073   6.569  17.728  0.00  0.00    +0.000 HD
ATOM     24  H   UNL     1       2.366   8.674  17.243  0.00  0.00    +0.000 HD
BRANCH  22  25
ATOM     25  C   UNL     1       0.707   9.537  18.244  0.00  0.00    +0.000 C 
BRANCH  25  26
ATOM     26  C   UNL     1       1.285  10.852  18.701  0.00  0.00    +0.000 A 
ATOM     27  C   UNL     1       2.177  11.560  17.882  0.00  0.00    +0.000 A 
ATOM     28  C   UNL     1       2.736  12.765  18.312  0.00  0.00    +0.000 A 
ATOM     29  C   UNL     1       2.410  13.277  19.566  0.00  0.00    +0.000 A 
ATOM     30  C   UNL     1       1.517  12.591  20.385  0.00  0.00    +0.000 A 
ATOM     31  C   UNL     1       0.957  11.382  19.958  0.00  0.00    +0.000 A 
ENDBRANCH  25  26
ENDBRANCH  22  25
ENDBRANCH  18  19
ENDBRANCH   7  18
TORSDOF 11
ENDMDL
MODEL 5
REMARK VINA RESULT:      -7.4      1.562      2.081
REMARK  Name = 
REMARK  11 active torsions:
REMARK  status: ('A' for Active; 'I' for Inactive)
REMARK    1  A    between atoms: C_2  and  O_3
REMARK    2  A    between atoms: C_2  and  C_4
REMARK    3  A    between atoms: C_4  and  C_5
REMARK    4  A    between atoms: C_5  and  C_6
REMARK    5  A    between atoms: C_6  and  C_7
REMARK    6  A    between atoms: C_8  and  C_9
REMARK    7  A    between atoms: C_9  and  C_10
REMARK    8  A    between atoms: C_16  and  C_17
REMARK    9  A    between atoms: C_17  and  N_18
REMARK   10  A    between atoms: N_21  and  C_22
REMARK   11  A    between atoms: C_22  and  C_23
REMARK                            x       y       z     vdW  Elec       q    Type
REMARK                         _______ _______ _______ _____ _____    ______ ____
ROOT
ATOM      1  C   UNL     1       1.992   4.092  18.910  0.00  0.00    +0.000 C 
ATOM      2  C   UNL     1       0.812   3.866  19.879  0.00  0.00    +0.000 C 
ATOM      3  C   UNL     1       0.942   2.616  20.746  0.00  0.00    +0.000 C 
ATOM      4  C   UNL     1       2.139   2.970  21.622  0.00  0.00    +0.000 C 
ATOM      5  C   UNL     1       2.398   4.432  21.240  0.00  0.00    +0.000 C 
ATOM      6  O   UNL     1       1.074   4.888  20.871  0.00  0.00    +0.000 OA
ATOM      7  C   UNL     1       3.129   4.505  19.890  0.00  0.00    +0.000 C 
ENDROOT
BRANCH   1   8
ATOM      8  C   UNL     1       2.308   2.896  18.011  0.00  0.00    +0.000 C 
BRANCH   8  10
ATOM      9  C   UNL     1       4.300   3.839  16.832  0.00  0.00    +0.000 C 
ATOM     10  C   UNL     1       3.093   3.256  16.789  0.00  0.00    +0.000 C 
BRANCH   9  11
ATOM     11  C   UNL     1       5.025   4.232  15.580  0.00  0.00    +0.000 C 
BRANCH  11  12
ATOM     12  C   UNL     1       5.559   5.657  15.684  0.00  0.00    +0.000 C 
BRANCH  12  13
ATOM     13  C   UNL     1       6.260   5.898  17.027  0.00  0.00    +0.000 C 
BRANCH  13  15
ATOM     14  O   UNL     1       8.096   4.396  16.665  0.00  0.00    +0.000 OA
ATOM     15  C   UNL     1       7.213   4.796  17.387  0.00  0.00    +0.000 C 
BRANCH  15  16
ATOM     16  O   UNL     1       7.031   4.274  18.624  0.00  0.00    +0.000 OA
ATOM     17  H   UNL     1       6.831   3.327  18.659  0.00  0.00    +0.000 HD
ENDBRANCH  15  16
ENDBRANCH  13  15
ENDBRANCH  12  13
ENDBRANCH  11  12
ENDBRANCH   9  11
ENDBRANCH   8  10
ENDBRANCH   1   8
BRANCH   7  18
ATOM     18  C   UNL     1       3.649   5.929  19.600  0.00  0.00    +0.000 C 
BRANCH  18  19
ATOM     19  N   UNL     1       2.621   6.967  19.706  0.00  0.00    +0.000 N 
ATOM     20  C   UNL     1       2.416   7.878  18.711  0.00  0.00    +0.000 C 
ATOM     21  O   UNL     1       3.069   7.900  17.659  0.00  0.00    +0.000 OA
ATOM     22  N   UNL     1       1.459   8.800  19.018  0.00  0.00    +0.000 N 
ATOM     23  H   UNL     1       2.434   7.316  20.635  0.00  0.00    +0.000 HD
ATOM     24  H   UNL     1       0.762   8.542  19.704  0.00  0.00    +0.000 HD
BRANCH  22  25
ATOM     25  C   UNL     1       1.131   9.855  18.080  0.00  0.00    +0.000 C 
BRANCH  25  26
ATOM     26  C   UNL     1      -0.254  10.398  18.316  0.00  0.00    +0.000 A 
ATOM     27  C   UNL     1      -1.328   9.981  17.515  0.00  0.00    +0.000 A 
ATOM     28  C   UNL     1      -2.608  10.503  17.711  0.00  0.00    +0.000 A 
ATOM     29  C   UNL     1      -2.832  11.446  18.712  0.00  0.00    +0.000 A 
ATOM     30  C   UNL     1      -1.779  11.860  19.523  0.00  0.00    +0.000 A 
ATOM     31  C   UNL     1      -0.494  11.342  19.326  0.00  0.00    +0.000 A 
ENDBRANCH  25  26
ENDBRANCH  22  25
ENDBRANCH  18  19
ENDBRANCH   7  18
TORSDOF 11
ENDMDL
MODEL 6
REMARK VINA RESULT:      -7.3      3.835      7.515
REMARK  Name = 
REMARK  11 active torsions:
REMARK  status: ('A' for Active; 'I' for Inactive)
REMARK    1  A    between atoms: C_2  and  O_3
REMARK    2  A    between atoms: C_2  and  C_4
REMARK    3  A    between atoms: C_4  and  C_5
REMARK    4  A    between atoms: C_5  and  C_6
REMARK    5  A    between atoms: C_6  and  C_7
REMARK    6  A    between atoms: C_8  and  C_9
REMARK    7  A    between atoms: C_9  and  C_10
REMARK    8  A    between atoms: C_16  and  C_17
REMARK    9  A    between atoms: C_17  and  N_18
REMARK   10  A    between atoms: N_21  and  C_22
REMARK   11  A    between atoms: C_22  and  C_23
REMARK                            x       y       z     vdW  Elec       q    Type
REMARK                         _______ _______ _______ _____ _____    ______ ____
ROOT
ATOM      1  C   UNL     1       4.081   5.901  18.320  0.00  0.00    +0.000 C 
ATOM      2  C   UNL     1       3.000   4.998  18.953  0.00  0.00    +0.000 C 
ATOM      3  C   UNL     1       1.986   4.440  17.958  0.00  0.00    +0.000 C 
ATOM      4  C   UNL     1       2.858   3.518  17.111  0.00  0.00    +0.000 C 
ATOM      5  C   UNL     1       4.195   3.560  17.860  0.00  0.00    +0.000 C 
ATOM      6  O   UNL     1       3.771   3.802  19.224  0.00  0.00    +0.000 OA
ATOM      7  C   UNL     1       4.940   4.865  17.540  0.00  0.00    +0.000 C 
ENDROOT
BRANCH   1   8
ATOM      8  C   UNL     1       3.526   7.052  17.479  0.00  0.00    +0.000 C 
BRANCH   8  10
ATOM      9  C   UNL     1       1.588   8.597  17.805  0.00  0.00    +0.000 C 
ATOM     10  C   UNL     1       2.712   8.031  18.267  0.00  0.00    +0.000 C 
BRANCH   9  11
ATOM     11  C   UNL     1       0.835   9.615  18.608  0.00  0.00    +0.000 C 
BRANCH  11  12
ATOM     12  C   UNL     1       1.166   9.491  20.092  0.00  0.00    +0.000 C 
BRANCH  12  13
ATOM     13  C   UNL     1      -0.039   9.861  20.968  0.00  0.00    +0.000 C 
BRANCH  13  15
ATOM     14  O   UNL     1       1.298   9.595  22.944  0.00  0.00    +0.000 OA
ATOM     15  C   UNL     1       0.206   9.599  22.426  0.00  0.00    +0.000 C 
BRANCH  15  16
ATOM     16  O   UNL     1      -0.914   9.382  23.157  0.00  0.00    +0.000 OA
ATOM     17  H   UNL     1      -1.721   9.807  22.832  0.00  0.00    +0.000 HD
ENDBRANCH  15  16
ENDBRANCH  13  15
ENDBRANCH  12  13
ENDBRANCH  11  12
ENDBRANCH   9  11
ENDBRANCH   8  10
ENDBRANCH   1   8
BRANCH   7  18
ATOM     18  C   UNL     1       6.398   4.828  18.049  0.00  0.00    +0.000 C 
BRANCH  18  19
ATOM     19  N   UNL     1       6.897   6.126  18.509  0.00  0.00    +0.000 N 
ATOM     20  C   UNL     1       7.427   7.038  17.645  0.00  0.00    +0.000 C 
ATOM     21  O   UNL     1       7.525   6.848  16.425  0.00  0.00    +0.000 OA
ATOM     22  N   UNL     1       7.892   8.159  18.268  0.00  0.00    +0.000 N 
ATOM     23  H   UNL     1       7.301   6.144  19.434  0.00  0.00    +0.000 HD
ATOM     24  H   UNL     1       7.496   8.393  19.169  0.00  0.00    +0.000 HD
BRANCH  22  25
ATOM     25  C   UNL     1       8.507   9.222  17.499  0.00  0.00    +0.000 C 
BRANCH  25  26
ATOM     26  C   UNL     1       8.919  10.376  18.376  0.00  0.00    +0.000 A 
ATOM     27  C   UNL     1       9.314  10.155  19.704  0.00  0.00    +0.000 A 
ATOM     28  C   UNL     1       9.669  11.224  20.529  0.00  0.00    +0.000 A 
ATOM     29  C   UNL     1       9.634  12.526  20.038  0.00  0.00    +0.000 A 
ATOM     30  C   UNL     1       9.256  12.761  18.719  0.00  0.00    +0.000 A 
ATOM     31  C   UNL     1       8.896  11.692  17.890  0.00  0.00    +0.000 A 
ENDBRANCH  25  26
ENDBRANCH  22  25
ENDBRANCH  18  19
ENDBRANCH   7  18
TORSDOF 11
ENDMDL
MODEL 7
REMARK VINA RESULT:      -7.3      2.429      2.959
REMARK  Name = 
REMARK  11 active torsions:
REMARK  status: ('A' for Active; 'I' for Inactive)
REMARK    1  A    between atoms: C_2  and  O_3
REMARK    2  A    between atoms: C_2  and  C_4
REMARK    3  A    between atoms: C_4  and  C_5
REMARK    4  A    between atoms: C_5  and  C_6
REMARK    5  A    between atoms: C_6  and  C_7
REMARK    6  A    between atoms: C_8  and  C_9
REMARK    7  A    between atoms: C_9  and  C_10
REMARK    8  A    between atoms: C_16  and  C_17
REMARK    9  A    between atoms: C_17  and  N_18
REMARK   10  A    between atoms: N_21  and  C_22
REMARK   11  A    between atoms: C_22  and  C_23
REMARK                            x       y       z     vdW  Elec       q    Type
REMARK                         _______ _______ _______ _____ _____    ______ ____
ROOT
ATOM      1  C   UNL     1       1.150   4.307  19.304  0.00  0.00    +0.000 C 
ATOM      2  C   UNL     1       0.872   2.918  19.919  0.00  0.00    +0.000 C 
ATOM      3  C   UNL     1       1.978   1.893  19.680  0.00  0.00    +0.000 C 
ATOM      4  C   UNL     1       3.129   2.485  20.487  0.00  0.00    +0.000 C 
ATOM      5  C   UNL     1       2.452   3.661  21.200  0.00  0.00    +0.000 C 
ATOM      6  O   UNL     1       1.086   3.195  21.324  0.00  0.00    +0.000 OA
ATOM      7  C   UNL     1       2.281   4.841  20.230  0.00  0.00    +0.000 C 
ENDROOT
BRANCH   1   8
ATOM      8  C   UNL     1       1.487   4.280  17.812  0.00  0.00    +0.000 C 
BRANCH   8  10
ATOM      9  C   UNL     1       3.791   3.585  17.140  0.00  0.00    +0.000 C 
ATOM     10  C   UNL     1       2.931   4.541  17.520  0.00  0.00    +0.000 C 
BRANCH   9  11
ATOM     11  C   UNL     1       5.242   3.883  16.910  0.00  0.00    +0.000 C 
BRANCH  11  12
ATOM     12  C   UNL     1       5.417   5.202  16.165  0.00  0.00    +0.000 C 
BRANCH  12  13
ATOM     13  C   UNL     1       6.867   5.398  15.703  0.00  0.00    +0.000 C 
BRANCH  13  15
ATOM     14  O   UNL     1       6.524   3.985  13.794  0.00  0.00    +0.000 OA
ATOM     15  C   UNL     1       7.094   4.925  14.297  0.00  0.00    +0.000 C 
BRANCH  15  16
ATOM     16  O   UNL     1       7.992   5.656  13.593  0.00  0.00    +0.000 OA
ATOM     17  H   UNL     1       8.295   5.267  12.759  0.00  0.00    +0.000 HD
ENDBRANCH  15  16
ENDBRANCH  13  15
ENDBRANCH  12  13
ENDBRANCH  11  12
ENDBRANCH   9  11
ENDBRANCH   8  10
ENDBRANCH   1   8
BRANCH   7  18
ATOM     18  C   UNL     1       1.859   6.129  20.969  0.00  0.00    +0.000 C 
BRANCH  18  19
ATOM     19  N   UNL     1       1.914   7.333  20.137  0.00  0.00    +0.000 N 
ATOM     20  C   UNL     1       1.210   8.458  20.455  0.00  0.00    +0.000 C 
ATOM     21  O   UNL     1       0.484   8.551  21.454  0.00  0.00    +0.000 OA
ATOM     22  N   UNL     1       1.341   9.452  19.529  0.00  0.00    +0.000 N 
ATOM     23  H   UNL     1       2.035   7.184  19.146  0.00  0.00    +0.000 HD
ATOM     24  H   UNL     1       2.169   9.444  18.947  0.00  0.00    +0.000 HD
BRANCH  22  25
ATOM     25  C   UNL     1       0.641  10.708  19.701  0.00  0.00    +0.000 C 
BRANCH  25  26
ATOM     26  C   UNL     1      -0.641  10.743  18.909  0.00  0.00    +0.000 A 
ATOM     27  C   UNL     1      -1.689  11.594  19.290  0.00  0.00    +0.000 A 
ATOM     28  C   UNL     1      -2.889  11.609  18.576  0.00  0.00    +0.000 A 
ATOM     29  C   UNL     1      -3.055  10.776  17.473  0.00  0.00    +0.000 A 
ATOM     30  C   UNL     1      -2.019   9.935  17.075  0.00  0.00    +0.000 A 
ATOM     31  C   UNL     1      -0.816   9.915  17.790  0.00  0.00    +0.000 A 
ENDBRANCH  25  26
ENDBRANCH  22  25
ENDBRANCH  18  19
ENDBRANCH   7  18
TORSDOF 11
ENDMDL
MODEL 8
REMARK VINA RESULT:      -7.3      4.972      8.268
REMARK  Name = 
REMARK  11 active torsions:
REMARK  status: ('A' for Active; 'I' for Inactive)
REMARK    1  A    between atoms: C_2  and  O_3
REMARK    2  A    between atoms: C_2  and  C_4
REMARK    3  A    between atoms: C_4  and  C_5
REMARK    4  A    between atoms: C_5  and  C_6
REMARK    5  A    between atoms: C_6  and  C_7
REMARK    6  A    between atoms: C_8  and  C_9
REMARK    7  A    between atoms: C_9  and  C_10
REMARK    8  A    between atoms: C_16  and  C_17
REMARK    9  A    between atoms: C_17  and  N_18
REMARK   10  A    between atoms: N_21  and  C_22
REMARK   11  A    between atoms: C_22  and  C_23
REMARK                            x       y       z     vdW  Elec       q    Type
REMARK                         _______ _______ _______ _____ _____    ______ ____
ROOT
ATOM      1  C   UNL     1       5.662   5.875  17.904  0.00  0.00    +0.000 C 
ATOM      2  C   UNL     1       5.703   4.431  17.357  0.00  0.00    +0.000 C 
ATOM      3  C   UNL     1       4.927   4.230  16.057  0.00  0.00    +0.000 C 
ATOM      4  C   UNL     1       5.740   5.072  15.078  0.00  0.00    +0.000 C 
ATOM      5  C   UNL     1       6.947   5.481  15.929  0.00  0.00    +0.000 C 
ATOM      6  O   UNL     1       7.059   4.371  16.852  0.00  0.00    +0.000 OA
ATOM      7  C   UNL     1       6.561   6.625  16.880  0.00  0.00    +0.000 C 
ENDROOT
BRANCH   1   8
ATOM      8  C   UNL     1       4.252   6.444  18.074  0.00  0.00    +0.000 C 
BRANCH   8  10
ATOM      9  C   UNL     1       2.302   6.267  19.627  0.00  0.00    +0.000 C 
ATOM     10  C   UNL     1       3.475   5.798  19.178  0.00  0.00    +0.000 C 
BRANCH   9  11
ATOM     11  C   UNL     1       1.585   5.619  20.773  0.00  0.00    +0.000 C 
BRANCH  11  12
ATOM     12  C   UNL     1       2.161   4.237  21.064  0.00  0.00    +0.000 C 
BRANCH  12  13
ATOM     13  C   UNL     1       1.288   3.127  20.464  0.00  0.00    +0.000 C 
BRANCH  13  15
ATOM     14  O   UNL     1       3.229   2.197  19.402  0.00  0.00    +0.000 OA
ATOM     15  C   UNL     1       2.025   2.294  19.456  0.00  0.00    +0.000 C 
BRANCH  15  16
ATOM     16  O   UNL     1       1.230   1.615  18.594  0.00  0.00    +0.000 OA
ATOM     17  H   UNL     1       0.472   1.158  18.986  0.00  0.00    +0.000 HD
ENDBRANCH  15  16
ENDBRANCH  13  15
ENDBRANCH  12  13
ENDBRANCH  11  12
ENDBRANCH   9  11
ENDBRANCH   8  10
ENDBRANCH   1   8
BRANCH   7  18
ATOM     18  C   UNL     1       7.802   7.249  17.553  0.00  0.00    +0.000 C 
BRANCH  18  19
ATOM     19  N   UNL     1       7.883   8.705  17.411  0.00  0.00    +0.000 N 
ATOM     20  C   UNL     1       8.525   9.481  18.331  0.00  0.00    +0.000 C 
ATOM     21  O   UNL     1       9.082   9.027  19.340  0.00  0.00    +0.000 OA
ATOM     22  N   UNL     1       8.442  10.815  18.058  0.00  0.00    +0.000 N 
ATOM     23  H   UNL     1       7.097   9.153  16.964  0.00  0.00    +0.000 HD
ATOM     24  H   UNL     1       8.281  11.088  17.097  0.00  0.00    +0.000 HD
BRANCH  22  25
ATOM     25  C   UNL     1       9.051  11.784  18.947  0.00  0.00    +0.000 C 
BRANCH  25  26
ATOM     26  C   UNL     1       9.918  12.760  18.195  0.00  0.00    +0.000 A 
ATOM     27  C   UNL     1       9.629  14.133  18.218  0.00  0.00    +0.000 A 
ATOM     28  C   UNL     1      10.412  15.038  17.500  0.00  0.00    +0.000 A 
ATOM     29  C   UNL     1      11.496  14.583  16.752  0.00  0.00    +0.000 A 
ATOM     30  C   UNL     1      11.803  13.226  16.729  0.00  0.00    +0.000 A 
ATOM     31  C   UNL     1      11.017  12.315  17.445  0.00  0.00    +0.000 A 
ENDBRANCH  25  26
ENDBRANCH  22  25
ENDBRANCH  18  19
ENDBRANCH   7  18
TORSDOF 11
ENDMDL
MODEL 9
REMARK VINA RESULT:      -7.3      4.064      7.595
REMARK  Name = 
REMARK  11 active torsions:
REMARK  status: ('A' for Active; 'I' for Inactive)
REMARK    1  A    between atoms: C_2  and  O_3
REMARK    2  A    between atoms: C_2  and  C_4
REMARK    3  A    between atoms: C_4  and  C_5
REMARK    4  A    between atoms: C_5  and  C_6
REMARK    5  A    between atoms: C_6  and  C_7
REMARK    6  A    between atoms: C_8  and  C_9
REMARK    7  A    between atoms: C_9  and  C_10
REMARK    8  A    between atoms: C_16  and  C_17
REMARK    9  A    between atoms: C_17  and  N_18
REMARK   10  A    between atoms: N_21  and  C_22
REMARK   11  A    between atoms: C_22  and  C_23
REMARK                            x       y       z     vdW  Elec       q    Type
REMARK                         _______ _______ _______ _____ _____    ______ ____
ROOT
ATOM      1  C   UNL     1       4.074   6.395  17.910  0.00  0.00    +0.000 C 
ATOM      2  C   UNL     1       3.339   5.397  18.831  0.00  0.00    +0.000 C 
ATOM      3  C   UNL     1       2.120   4.736  18.194  0.00  0.00    +0.000 C 
ATOM      4  C   UNL     1       2.762   3.895  17.095  0.00  0.00    +0.000 C 
ATOM      5  C   UNL     1       4.257   4.071  17.386  0.00  0.00    +0.000 C 
ATOM      6  O   UNL     1       4.264   4.283  18.819  0.00  0.00    +0.000 OA
ATOM      7  C   UNL     1       4.738   5.439  16.877  0.00  0.00    +0.000 C 
ENDROOT
BRANCH   1   8
ATOM      8  C   UNL     1       3.177   7.480  17.313  0.00  0.00    +0.000 C 
BRANCH   8  10
ATOM      9  C   UNL     1       1.834   9.421  18.133  0.00  0.00    +0.000 C 
ATOM     10  C   UNL     1       2.349   8.199  18.331  0.00  0.00    +0.000 C 
BRANCH   9  11
ATOM     11  C   UNL     1       1.056  10.126  19.203  0.00  0.00    +0.000 C 
BRANCH  11  12
ATOM     12  C   UNL     1       0.608   9.150  20.285  0.00  0.00    +0.000 C 
BRANCH  12  13
ATOM     13  C   UNL     1      -0.029   9.882  21.473  0.00  0.00    +0.000 C 
BRANCH  13  15
ATOM     14  O   UNL     1       0.175   9.705  23.858  0.00  0.00    +0.000 OA
ATOM     15  C   UNL     1       0.685   9.615  22.766  0.00  0.00    +0.000 C 
BRANCH  15  16
ATOM     16  O   UNL     1       1.978   9.233  22.628  0.00  0.00    +0.000 OA
ATOM     17  H   UNL     1       2.266   9.029  21.727  0.00  0.00    +0.000 HD
ENDBRANCH  15  16
ENDBRANCH  13  15
ENDBRANCH  12  13
ENDBRANCH  11  12
ENDBRANCH   9  11
ENDBRANCH   8  10
ENDBRANCH   1   8
BRANCH   7  18
ATOM     18  C   UNL     1       6.278   5.546  16.901  0.00  0.00    +0.000 C 
BRANCH  18  19
ATOM     19  N   UNL     1       6.774   6.923  16.939  0.00  0.00    +0.000 N 
ATOM     20  C   UNL     1       7.668   7.338  17.883  0.00  0.00    +0.000 C 
ATOM     21  O   UNL     1       8.123   6.598  18.765  0.00  0.00    +0.000 OA
ATOM     22  N   UNL     1       7.965   8.667  17.793  0.00  0.00    +0.000 N 
ATOM     23  H   UNL     1       6.130   7.638  16.633  0.00  0.00    +0.000 HD
ATOM     24  H   UNL     1       7.836   9.116  16.896  0.00  0.00    +0.000 HD
BRANCH  22  25
ATOM     25  C   UNL     1       8.881   9.277  18.734  0.00  0.00    +0.000 C 
BRANCH  25  26
ATOM     26  C   UNL     1       8.967  10.769  18.538  0.00  0.00    +0.000 A 
ATOM     27  C   UNL     1       9.804  11.547  19.352  0.00  0.00    +0.000 A 
ATOM     28  C   UNL     1       9.866  12.932  19.192  0.00  0.00    +0.000 A 
ATOM     29  C   UNL     1       9.092  13.558  18.218  0.00  0.00    +0.000 A 
ATOM     30  C   UNL     1       8.265  12.798  17.395  0.00  0.00    +0.000 A 
ATOM     31  C   UNL     1       8.199  11.409  17.554  0.00  0.00    +0.000 A 
ENDBRANCH  25  26
ENDBRANCH  22  25
ENDBRANCH  18  19
ENDBRANCH   7  18
TORSDOF 11
ENDMDL
