MODEL 1
REMARK VINA RESULT:      -7.8      0.000      0.000
REMARK  Name = 
REMARK  14 active torsions:
REMARK  status: ('A' for Active; 'I' for Inactive)
REMARK    1  A    between atoms: C_1  and  O_2
REMARK    2  A    between atoms: O_2  and  C_3
REMARK    3  A    between atoms: C_5  and  C_6
REMARK    4  A    between atoms: C_7  and  C_8
REMARK    5  A    between atoms: N_10  and  C_11
REMARK    6  A    between atoms: C_11  and  C_12
REMARK    7  A    between atoms: C_12  and  N_13
REMARK    8  A    between atoms: C_14  and  C_15
REMARK    9  A    between atoms: C_24  and  O_25
REMARK   10  A    between atoms: O_25  and  C_26
REMARK   11  A    between atoms: C_27  and  O_28
REMARK   12  A    between atoms: O_28  and  C_29
REMARK   13  A    between atoms: C_29  and  C_30
REMARK   14  A    between atoms: C_30  and  O_31
REMARK                            x       y       z     vdW  Elec       q    Type
REMARK                         _______ _______ _______ _____ _____    ______ ____
ROOT
ATOM      1  C   UNL     1       9.096   9.642  18.886  0.00  0.00    +0.000 C 
ATOM      2  C   UNL     1       8.197   9.229  17.972  0.00  0.00    +0.000 C 
ENDROOT
BRANCH   1   5
ATOM      3  C   UNL     1      10.217  13.330  18.659  0.00  0.00    +0.000 A 
ATOM      4  C   UNL     1       9.863  12.010  18.294  0.00  0.00    +0.000 A 
ATOM      5  C   UNL     1       9.452  11.056  19.237  0.00  0.00    +0.000 A 
ATOM      6  C   UNL     1       9.399  11.477  20.573  0.00  0.00    +0.000 A 
ATOM      7  C   UNL     1       9.695  12.805  20.963  0.00  0.00    +0.000 A 
ATOM      8  C   UNL     1      10.099  13.755  20.005  0.00  0.00    +0.000 A 
BRANCH   3  10
ATOM      9  C   UNL     1      11.964  14.037  17.127  0.00  0.00    +0.000 C 
ATOM     10  O   UNL     1      10.711  14.235  17.775  0.00  0.00    +0.000 OA
ENDBRANCH   3  10
BRANCH   7  11
ATOM     11  O   UNL     1       9.596  13.000  22.322  0.00  0.00    +0.000 OA
ATOM     12  C   UNL     1       8.306  13.291  22.853  0.00  0.00    +0.000 C 
ENDBRANCH   7  11
BRANCH   8  13
ATOM     13  O   UNL     1      10.487  14.996  20.465  0.00  0.00    +0.000 OA
BRANCH  13  14
ATOM     14  C   UNL     1       9.519  16.059  20.436  0.00  0.00    +0.000 C 
BRANCH  14  15
ATOM     15  C   UNL     1      10.168  17.319  19.844  0.00  0.00    +0.000 C 
BRANCH  15  16
ATOM     16  O   UNL     1      10.743  17.051  18.565  0.00  0.00    +0.000 OA
ATOM     17  H   UNL     1      10.042  16.631  18.033  0.00  0.00    +0.000 HD
ENDBRANCH  15  16
ENDBRANCH  14  15
ENDBRANCH  13  14
ENDBRANCH   8  13
ENDBRANCH   1   5
BRANCH   2  18
ATOM     18  C   UNL     1       7.903   7.775  17.704  0.00  0.00    +0.000 C 
ATOM     19  O   UNL     1       7.367   7.388  16.679  0.00  0.00    +0.000 OA
ATOM     20  N   UNL     1       8.224   6.970  18.765  0.00  0.00    +0.000 N 
ATOM     21  H   UNL     1       8.659   7.366  19.581  0.00  0.00    +0.000 HD
BRANCH  20  22
ATOM     22  C   UNL     1       7.744   5.582  18.935  0.00  0.00    +0.000 C 
BRANCH  22  23
ATOM     23  C   UNL     1       6.315   5.372  19.435  0.00  0.00    +0.000 C 
BRANCH  23  24
ATOM     24  N   UNL     1       5.275   4.785  18.621  0.00  0.00    +0.000 N 
ATOM     25  C   UNL     1       5.200   5.083  17.272  0.00  0.00    +0.000 A 
ATOM     26  C   UNL     1       6.067   4.264  16.359  0.00  0.00    +0.000 C 
ATOM     27  C   UNL     1       3.863   5.435  17.171  0.00  0.00    +0.000 A 
ATOM     28  C   UNL     1       3.288   4.308  17.843  0.00  0.00    +0.000 A 
ATOM     29  C   UNL     1       2.124   3.553  17.615  0.00  0.00    +0.000 A 
ATOM     30  C   UNL     1       2.056   2.276  18.173  0.00  0.00    +0.000 A 
ATOM     31  C   UNL     1       3.052   1.828  19.049  0.00  0.00    +0.000 A 
ATOM     32  C   UNL     1       4.135   2.640  19.433  0.00  0.00    +0.000 A 
ATOM     33  C   UNL     1       4.261   3.863  18.771  0.00  0.00    +0.000 A 
ENDBRANCH  23  24
ENDBRANCH  22  23
ENDBRANCH  20  22
ENDBRANCH   2  18
TORSDOF 11
ENDMDL
MODEL 2
REMARK VINA RESULT:      -7.5      7.083     10.919
REMARK  Name = 
REMARK  14 active torsions:
REMARK  status: ('A' for Active; 'I' for Inactive)
REMARK    1  A    between atoms: C_1  and  O_2
REMARK    2  A    between atoms: O_2  and  C_3
REMARK    3  A    between atoms: C_5  and  C_6
REMARK    4  A    between atoms: C_7  and  C_8
REMARK    5  A    between atoms: N_10  and  C_11
REMARK    6  A    between atoms: C_11  and  C_12
REMARK    7  A    between atoms: C_12  and  N_13
REMARK    8  A    between atoms: C_14  and  C_15
REMARK    9  A    between atoms: C_24  and  O_25
REMARK   10  A    between atoms: O_25  and  C_26
REMARK   11  A    between atoms: C_27  and  O_28
REMARK   12  A    between atoms: O_28  and  C_29
REMARK   13  A    between atoms: C_29  and  C_30
REMARK   14  A    between atoms: C_30  and  O_31
REMARK                            x       y       z     vdW  Elec       q    Type
REMARK                         _______ _______ _______ _____ _____    ______ ____
ROOT
ATOM      1  C   UNL     1       1.957   7.563  18.435  0.00  0.00    +0.000 C 
ATOM      2  C   UNL     1       1.912   8.906  18.345  0.00  0.00    +0.000 C 
ENDROOT
BRANCH   1   5
ATOM      3  C   UNL     1       3.927   4.417  17.370  0.00  0.00    +0.000 A 
ATOM      4  C   UNL     1       2.895   5.254  17.859  0.00  0.00    +0.000 A 
ATOM      5  C   UNL     1       3.020   6.651  17.900  0.00  0.00    +0.000 A 
ATOM      6  C   UNL     1       4.224   7.188  17.422  0.00  0.00    +0.000 A 
ATOM      7  C   UNL     1       5.252   6.381  16.878  0.00  0.00    +0.000 A 
ATOM      8  C   UNL     1       5.110   4.980  16.836  0.00  0.00    +0.000 A 
BRANCH   3  10
ATOM      9  C   UNL     1       3.531   2.370  18.617  0.00  0.00    +0.000 C 
ATOM     10  O   UNL     1       3.862   3.061  17.416  0.00  0.00    +0.000 OA
ENDBRANCH   3  10
BRANCH   7  11
ATOM     11  O   UNL     1       6.352   7.108  16.482  0.00  0.00    +0.000 OA
ATOM     12  C   UNL     1       7.366   7.351  17.453  0.00  0.00    +0.000 C 
ENDBRANCH   7  11
BRANCH   8  13
ATOM     13  O   UNL     1       6.194   4.245  16.404  0.00  0.00    +0.000 OA
BRANCH  13  14
ATOM     14  C   UNL     1       6.120   3.631  15.106  0.00  0.00    +0.000 C 
BRANCH  14  15
ATOM     15  C   UNL     1       6.791   4.548  14.072  0.00  0.00    +0.000 C 
BRANCH  15  16
ATOM     16  O   UNL     1       7.800   5.356  14.677  0.00  0.00    +0.000 OA
ATOM     17  H   UNL     1       8.656   5.002  14.369  0.00  0.00    +0.000 HD
ENDBRANCH  15  16
ENDBRANCH  14  15
ENDBRANCH  13  14
ENDBRANCH   8  13
ENDBRANCH   1   5
BRANCH   2  18
ATOM     18  C   UNL     1       0.798   9.735  18.934  0.00  0.00    +0.000 C 
ATOM     19  O   UNL     1       0.620   9.843  20.135  0.00  0.00    +0.000 OA
ATOM     20  N   UNL     1      -0.024  10.266  17.975  0.00  0.00    +0.000 N 
ATOM     21  H   UNL     1       0.186  10.127  17.001  0.00  0.00    +0.000 HD
BRANCH  20  22
ATOM     22  C   UNL     1      -1.368  10.821  18.243  0.00  0.00    +0.000 C 
BRANCH  22  23
ATOM     23  C   UNL     1      -1.462  12.249  18.780  0.00  0.00    +0.000 C 
BRANCH  23  24
ATOM     24  N   UNL     1      -1.749  12.551  20.164  0.00  0.00    +0.000 N 
ATOM     25  C   UNL     1      -0.771  13.104  20.970  0.00  0.00    +0.000 A 
ATOM     26  C   UNL     1      -0.620  14.597  20.908  0.00  0.00    +0.000 C 
ATOM     27  C   UNL     1      -0.835  12.248  22.059  0.00  0.00    +0.000 A 
ATOM     28  C   UNL     1      -2.251  12.272  22.274  0.00  0.00    +0.000 A 
ATOM     29  C   UNL     1      -3.039  12.278  23.438  0.00  0.00    +0.000 A 
ATOM     30  C   UNL     1      -4.356  12.725  23.331  0.00  0.00    +0.000 A 
ATOM     31  C   UNL     1      -4.909  13.017  22.079  0.00  0.00    +0.000 A 
ATOM     32  C   UNL     1      -4.190  12.844  20.882  0.00  0.00    +0.000 A 
ATOM     33  C   UNL     1      -2.838  12.520  21.010  0.00  0.00    +0.000 A 
ENDBRANCH  23  24
ENDBRANCH  22  23
ENDBRANCH  20  22
ENDBRANCH   2  18
TORSDOF 11
ENDMDL
MODEL 3
REMARK VINA RESULT:      -7.4      7.291     10.957
REMARK  Name = 
REMARK  14 active torsions:
REMARK  status: ('A' for Active; 'I' for Inactive)
REMARK    1  A    between atoms: C_1  and  O_2
REMARK    2  A    between atoms: O_2  and  C_3
REMARK    3  A    between atoms: C_5  and  C_6
REMARK    4  A    between atoms: C_7  and  C_8
REMARK    5  A    between atoms: N_10  and  C_11
REMARK    6  A    between atoms: C_11  and  C_12
REMARK    7  A    between atoms: C_12  and  N_13
REMARK    8  A    between atoms: C_14  and  C_15
REMARK    9  A    between atoms: C_24  and  O_25
REMARK   10  A    between atoms: O_25  and  C_26
REMARK   11  A    between atoms: C_27  and  O_28
REMARK   12  A    between atoms: O_28  and  C_29
REMARK   13  A    between atoms: C_29  and  C_30
REMARK   14  A    between atoms: C_30  and  O_31
REMARK                            x       y       z     vdW  Elec       q    Type
REMARK                         _______ _______ _______ _____ _____    ______ ____
ROOT
ATOM      1  C   UNL     1       1.895   8.439  18.244  0.00  0.00    +0.000 C 
ATOM      2  C   UNL     1       2.167   9.756  18.168  0.00  0.00    +0.000 C 
ENDROOT
BRANCH   1   5
ATOM      3  C   UNL     1       3.376   4.900  17.810  0.00  0.00    +0.000 A 
ATOM      4  C   UNL     1       2.480   5.953  18.114  0.00  0.00    +0.000 A 
ATOM      5  C   UNL     1       2.811   7.300  17.909  0.00  0.00    +0.000 A 
ATOM      6  C   UNL     1       4.081   7.561  17.376  0.00  0.00    +0.000 A 
ATOM      7  C   UNL     1       4.979   6.529  17.013  0.00  0.00    +0.000 A 
ATOM      8  C   UNL     1       4.631   5.178  17.216  0.00  0.00    +0.000 A 
BRANCH   3  10
ATOM      9  C   UNL     1       2.695   3.188  19.393  0.00  0.00    +0.000 C 
ATOM     10  O   UNL     1       3.111   3.598  18.094  0.00  0.00    +0.000 OA
ENDBRANCH   3  10
BRANCH   7  11
ATOM     11  O   UNL     1       6.174   7.004  16.524  0.00  0.00    +0.000 OA
ATOM     12  C   UNL     1       7.091   7.567  17.458  0.00  0.00    +0.000 C 
ENDBRANCH   7  11
BRANCH   8  13
ATOM     13  O   UNL     1       5.594   4.228  16.952  0.00  0.00    +0.000 OA
BRANCH  13  14
ATOM     14  C   UNL     1       5.602   3.618  15.650  0.00  0.00    +0.000 C 
BRANCH  14  15
ATOM     15  C   UNL     1       6.676   4.291  14.782  0.00  0.00    +0.000 C 
BRANCH  15  16
ATOM     16  O   UNL     1       7.804   4.679  15.566  0.00  0.00    +0.000 OA
ATOM     17  H   UNL     1       7.905   5.642  15.442  0.00  0.00    +0.000 HD
ENDBRANCH  15  16
ENDBRANCH  14  15
ENDBRANCH  13  14
ENDBRANCH   8  13
ENDBRANCH   1   5
BRANCH   2  18
ATOM     18  C   UNL     1       1.173  10.826  18.544  0.00  0.00    +0.000 C 
ATOM     19  O   UNL     1       1.467  12.008  18.603  0.00  0.00    +0.000 OA
ATOM     20  N   UNL     1      -0.049  10.310  18.889  0.00  0.00    +0.000 N 
ATOM     21  H   UNL     1      -0.212   9.320  18.820  0.00  0.00    +0.000 HD
BRANCH  20  22
ATOM     22  C   UNL     1      -1.095  11.058  19.618  0.00  0.00    +0.000 C 
BRANCH  22  23
ATOM     23  C   UNL     1      -1.978  12.019  18.822  0.00  0.00    +0.000 C 
BRANCH  23  24
ATOM     24  N   UNL     1      -3.338  11.710  18.445  0.00  0.00    +0.000 N 
ATOM     25  C   UNL     1      -3.587  10.833  17.405  0.00  0.00    +0.000 A 
ATOM     26  C   UNL     1      -3.586   9.372  17.749  0.00  0.00    +0.000 C 
ATOM     27  C   UNL     1      -4.482  11.584  16.658  0.00  0.00    +0.000 A 
ATOM     28  C   UNL     1      -5.381  11.961  17.707  0.00  0.00    +0.000 A 
ATOM     29  C   UNL     1      -6.779  12.099  17.762  0.00  0.00    +0.000 A 
ATOM     30  C   UNL     1      -7.388  12.068  19.017  0.00  0.00    +0.000 A 
ATOM     31  C   UNL     1      -6.614  12.049  20.183  0.00  0.00    +0.000 A 
ATOM     32  C   UNL     1      -5.208  12.094  20.153  0.00  0.00    +0.000 A 
ATOM     33  C   UNL     1      -4.610  11.994  18.894  0.00  0.00    +0.000 A 
ENDBRANCH  23  24
ENDBRANCH  22  23
ENDBRANCH  20  22
ENDBRANCH   2  18
TORSDOF 11
ENDMDL
MODEL 4
REMARK VINA RESULT:      -7.3      1.596      2.099
REMARK  Name = 
REMARK  14 active torsions:
REMARK  status: ('A' for Active; 'I' for Inactive)
REMARK    1  A    between atoms: C_1  and  O_2
REMARK    2  A    between atoms: O_2  and  C_3
REMARK    3  A    between atoms: C_5  and  C_6
REMARK    4  A    between atoms: C_7  and  C_8
REMARK    5  A    between atoms: N_10  and  C_11
REMARK    6  A    between atoms: C_11  and  C_12
REMARK    7  A    between atoms: C_12  and  N_13
REMARK    8  A    between atoms: C_14  and  C_15
REMARK    9  A    between atoms: C_24  and  O_25
REMARK   10  A    between atoms: O_25  and  C_26
REMARK   11  A    between atoms: C_27  and  O_28
REMARK   12  A    between atoms: O_28  and  C_29
REMARK   13  A    between atoms: C_29  and  C_30
REMARK   14  A    between atoms: C_30  and  O_31
REMARK                            x       y       z     vdW  Elec       q    Type
REMARK                         _______ _______ _______ _____ _____    ______ ____
ROOT
ATOM      1  C   UNL     1       9.014   9.349  18.348  0.00  0.00    +0.000 C 
ATOM      2  C   UNL     1       7.760   9.161  17.895  0.00  0.00    +0.000 C 
ENDROOT
BRANCH   1   5
ATOM      3  C   UNL     1      11.006  12.641  18.673  0.00  0.00    +0.000 A 
ATOM      4  C   UNL     1      10.440  11.461  18.133  0.00  0.00    +0.000 A 
ATOM      5  C   UNL     1       9.608  10.618  18.883  0.00  0.00    +0.000 A 
ATOM      6  C   UNL     1       9.351  11.003  20.206  0.00  0.00    +0.000 A 
ATOM      7  C   UNL     1       9.858  12.204  20.759  0.00  0.00    +0.000 A 
ATOM      8  C   UNL     1      10.687  13.046  19.992  0.00  0.00    +0.000 A 
BRANCH   3  10
ATOM      9  C   UNL     1      11.461  14.361  17.020  0.00  0.00    +0.000 C 
ATOM     10  O   UNL     1      11.891  13.415  17.994  0.00  0.00    +0.000 OA
ENDBRANCH   3  10
BRANCH   7  11
ATOM     11  O   UNL     1       9.499  12.383  22.075  0.00  0.00    +0.000 OA
ATOM     12  C   UNL     1       8.217  11.908  22.479  0.00  0.00    +0.000 C 
ENDBRANCH   7  11
BRANCH   8  13
ATOM     13  O   UNL     1      11.243  14.137  20.626  0.00  0.00    +0.000 OA
BRANCH  13  14
ATOM     14  C   UNL     1      10.452  15.333  20.730  0.00  0.00    +0.000 C 
BRANCH  14  15
ATOM     15  C   UNL     1      10.467  15.825  22.185  0.00  0.00    +0.000 C 
BRANCH  15  16
ATOM     16  O   UNL     1       9.370  15.286  22.923  0.00  0.00    +0.000 OA
ATOM     17  H   UNL     1       8.730  14.960  22.263  0.00  0.00    +0.000 HD
ENDBRANCH  15  16
ENDBRANCH  14  15
ENDBRANCH  13  14
ENDBRANCH   8  13
ENDBRANCH   1   5
BRANCH   2  18
ATOM     18  C   UNL     1       7.257   7.832  17.387  0.00  0.00    +0.000 C 
ATOM     19  O   UNL     1       7.972   7.037  16.802  0.00  0.00    +0.000 OA
ATOM     20  N   UNL     1       5.911   7.671  17.583  0.00  0.00    +0.000 N 
ATOM     21  H   UNL     1       5.387   8.377  18.071  0.00  0.00    +0.000 HD
BRANCH  20  22
ATOM     22  C   UNL     1       5.086   6.651  16.901  0.00  0.00    +0.000 C 
BRANCH  22  23
ATOM     23  C   UNL     1       3.658   6.430  17.402  0.00  0.00    +0.000 C 
BRANCH  23  24
ATOM     24  N   UNL     1       3.182   5.153  17.881  0.00  0.00    +0.000 N 
ATOM     25  C   UNL     1       3.683   3.981  17.345  0.00  0.00    +0.000 A 
ATOM     26  C   UNL     1       4.966   3.472  17.936  0.00  0.00    +0.000 C 
ATOM     27  C   UNL     1       2.501   3.319  17.048  0.00  0.00    +0.000 A 
ATOM     28  C   UNL     1       1.837   3.482  18.307  0.00  0.00    +0.000 A 
ATOM     29  C   UNL     1       1.009   2.636  19.066  0.00  0.00    +0.000 A 
ATOM     30  C   UNL     1       0.864   2.914  20.425  0.00  0.00    +0.000 A 
ATOM     31  C   UNL     1       1.408   4.080  20.975  0.00  0.00    +0.000 A 
ATOM     32  C   UNL     1       2.088   5.033  20.194  0.00  0.00    +0.000 A 
ATOM     33  C   UNL     1       2.338   4.683  18.865  0.00  0.00    +0.000 A 
ENDBRANCH  23  24
ENDBRANCH  22  23
ENDBRANCH  20  22
ENDBRANCH   2  18
TORSDOF 11
ENDMDL
MODEL 5
REMARK VINA RESULT:      -7.3      1.674      2.204
REMARK  Name = 
REMARK  14 active torsions:
REMARK  status: ('A' for Active; 'I' for Inactive)
REMARK    1  A    between atoms: C_1  and  O_2
REMARK    2  A    between atoms: O_2  and  C_3
REMARK    3  A    between atoms: C_5  and  C_6
REMARK    4  A    between atoms: C_7  and  C_8
REMARK    5  A    between atoms: N_10  and  C_11
REMARK    6  A    between atoms: C_11  and  C_12
REMARK    7  A    between atoms: C_12  and  N_13
REMARK    8  A    between atoms: C_14  and  C_15
REMARK    9  A    between atoms: C_24  and  O_25
REMARK   10  A    between atoms: O_25  and  C_26
REMARK   11  A    between atoms: C_27  and  O_28
REMARK   12  A    between atoms: O_28  and  C_29
REMARK   13  A    between atoms: C_29  and  C_30
REMARK   14  A    between atoms: C_30  and  O_31
REMARK                            x       y       z     vdW  Elec       q    Type
REMARK                         _______ _______ _______ _____ _____    ______ ____
ROOT
ATOM      1  C   UNL     1       8.271   9.037  18.617  0.00  0.00    +0.000 C 
ATOM      2  C   UNL     1       8.334   8.223  17.546  0.00  0.00    +0.000 C 
ENDROOT
BRANCH   1   5
ATOM      3  C   UNL     1      10.844  11.899  18.300  0.00  0.00    +0.000 A 
ATOM      4  C   UNL     1      10.003  10.807  17.977  0.00  0.00    +0.000 A 
ATOM      5  C   UNL     1       9.154  10.211  18.920  0.00  0.00    +0.000 A 
ATOM      6  C   UNL     1       9.170  10.756  20.212  0.00  0.00    +0.000 A 
ATOM      7  C   UNL     1       9.959  11.880  20.552  0.00  0.00    +0.000 A 
ATOM      8  C   UNL     1      10.802  12.475  19.592  0.00  0.00    +0.000 A 
BRANCH   3  10
ATOM      9  C   UNL     1      11.392  13.481  16.540  0.00  0.00    +0.000 C 
ATOM     10  O   UNL     1      11.743  12.423  17.426  0.00  0.00    +0.000 OA
ENDBRANCH   3  10
BRANCH   7  11
ATOM     11  O   UNL     1       9.837  12.242  21.874  0.00  0.00    +0.000 OA
ATOM     12  C   UNL     1       8.542  12.614  22.338  0.00  0.00    +0.000 C 
ENDBRANCH   7  11
BRANCH   8  13
ATOM     13  O   UNL     1      11.632  13.490  20.018  0.00  0.00    +0.000 OA
BRANCH  13  14
ATOM     14  C   UNL     1      11.095  14.823  20.073  0.00  0.00    +0.000 C 
BRANCH  14  15
ATOM     15  C   UNL     1      12.123  15.807  19.495  0.00  0.00    +0.000 C 
BRANCH  15  16
ATOM     16  O   UNL     1      11.714  17.159  19.698  0.00  0.00    +0.000 OA
ATOM     17  H   UNL     1      10.752  17.133  19.859  0.00  0.00    +0.000 HD
ENDBRANCH  15  16
ENDBRANCH  14  15
ENDBRANCH  13  14
ENDBRANCH   8  13
ENDBRANCH   1   5
BRANCH   2  18
ATOM     18  C   UNL     1       7.383   7.073  17.329  0.00  0.00    +0.000 C 
ATOM     19  O   UNL     1       7.729   5.906  17.409  0.00  0.00    +0.000 OA
ATOM     20  N   UNL     1       6.132   7.488  16.953  0.00  0.00    +0.000 N 
ATOM     21  H   UNL     1       5.925   8.471  16.904  0.00  0.00    +0.000 HD
BRANCH  20  22
ATOM     22  C   UNL     1       5.108   6.610  16.348  0.00  0.00    +0.000 C 
BRANCH  22  23
ATOM     23  C   UNL     1       4.727   5.331  17.093  0.00  0.00    +0.000 C 
BRANCH  23  24
ATOM     24  N   UNL     1       3.629   5.263  18.029  0.00  0.00    +0.000 N 
ATOM     25  C   UNL     1       3.179   6.412  18.654  0.00  0.00    +0.000 A 
ATOM     26  C   UNL     1       2.186   7.242  17.892  0.00  0.00    +0.000 C 
ATOM     27  C   UNL     1       3.178   5.990  19.975  0.00  0.00    +0.000 A 
ATOM     28  C   UNL     1       2.466   4.758  19.811  0.00  0.00    +0.000 A 
ATOM     29  C   UNL     1       1.501   4.101  20.595  0.00  0.00    +0.000 A 
ATOM     30  C   UNL     1       0.699   3.145  19.974  0.00  0.00    +0.000 A 
ATOM     31  C   UNL     1       0.950   2.752  18.654  0.00  0.00    +0.000 A 
ATOM     32  C   UNL     1       2.027   3.268  17.910  0.00  0.00    +0.000 A 
ATOM     33  C   UNL     1       2.743   4.315  18.495  0.00  0.00    +0.000 A 
ENDBRANCH  23  24
ENDBRANCH  22  23
ENDBRANCH  20  22
ENDBRANCH   2  18
TORSDOF 11
ENDMDL
MODEL 6
REMARK VINA RESULT:      -7.2      5.170     10.525
REMARK  Name = 
REMARK  14 active torsions:
REMARK  status: ('A' for Active; 'I' for Inactive)
REMARK    1  A    between atoms: C_1  and  O_2
REMARK    2  A    between atoms: O_2  and  C_3
REMARK    3  A    between atoms: C_5  and  C_6
REMARK    4  A    between atoms: C_7  and  C_8
REMARK    5  A    between atoms: N_10  and  C_11
REMARK    6  A    between atoms: C_11  and  C_12
REMARK    7  A    between atoms: C_12  and  N_13
REMARK    8  A    between atoms: C_14  and  C_15
REMARK    9  A    between atoms: C_24  and  O_25
REMARK   10  A    between atoms: O_25  and  C_26
REMARK   11  A    between atoms: C_27  and  O_28
REMARK   12  A    between atoms: O_28  and  C_29
REMARK   13  A    between atoms: C_29  and  C_30
REMARK   14  A    between atoms: C_30  and  O_31
REMARK                            x       y       z     vdW  Elec       q    Type
REMARK                         _______ _______ _______ _____ _____    ______ ____
ROOT
ATOM      1  C   UNL     1       2.222   7.915  18.556  0.00  0.00    +0.000 C 
ATOM      2  C   UNL     1       1.560   8.885  17.898  0.00  0.00    +0.000 C 
ENDROOT
BRANCH   1   5
ATOM      3  C   UNL     1       3.926   4.656  17.378  0.00  0.00    +0.000 A 
ATOM      4  C   UNL     1       2.967   5.558  17.898  0.00  0.00    +0.000 A 
ATOM      5  C   UNL     1       3.206   6.937  17.987  0.00  0.00    +0.000 A 
ATOM      6  C   UNL     1       4.450   7.389  17.524  0.00  0.00    +0.000 A 
ATOM      7  C   UNL     1       5.408   6.520  16.949  0.00  0.00    +0.000 A 
ATOM      8  C   UNL     1       5.152   5.138  16.859  0.00  0.00    +0.000 A 
BRANCH   3  10
ATOM      9  C   UNL     1       2.884   2.669  18.310  0.00  0.00    +0.000 C 
ATOM     10  O   UNL     1       3.749   3.309  17.376  0.00  0.00    +0.000 OA
ENDBRANCH   3  10
BRANCH   7  11
ATOM     11  O   UNL     1       6.564   7.167  16.575  0.00  0.00    +0.000 OA
ATOM     12  C   UNL     1       7.529   7.432  17.590  0.00  0.00    +0.000 C 
ENDBRANCH   7  11
BRANCH   8  13
ATOM     13  O   UNL     1       6.172   4.332  16.399  0.00  0.00    +0.000 OA
BRANCH  13  14
ATOM     14  C   UNL     1       6.034   3.749  15.092  0.00  0.00    +0.000 C 
BRANCH  14  15
ATOM     15  C   UNL     1       6.771   4.624  14.067  0.00  0.00    +0.000 C 
BRANCH  15  16
ATOM     16  O   UNL     1       7.793   5.400  14.690  0.00  0.00    +0.000 OA
ATOM     17  H   UNL     1       8.486   5.533  14.016  0.00  0.00    +0.000 HD
ENDBRANCH  15  16
ENDBRANCH  14  15
ENDBRANCH  13  14
ENDBRANCH   8  13
ENDBRANCH   1   5
BRANCH   2  18
ATOM     18  C   UNL     1       0.597   9.829  18.573  0.00  0.00    +0.000 C 
ATOM     19  O   UNL     1      -0.346  10.337  17.990  0.00  0.00    +0.000 OA
ATOM     20  N   UNL     1       0.953  10.108  19.866  0.00  0.00    +0.000 N 
ATOM     21  H   UNL     1       1.751   9.652  20.275  0.00  0.00    +0.000 HD
BRANCH  20  22
ATOM     22  C   UNL     1       0.417  11.238  20.654  0.00  0.00    +0.000 C 
BRANCH  22  23
ATOM     23  C   UNL     1       1.368  12.380  21.011  0.00  0.00    +0.000 C 
BRANCH  23  24
ATOM     24  N   UNL     1       1.957  13.252  20.020  0.00  0.00    +0.000 N 
ATOM     25  C   UNL     1       1.277  13.527  18.847  0.00  0.00    +0.000 A 
ATOM     26  C   UNL     1       0.270  14.639  18.903  0.00  0.00    +0.000 C 
ATOM     27  C   UNL     1       2.270  13.253  17.918  0.00  0.00    +0.000 A 
ATOM     28  C   UNL     1       3.333  14.016  18.502  0.00  0.00    +0.000 A 
ATOM     29  C   UNL     1       4.357  14.806  17.949  0.00  0.00    +0.000 A 
ATOM     30  C   UNL     1       4.969  15.748  18.775  0.00  0.00    +0.000 A 
ATOM     31  C   UNL     1       4.673  15.797  20.142  0.00  0.00    +0.000 A 
ATOM     32  C   UNL     1       3.783  14.893  20.750  0.00  0.00    +0.000 A 
ATOM     33  C   UNL     1       3.081  14.041  19.895  0.00  0.00    +0.000 A 
ENDBRANCH  23  24
ENDBRANCH  22  23
ENDBRANCH  20  22
ENDBRANCH   2  18
TORSDOF 11
ENDMDL
MODEL 7
REMARK VINA RESULT:      -7.2      7.161     10.766
REMARK  Name = 
REMARK  14 active torsions:
REMARK  status: ('A' for Active; 'I' for Inactive)
REMARK    1  A    between atoms: C_1  and  O_2
REMARK    2  A    between atoms: O_2  and  C_3
REMARK    3  A    between atoms: C_5  and  C_6
REMARK    4  A    between atoms: C_7  and  C_8
REMARK    5  A    between atoms: N_10  and  C_11
REMARK    6  A    between atoms: C_11  and  C_12
REMARK    7  A    between atoms: C_12  and  N_13
REMARK    8  A    between atoms: C_14  and  C_15
REMARK    9  A    between atoms: C_24  and  O_25
REMARK   10  A    between atoms: O_25  and  C_26
REMARK   11  A    between atoms: C_27  and  O_28
REMARK   12  A    between atoms: O_28  and  C_29
REMARK   13  A    between atoms: C_29  and  C_30
REMARK   14  A    between atoms: C_30  and  O_31
REMARK                            x       y       z     vdW  Elec       q    Type
REMARK                         _______ _______ _______ _____ _____    ______ ____
ROOT
ATOM      1  C   UNL     1       2.235   7.920  19.039  0.00  0.00    +0.000 C 
ATOM      2  C   UNL     1       1.390   8.835  18.526  0.00  0.00    +0.000 C 
ENDROOT
BRANCH   1   5
ATOM      3  C   UNL     1       5.251   6.459  17.120  0.00  0.00    +0.000 A 
ATOM      4  C   UNL     1       4.428   7.346  17.854  0.00  0.00    +0.000 A 
ATOM      5  C   UNL     1       3.140   6.994  18.282  0.00  0.00    +0.000 A 
ATOM      6  C   UNL     1       2.701   5.704  17.953  0.00  0.00    +0.000 A 
ATOM      7  C   UNL     1       3.519   4.775  17.267  0.00  0.00    +0.000 A 
ATOM      8  C   UNL     1       4.814   5.140  16.849  0.00  0.00    +0.000 A 
BRANCH   3  10
ATOM      9  C   UNL     1       7.493   7.335  17.446  0.00  0.00    +0.000 C 
ATOM     10  O   UNL     1       6.459   6.818  16.614  0.00  0.00    +0.000 OA
ENDBRANCH   3  10
BRANCH   7  11
ATOM     11  O   UNL     1       2.888   3.574  17.032  0.00  0.00    +0.000 OA
ATOM     12  C   UNL     1       3.068   2.537  17.992  0.00  0.00    +0.000 C 
ENDBRANCH   7  11
BRANCH   8  13
ATOM     13  O   UNL     1       5.514   4.231  16.083  0.00  0.00    +0.000 OA
BRANCH  13  14
ATOM     14  C   UNL     1       5.438   4.355  14.653  0.00  0.00    +0.000 C 
BRANCH  14  15
ATOM     15  C   UNL     1       6.853   4.259  14.061  0.00  0.00    +0.000 C 
BRANCH  15  16
ATOM     16  O   UNL     1       7.650   5.378  14.445  0.00  0.00    +0.000 OA
ATOM     17  H   UNL     1       7.158   6.173  14.164  0.00  0.00    +0.000 HD
ENDBRANCH  15  16
ENDBRANCH  14  15
ENDBRANCH  13  14
ENDBRANCH   8  13
ENDBRANCH   1   5
BRANCH   2  18
ATOM     18  C   UNL     1       0.528   9.730  19.381  0.00  0.00    +0.000 C 
ATOM     19  O   UNL     1      -0.047   9.333  20.381  0.00  0.00    +0.000 OA
ATOM     20  N   UNL     1       0.402  10.991  18.861  0.00  0.00    +0.000 N 
ATOM     21  H   UNL     1       0.905  11.241  18.026  0.00  0.00    +0.000 HD
BRANCH  20  22
ATOM     22  C   UNL     1      -0.630  11.965  19.274  0.00  0.00    +0.000 C 
BRANCH  22  23
ATOM     23  C   UNL     1      -1.627  12.446  18.220  0.00  0.00    +0.000 C 
BRANCH  23  24
ATOM     24  N   UNL     1      -2.964  11.912  18.099  0.00  0.00    +0.000 N 
ATOM     25  C   UNL     1      -3.224  10.891  17.202  0.00  0.00    +0.000 A 
ATOM     26  C   UNL     1      -2.950   9.495  17.682  0.00  0.00    +0.000 C 
ATOM     27  C   UNL     1      -4.322  11.419  16.540  0.00  0.00    +0.000 A 
ATOM     28  C   UNL     1      -5.107  11.793  17.679  0.00  0.00    +0.000 A 
ATOM     29  C   UNL     1      -6.487  11.744  17.945  0.00  0.00    +0.000 A 
ATOM     30  C   UNL     1      -6.895  11.780  19.278  0.00  0.00    +0.000 A 
ATOM     31  C   UNL     1      -5.966  12.006  20.301  0.00  0.00    +0.000 A 
ATOM     32  C   UNL     1      -4.603  12.238  20.040  0.00  0.00    +0.000 A 
ATOM     33  C   UNL     1      -4.186  12.072  18.718  0.00  0.00    +0.000 A 
ENDBRANCH  23  24
ENDBRANCH  22  23
ENDBRANCH  20  22
ENDBRANCH   2  18
TORSDOF 11
ENDMDL
MODEL 8
REMARK VINA RESULT:      -7.2      1.544      2.924
REMARK  Name = 
REMARK  14 active torsions:
REMARK  status: ('A' for Active; 'I' for Inactive)
REMARK    1  A    between atoms: C_1  and  O_2
REMARK    2  A    between atoms: O_2  and  C_3
REMARK    3  A    between atoms: C_5  and  C_6
REMARK    4  A    between atoms: C_7  and  C_8
REMARK    5  A    between atoms: N_10  and  C_11
REMARK    6  A    between atoms: C_11  and  C_12
REMARK    7  A    between atoms: C_12  and  N_13
REMARK    8  A    between atoms: C_14  and  C_15
REMARK    9  A    between atoms: C_24  and  O_25
REMARK   10  A    between atoms: O_25  and  C_26
REMARK   11  A    between atoms: C_27  and  O_28
REMARK   12  A    between atoms: O_28  and  C_29
REMARK   13  A    between atoms: C_29  and  C_30
REMARK   14  A    between atoms: C_30  and  O_31
REMARK                            x       y       z     vdW  Elec       q    Type
REMARK                         _______ _______ _______ _____ _____    ______ ____
ROOT
ATOM      1  C   UNL     1       8.719   9.211  18.765  0.00  0.00    +0.000 C 
ATOM      2  C   UNL     1       7.996   8.996  17.650  0.00  0.00    +0.000 C 
ENDROOT
BRANCH   1   5
ATOM      3  C   UNL     1       9.462  12.465  20.708  0.00  0.00    +0.000 A 
ATOM      4  C   UNL     1       8.877  11.235  20.322  0.00  0.00    +0.000 A 
ATOM      5  C   UNL     1       9.333  10.503  19.216  0.00  0.00    +0.000 A 
ATOM      6  C   UNL     1      10.413  11.046  18.506  0.00  0.00    +0.000 A 
ATOM      7  C   UNL     1      11.054  12.245  18.898  0.00  0.00    +0.000 A 
ATOM      8  C   UNL     1      10.591  12.967  20.016  0.00  0.00    +0.000 A 
BRANCH   3  10
ATOM      9  C   UNL     1       8.872  12.745  23.048  0.00  0.00    +0.000 C 
ATOM     10  O   UNL     1       8.970  13.234  21.713  0.00  0.00    +0.000 OA
ENDBRANCH   3  10
BRANCH   7  11
ATOM     11  O   UNL     1      12.081  12.607  18.056  0.00  0.00    +0.000 OA
ATOM     12  C   UNL     1      11.740  13.318  16.869  0.00  0.00    +0.000 C 
ENDBRANCH   7  11
BRANCH   8  13
ATOM     13  O   UNL     1      11.181  14.186  20.274  0.00  0.00    +0.000 OA
BRANCH  13  14
ATOM     14  C   UNL     1      10.592  15.360  19.689  0.00  0.00    +0.000 C 
BRANCH  14  15
ATOM     15  C   UNL     1      10.334  16.400  20.791  0.00  0.00    +0.000 C 
BRANCH  15  16
ATOM     16  O   UNL     1      10.327  17.724  20.258  0.00  0.00    +0.000 OA
ATOM     17  H   UNL     1      10.687  17.657  19.354  0.00  0.00    +0.000 HD
ENDBRANCH  15  16
ENDBRANCH  14  15
ENDBRANCH  13  14
ENDBRANCH   8  13
ENDBRANCH   1   5
BRANCH   2  18
ATOM     18  C   UNL     1       7.408   7.653  17.295  0.00  0.00    +0.000 C 
ATOM     19  O   UNL     1       7.978   6.854  16.572  0.00  0.00    +0.000 OA
ATOM     20  N   UNL     1       6.146   7.482  17.801  0.00  0.00    +0.000 N 
ATOM     21  H   UNL     1       5.740   8.192  18.386  0.00  0.00    +0.000 HD
BRANCH  20  22
ATOM     22  C   UNL     1       5.200   6.442  17.347  0.00  0.00    +0.000 C 
BRANCH  22  23
ATOM     23  C   UNL     1       3.796   6.434  17.951  0.00  0.00    +0.000 C 
BRANCH  23  24
ATOM     24  N   UNL     1       3.107   5.220  18.326  0.00  0.00    +0.000 N 
ATOM     25  C   UNL     1       2.998   4.178  17.422  0.00  0.00    +0.000 A 
ATOM     26  C   UNL     1       4.161   3.231  17.352  0.00  0.00    +0.000 C 
ATOM     27  C   UNL     1       1.635   3.931  17.494  0.00  0.00    +0.000 A 
ATOM     28  C   UNL     1       1.500   3.860  18.919  0.00  0.00    +0.000 A 
ATOM     29  C   UNL     1       0.729   3.044  19.765  0.00  0.00    +0.000 A 
ATOM     30  C   UNL     1       1.126   2.928  21.097  0.00  0.00    +0.000 A 
ATOM     31  C   UNL     1       2.167   3.716  21.601  0.00  0.00    +0.000 A 
ATOM     32  C   UNL     1       2.834   4.673  20.813  0.00  0.00    +0.000 A 
ATOM     33  C   UNL     1       2.517   4.688  19.453  0.00  0.00    +0.000 A 
ENDBRANCH  23  24
ENDBRANCH  22  23
ENDBRANCH  20  22
ENDBRANCH   2  18
TORSDOF 11
ENDMDL
MODEL 9
REMARK VINA RESULT:      -7.2      7.398     11.567
REMARK  Name = 
REMARK  14 active torsions:
REMARK  status: ('A' for Active; 'I' for Inactive)
REMARK    1  A    between atoms: C_1  and  O_2
REMARK    2  A    between atoms: O_2  and  C_3
REMARK    3  A    between atoms: C_5  and  C_6
REMARK    4  A    between atoms: C_7  and  C_8
REMARK    5  A    between atoms: N_10  and  C_11
REMARK    6  A    between atoms: C_11  and  C_12
REMARK    7  A    between atoms: C_12  and  N_13
REMARK    8  A    between atoms: C_14  and  C_15
REMARK    9  A    between atoms: C_24  and  O_25
REMARK   10  A    between atoms: O_25  and  C_26
REMARK   11  A    between atoms: C_27  and  O_28
REMARK   12  A    between atoms: O_28  and  C_29
REMARK   13  A    between atoms: C_29  and  C_30
REMARK   14  A    between atoms: C_30  and  O_31
REMARK                            x       y       z     vdW  Elec       q    Type
REMARK                         _______ _______ _______ _____ _____    ______ ____
ROOT
ATOM      1  C   UNL     1       2.448   8.112  18.421  0.00  0.00    +0.000 C 
ATOM      2  C   UNL     1       1.572   8.829  19.151  0.00  0.00    +0.000 C 
ENDROOT
BRANCH   1   5
ATOM      3  C   UNL     1       3.080   4.671  20.055  0.00  0.00    +0.000 A 
ATOM      4  C   UNL     1       2.504   5.927  19.749  0.00  0.00    +0.000 A 
ATOM      5  C   UNL     1       3.019   6.766  18.750  0.00  0.00    +0.000 A 
ATOM      6  C   UNL     1       4.141   6.295  18.053  0.00  0.00    +0.000 A 
ATOM      7  C   UNL     1       4.708   5.022  18.298  0.00  0.00    +0.000 A 
ATOM      8  C   UNL     1       4.175   4.186  19.300  0.00  0.00    +0.000 A 
BRANCH   3  10
ATOM      9  C   UNL     1       1.331   3.368  21.124  0.00  0.00    +0.000 C 
ATOM     10  O   UNL     1       2.655   3.893  21.083  0.00  0.00    +0.000 OA
ENDBRANCH   3  10
BRANCH   7  11
ATOM     11  O   UNL     1       5.810   4.765  17.515  0.00  0.00    +0.000 OA
ATOM     12  C   UNL     1       5.585   4.204  16.225  0.00  0.00    +0.000 C 
ENDBRANCH   7  11
BRANCH   8  13
ATOM     13  O   UNL     1       4.845   3.011  19.569  0.00  0.00    +0.000 OA
BRANCH  13  14
ATOM     14  C   UNL     1       4.121   1.776  19.437  0.00  0.00    +0.000 C 
BRANCH  14  15
ATOM     15  C   UNL     1       3.458   1.723  18.052  0.00  0.00    +0.000 C 
BRANCH  15  16
ATOM     16  O   UNL     1       2.043   1.577  18.162  0.00  0.00    +0.000 OA
ATOM     17  H   UNL     1       1.661   2.453  17.963  0.00  0.00    +0.000 HD
ENDBRANCH  15  16
ENDBRANCH  14  15
ENDBRANCH  13  14
ENDBRANCH   8  13
ENDBRANCH   1   5
BRANCH   2  18
ATOM     18  C   UNL     1       1.047  10.175  18.720  0.00  0.00    +0.000 C 
ATOM     19  O   UNL     1       1.695  10.947  18.033  0.00  0.00    +0.000 OA
ATOM     20  N   UNL     1      -0.184  10.455  19.254  0.00  0.00    +0.000 N 
ATOM     21  H   UNL     1      -0.653   9.767  19.818  0.00  0.00    +0.000 HD
BRANCH  20  22
ATOM     22  C   UNL     1      -0.788  11.803  19.296  0.00  0.00    +0.000 C 
BRANCH  22  23
ATOM     23  C   UNL     1      -1.713  12.212  18.150  0.00  0.00    +0.000 C 
BRANCH  23  24
ATOM     24  N   UNL     1      -3.093  11.792  18.066  0.00  0.00    +0.000 N 
ATOM     25  C   UNL     1      -3.460  10.793  17.182  0.00  0.00    +0.000 A 
ATOM     26  C   UNL     1      -3.293   9.381  17.663  0.00  0.00    +0.000 C 
ATOM     27  C   UNL     1      -4.526  11.409  16.542  0.00  0.00    +0.000 A 
ATOM     28  C   UNL     1      -5.248  11.852  17.698  0.00  0.00    +0.000 A 
ATOM     29  C   UNL     1      -6.620  11.921  17.997  0.00  0.00    +0.000 A 
ATOM     30  C   UNL     1      -6.991  11.997  19.339  0.00  0.00    +0.000 A 
ATOM     31  C   UNL     1      -6.022  12.148  20.339  0.00  0.00    +0.000 A 
ATOM     32  C   UNL     1      -4.651  12.263  20.043  0.00  0.00    +0.000 A 
ATOM     33  C   UNL     1      -4.282  12.057  18.712  0.00  0.00    +0.000 A 
ENDBRANCH  23  24
ENDBRANCH  22  23
ENDBRANCH  20  22
ENDBRANCH   2  18
TORSDOF 11
ENDMDL
