MODEL 1
REMARK VINA RESULT:      -9.4      0.000      0.000
REMARK  Name = 
REMARK  5 active torsions:
REMARK  status: ('A' for Active; 'I' for Inactive)
REMARK    1  A    between atoms: C_2  and  C_11
REMARK    2  A    between atoms: N_3  and  C_4
REMARK    3  A    between atoms: C_4  and  C_5
REMARK    4  A    between atoms: C_16  and  C_17
REMARK    5  A    between atoms: C_21  and  C_22
REMARK                            x       y       z     vdW  Elec       q    Type
REMARK                         _______ _______ _______ _____ _____    ______ ____
ROOT
ATOM      1  C   UNL     1       0.711   9.586  21.266  0.00  0.00    +0.000 A 
ATOM      2  C   UNL     1       0.760  10.309  20.068  0.00  0.00    +0.000 A 
ATOM      3  C   UNL     1       1.329   9.754  18.920  0.00  0.00    +0.000 A 
ATOM      4  C   UNL     1       1.826   8.440  18.971  0.00  0.00    +0.000 A 
ATOM      5  C   UNL     1       2.433   7.598  18.006  0.00  0.00    +0.000 A 
ATOM      6  C   UNL     1       2.694   6.390  18.611  0.00  0.00    +0.000 A 
ATOM      7  N   UNL     1       2.224   6.453  19.897  0.00  0.00    +0.000 N 
ATOM      8  C   UNL     1       1.744   7.721  20.165  0.00  0.00    +0.000 A 
ATOM      9  C   UNL     1       1.214   8.275  21.343  0.00  0.00    +0.000 A 
ATOM     10  H   UNL     1       2.278   5.684  20.550  0.00  0.00    +0.000 HD
ENDROOT
BRANCH   6  11
ATOM     11  C   UNL     1       3.327   5.195  17.994  0.00  0.00    +0.000 A 
ATOM     12  N   UNL     1       2.586   4.110  17.731  0.00  0.00    +0.000 NA
ATOM     13  N   UNL     1       3.425   3.316  17.047  0.00  0.00    +0.000 N 
ATOM     14  C   UNL     1       4.700   3.794  16.977  0.00  0.00    +0.000 A 
ATOM     15  C   UNL     1       4.692   5.020  17.612  0.00  0.00    +0.000 A 
ATOM     16  H   UNL     1       3.065   2.444  16.671  0.00  0.00    +0.000 HD
BRANCH  15  17
ATOM     17  C   UNL     1       5.897   5.799  17.887  0.00  0.00    +0.000 A 
ATOM     18  C   UNL     1       6.812   5.415  18.877  0.00  0.00    +0.000 A 
ATOM     19  C   UNL     1       7.941   6.198  19.143  0.00  0.00    +0.000 A 
ATOM     20  C   UNL     1       8.181   7.360  18.412  0.00  0.00    +0.000 A 
ATOM     21  C   UNL     1       7.282   7.754  17.429  0.00  0.00    +0.000 A 
ATOM     22  C   UNL     1       6.138   6.992  17.187  0.00  0.00    +0.000 A 
ENDBRANCH  15  17
ENDBRANCH   6  11
BRANCH   1  24
ATOM     23  O   UNL     1       0.316   9.895  23.563  0.00  0.00    +0.000 OA
ATOM     24  C   UNL     1       0.036  10.234  22.417  0.00  0.00    +0.000 C 
ATOM     25  N   UNL     1      -0.921  11.184  22.139  0.00  0.00    +0.000 N 
ATOM     26  H   UNL     1      -1.287  11.268  21.203  0.00  0.00    +0.000 HD
BRANCH  25  27
ATOM     27  C   UNL     1      -1.662  11.816  23.216  0.00  0.00    +0.000 C 
BRANCH  27  28
ATOM     28  C   UNL     1      -2.985  12.389  22.776  0.00  0.00    +0.000 A 
ATOM     29  C   UNL     1      -3.150  12.899  21.490  0.00  0.00    +0.000 A 
ATOM     30  N   UNL     1      -4.334  13.379  21.036  0.00  0.00    +0.000 NA
ATOM     31  C   UNL     1      -5.352  13.345  21.922  0.00  0.00    +0.000 A 
ATOM     32  C   UNL     1      -5.193  12.859  23.209  0.00  0.00    +0.000 A 
ATOM     33  N   UNL     1      -4.014  12.376  23.668  0.00  0.00    +0.000 NA
ENDBRANCH  27  28
ENDBRANCH  25  27
ENDBRANCH   1  24
TORSDOF 5
ENDMDL
MODEL 2
REMARK VINA RESULT:      -9.2      1.938      3.301
REMARK  Name = 
REMARK  5 active torsions:
REMARK  status: ('A' for Active; 'I' for Inactive)
REMARK    1  A    between atoms: C_2  and  C_11
REMARK    2  A    between atoms: N_3  and  C_4
REMARK    3  A    between atoms: C_4  and  C_5
REMARK    4  A    between atoms: C_16  and  C_17
REMARK    5  A    between atoms: C_21  and  C_22
REMARK                            x       y       z     vdW  Elec       q    Type
REMARK                         _______ _______ _______ _____ _____    ______ ____
ROOT
ATOM      1  C   UNL     1      -0.030  10.449  21.147  0.00  0.00    +0.000 A 
ATOM      2  C   UNL     1      -0.320  11.032  19.908  0.00  0.00    +0.000 A 
ATOM      3  C   UNL     1       0.263  10.547  18.735  0.00  0.00    +0.000 A 
ATOM      4  C   UNL     1       1.124   9.439  18.809  0.00  0.00    +0.000 A 
ATOM      5  C   UNL     1       1.846   8.709  17.832  0.00  0.00    +0.000 A 
ATOM      6  C   UNL     1       2.510   7.691  18.476  0.00  0.00    +0.000 A 
ATOM      7  N   UNL     1       2.179   7.749  19.805  0.00  0.00    +0.000 N 
ATOM      8  C   UNL     1       1.381   8.849  20.048  0.00  0.00    +0.000 A 
ATOM      9  C   UNL     1       0.838   9.347  21.246  0.00  0.00    +0.000 A 
ATOM     10  H   UNL     1       2.523   7.096  20.496  0.00  0.00    +0.000 HD
ENDROOT
BRANCH   6  11
ATOM     11  C   UNL     1       3.396   6.667  17.864  0.00  0.00    +0.000 A 
ATOM     12  N   UNL     1       4.256   7.021  16.898  0.00  0.00    +0.000 NA
ATOM     13  N   UNL     1       4.985   5.911  16.705  0.00  0.00    +0.000 N 
ATOM     14  C   UNL     1       4.542   4.833  17.412  0.00  0.00    +0.000 A 
ATOM     15  C   UNL     1       3.477   5.275  18.171  0.00  0.00    +0.000 A 
ATOM     16  H   UNL     1       5.764   5.953  16.055  0.00  0.00    +0.000 HD
BRANCH  15  17
ATOM     17  C   UNL     1       2.624   4.393  18.963  0.00  0.00    +0.000 A 
ATOM     18  C   UNL     1       1.636   3.596  18.367  0.00  0.00    +0.000 A 
ATOM     19  C   UNL     1       0.808   2.785  19.153  0.00  0.00    +0.000 A 
ATOM     20  C   UNL     1       0.970   2.743  20.536  0.00  0.00    +0.000 A 
ATOM     21  C   UNL     1       1.943   3.528  21.140  0.00  0.00    +0.000 A 
ATOM     22  C   UNL     1       2.746   4.363  20.361  0.00  0.00    +0.000 A 
ENDBRANCH  15  17
ENDBRANCH   6  11
BRANCH   1  24
ATOM     23  O   UNL     1      -0.455  10.593  23.455  0.00  0.00    +0.000 OA
ATOM     24  C   UNL     1      -0.741  10.993  22.331  0.00  0.00    +0.000 C 
ATOM     25  N   UNL     1      -1.735  11.918  22.104  0.00  0.00    +0.000 N 
ATOM     26  H   UNL     1      -2.098  12.046  21.171  0.00  0.00    +0.000 HD
BRANCH  25  27
ATOM     27  C   UNL     1      -2.510  12.448  23.212  0.00  0.00    +0.000 C 
BRANCH  27  28
ATOM     28  C   UNL     1      -3.969  12.638  22.883  0.00  0.00    +0.000 A 
ATOM     29  C   UNL     1      -4.390  12.801  21.565  0.00  0.00    +0.000 A 
ATOM     30  N   UNL     1      -5.695  12.927  21.219  0.00  0.00    +0.000 NA
ATOM     31  C   UNL     1      -6.571  12.899  22.245  0.00  0.00    +0.000 A 
ATOM     32  C   UNL     1      -6.163  12.758  23.561  0.00  0.00    +0.000 A 
ATOM     33  N   UNL     1      -4.861  12.630  23.912  0.00  0.00    +0.000 NA
ENDBRANCH  27  28
ENDBRANCH  25  27
ENDBRANCH   1  24
TORSDOF 5
ENDMDL
MODEL 3
REMARK VINA RESULT:      -9.1      1.801      2.369
REMARK  Name = 
REMARK  5 active torsions:
REMARK  status: ('A' for Active; 'I' for Inactive)
REMARK    1  A    between atoms: C_2  and  C_11
REMARK    2  A    between atoms: N_3  and  C_4
REMARK    3  A    between atoms: C_4  and  C_5
REMARK    4  A    between atoms: C_16  and  C_17
REMARK    5  A    between atoms: C_21  and  C_22
REMARK                            x       y       z     vdW  Elec       q    Type
REMARK                         _______ _______ _______ _____ _____    ______ ____
ROOT
ATOM      1  C   UNL     1       0.991  10.167  19.914  0.00  0.00    +0.000 A 
ATOM      2  C   UNL     1       1.255  10.154  18.539  0.00  0.00    +0.000 A 
ATOM      3  C   UNL     1       1.826   9.035  17.930  0.00  0.00    +0.000 A 
ATOM      4  C   UNL     1       2.102   7.900  18.711  0.00  0.00    +0.000 A 
ATOM      5  C   UNL     1       2.649   6.627  18.408  0.00  0.00    +0.000 A 
ATOM      6  C   UNL     1       2.663   5.891  19.570  0.00  0.00    +0.000 A 
ATOM      7  N   UNL     1       2.101   6.656  20.559  0.00  0.00    +0.000 N 
ATOM      8  C   UNL     1       1.805   7.916  20.075  0.00  0.00    +0.000 A 
ATOM      9  C   UNL     1       1.271   9.047  20.716  0.00  0.00    +0.000 A 
ATOM     10  H   UNL     1       1.976   6.336  21.510  0.00  0.00    +0.000 HD
ENDROOT
BRANCH   6  11
ATOM     11  C   UNL     1       3.149   4.498  19.744  0.00  0.00    +0.000 A 
ATOM     12  N   UNL     1       2.677   3.748  20.750  0.00  0.00    +0.000 NA
ATOM     13  N   UNL     1       3.196   2.534  20.506  0.00  0.00    +0.000 N 
ATOM     14  C   UNL     1       4.078   2.512  19.467  0.00  0.00    +0.000 A 
ATOM     15  C   UNL     1       4.102   3.791  18.949  0.00  0.00    +0.000 A 
ATOM     16  H   UNL     1       2.921   1.763  21.107  0.00  0.00    +0.000 HD
BRANCH  15  17
ATOM     17  C   UNL     1       5.034   4.229  17.912  0.00  0.00    +0.000 A 
ATOM     18  C   UNL     1       6.288   4.769  18.230  0.00  0.00    +0.000 A 
ATOM     19  C   UNL     1       7.148   5.213  17.219  0.00  0.00    +0.000 A 
ATOM     20  C   UNL     1       6.776   5.104  15.881  0.00  0.00    +0.000 A 
ATOM     21  C   UNL     1       5.536   4.573  15.550  0.00  0.00    +0.000 A 
ATOM     22  C   UNL     1       4.664   4.163  16.559  0.00  0.00    +0.000 A 
ENDBRANCH  15  17
ENDBRANCH   6  11
BRANCH   1  24
ATOM     23  O   UNL     1       0.880  12.028  21.346  0.00  0.00    +0.000 OA
ATOM     24  C   UNL     1       0.331  11.377  20.462  0.00  0.00    +0.000 C 
ATOM     25  N   UNL     1      -0.912  11.701  19.967  0.00  0.00    +0.000 N 
ATOM     26  H   UNL     1      -1.427  11.026  19.422  0.00  0.00    +0.000 HD
BRANCH  25  27
ATOM     27  C   UNL     1      -1.640  12.839  20.500  0.00  0.00    +0.000 C 
BRANCH  27  28
ATOM     28  C   UNL     1      -3.125  12.601  20.608  0.00  0.00    +0.000 A 
ATOM     29  C   UNL     1      -3.770  12.658  21.841  0.00  0.00    +0.000 A 
ATOM     30  N   UNL     1      -5.110  12.499  21.978  0.00  0.00    +0.000 NA
ATOM     31  C   UNL     1      -5.786  12.264  20.834  0.00  0.00    +0.000 A 
ATOM     32  C   UNL     1      -5.152  12.185  19.605  0.00  0.00    +0.000 A 
ATOM     33  N   UNL     1      -3.815  12.346  19.461  0.00  0.00    +0.000 NA
ENDBRANCH  27  28
ENDBRANCH  25  27
ENDBRANCH   1  24
TORSDOF 5
ENDMDL
MODEL 4
REMARK VINA RESULT:      -9.1      1.390      1.888
REMARK  Name = 
REMARK  5 active torsions:
REMARK  status: ('A' for Active; 'I' for Inactive)
REMARK    1  A    between atoms: C_2  and  C_11
REMARK    2  A    between atoms: N_3  and  C_4
REMARK    3  A    between atoms: C_4  and  C_5
REMARK    4  A    between atoms: C_16  and  C_17
REMARK    5  A    between atoms: C_21  and  C_22
REMARK                            x       y       z     vdW  Elec       q    Type
REMARK                         _______ _______ _______ _____ _____    ______ ____
ROOT
ATOM      1  C   UNL     1       0.421  10.298  20.794  0.00  0.00    +0.000 A 
ATOM      2  C   UNL     1       0.652  10.520  19.432  0.00  0.00    +0.000 A 
ATOM      3  C   UNL     1       1.328   9.575  18.656  0.00  0.00    +0.000 A 
ATOM      4  C   UNL     1       1.747   8.375  19.256  0.00  0.00    +0.000 A 
ATOM      5  C   UNL     1       2.423   7.232  18.761  0.00  0.00    +0.000 A 
ATOM      6  C   UNL     1       2.547   6.337  19.798  0.00  0.00    +0.000 A 
ATOM      7  N   UNL     1       1.927   6.877  20.895  0.00  0.00    +0.000 N 
ATOM      8  C   UNL     1       1.483   8.154  20.609  0.00  0.00    +0.000 A 
ATOM      9  C   UNL     1       0.842   9.109  21.417  0.00  0.00    +0.000 A 
ATOM     10  H   UNL     1       1.862   6.408  21.788  0.00  0.00    +0.000 HD
ENDROOT
BRANCH   6  11
ATOM     11  C   UNL     1       3.188   4.997  19.757  0.00  0.00    +0.000 A 
ATOM     12  N   UNL     1       2.565   3.943  20.302  0.00  0.00    +0.000 NA
ATOM     13  N   UNL     1       3.335   2.904  19.943  0.00  0.00    +0.000 N 
ATOM     14  C   UNL     1       4.485   3.266  19.306  0.00  0.00    +0.000 A 
ATOM     15  C   UNL     1       4.447   4.640  19.184  0.00  0.00    +0.000 A 
ATOM     16  H   UNL     1       3.025   1.968  20.186  0.00  0.00    +0.000 HD
BRANCH  15  17
ATOM     17  C   UNL     1       5.562   5.442  18.688  0.00  0.00    +0.000 A 
ATOM     18  C   UNL     1       5.467   6.180  17.500  0.00  0.00    +0.000 A 
ATOM     19  C   UNL     1       6.562   6.913  17.028  0.00  0.00    +0.000 A 
ATOM     20  C   UNL     1       7.756   6.936  17.746  0.00  0.00    +0.000 A 
ATOM     21  C   UNL     1       7.866   6.208  18.924  0.00  0.00    +0.000 A 
ATOM     22  C   UNL     1       6.786   5.449  19.376  0.00  0.00    +0.000 A 
ENDBRANCH  15  17
ENDBRANCH   6  11
BRANCH   1  24
ATOM     23  O   UNL     1      -0.200  11.474  22.733  0.00  0.00    +0.000 OA
ATOM     24  C   UNL     1      -0.356  11.330  21.524  0.00  0.00    +0.000 C 
ATOM     25  N   UNL     1      -1.261  12.072  20.800  0.00  0.00    +0.000 N 
ATOM     26  H   UNL     1      -1.529  11.773  19.874  0.00  0.00    +0.000 HD
BRANCH  25  27
ATOM     27  C   UNL     1      -2.095  13.060  21.461  0.00  0.00    +0.000 C 
BRANCH  27  28
ATOM     28  C   UNL     1      -3.571  12.784  21.323  0.00  0.00    +0.000 A 
ATOM     29  C   UNL     1      -4.397  12.733  22.443  0.00  0.00    +0.000 A 
ATOM     30  N   UNL     1      -5.737  12.536  22.362  0.00  0.00    +0.000 NA
ATOM     31  C   UNL     1      -6.224  12.377  21.114  0.00  0.00    +0.000 A 
ATOM     32  C   UNL     1      -5.409  12.405  19.994  0.00  0.00    +0.000 A 
ATOM     33  N   UNL     1      -4.071  12.603  20.069  0.00  0.00    +0.000 NA
ENDBRANCH  27  28
ENDBRANCH  25  27
ENDBRANCH   1  24
TORSDOF 5
ENDMDL
MODEL 5
REMARK VINA RESULT:      -9.1      1.277      1.505
REMARK  Name = 
REMARK  5 active torsions:
REMARK  status: ('A' for Active; 'I' for Inactive)
REMARK    1  A    between atoms: C_2  and  C_11
REMARK    2  A    between atoms: N_3  and  C_4
REMARK    3  A    between atoms: C_4  and  C_5
REMARK    4  A    between atoms: C_16  and  C_17
REMARK    5  A    between atoms: C_21  and  C_22
REMARK                            x       y       z     vdW  Elec       q    Type
REMARK                         _______ _______ _______ _____ _____    ______ ____
ROOT
ATOM      1  C   UNL     1       0.666  10.466  20.847  0.00  0.00    +0.000 A 
ATOM      2  C   UNL     1       0.747  10.685  19.467  0.00  0.00    +0.000 A 
ATOM      3  C   UNL     1       1.285   9.715  18.618  0.00  0.00    +0.000 A 
ATOM      4  C   UNL     1       1.715   8.493  19.165  0.00  0.00    +0.000 A 
ATOM      5  C   UNL     1       2.276   7.323  18.595  0.00  0.00    +0.000 A 
ATOM      6  C   UNL     1       2.479   6.418  19.611  0.00  0.00    +0.000 A 
ATOM      7  N   UNL     1       2.016   6.980  20.772  0.00  0.00    +0.000 N 
ATOM      8  C   UNL     1       1.600   8.277  20.540  0.00  0.00    +0.000 A 
ATOM      9  C   UNL     1       1.102   9.256  21.417  0.00  0.00    +0.000 A 
ATOM     10  H   UNL     1       2.033   6.510  21.667  0.00  0.00    +0.000 HD
ENDROOT
BRANCH   6  11
ATOM     11  C   UNL     1       3.049   5.051  19.496  0.00  0.00    +0.000 A 
ATOM     12  N   UNL     1       2.339   3.995  19.916  0.00  0.00    +0.000 NA
ATOM     13  N   UNL     1       3.073   2.944  19.517  0.00  0.00    +0.000 N 
ATOM     14  C   UNL     1       4.277   3.289  18.978  0.00  0.00    +0.000 A 
ATOM     15  C   UNL     1       4.320   4.668  18.967  0.00  0.00    +0.000 A 
ATOM     16  H   UNL     1       2.699   2.012  19.664  0.00  0.00    +0.000 HD
BRANCH  15  17
ATOM     17  C   UNL     1       5.505   5.440  18.603  0.00  0.00    +0.000 A 
ATOM     18  C   UNL     1       6.689   5.367  19.349  0.00  0.00    +0.000 A 
ATOM     19  C   UNL     1       7.799   6.144  18.999  0.00  0.00    +0.000 A 
ATOM     20  C   UNL     1       7.748   6.985  17.889  0.00  0.00    +0.000 A 
ATOM     21  C   UNL     1       6.581   7.069  17.140  0.00  0.00    +0.000 A 
ATOM     22  C   UNL     1       5.463   6.321  17.510  0.00  0.00    +0.000 A 
ENDBRANCH  15  17
ENDBRANCH   6  11
BRANCH   1  24
ATOM     23  O   UNL     1       0.483  12.668  21.650  0.00  0.00    +0.000 OA
ATOM     24  C   UNL     1       0.027  11.528  21.662  0.00  0.00    +0.000 C 
ATOM     25  N   UNL     1      -1.052  11.170  22.437  0.00  0.00    +0.000 N 
ATOM     26  H   UNL     1      -1.251  10.195  22.602  0.00  0.00    +0.000 HD
BRANCH  25  27
ATOM     27  C   UNL     1      -1.689  12.147  23.303  0.00  0.00    +0.000 C 
BRANCH  27  28
ATOM     28  C   UNL     1      -3.142  12.380  22.974  0.00  0.00    +0.000 A 
ATOM     29  C   UNL     1      -4.102  12.441  23.981  0.00  0.00    +0.000 A 
ATOM     30  N   UNL     1      -5.411  12.696  23.735  0.00  0.00    +0.000 NA
ATOM     31  C   UNL     1      -5.733  12.877  22.437  0.00  0.00    +0.000 A 
ATOM     32  C   UNL     1      -4.789  12.799  21.426  0.00  0.00    +0.000 A 
ATOM     33  N   UNL     1      -3.481  12.546  21.665  0.00  0.00    +0.000 NA
ENDBRANCH  27  28
ENDBRANCH  25  27
ENDBRANCH   1  24
TORSDOF 5
ENDMDL
MODEL 6
REMARK VINA RESULT:      -9.0      1.316      1.544
REMARK  Name = 
REMARK  5 active torsions:
REMARK  status: ('A' for Active; 'I' for Inactive)
REMARK    1  A    between atoms: C_2  and  C_11
REMARK    2  A    between atoms: N_3  and  C_4
REMARK    3  A    between atoms: C_4  and  C_5
REMARK    4  A    between atoms: C_16  and  C_17
REMARK    5  A    between atoms: C_21  and  C_22
REMARK                            x       y       z     vdW  Elec       q    Type
REMARK                         _______ _______ _______ _____ _____    ______ ____
ROOT
ATOM      1  C   UNL     1       0.686   9.622  21.212  0.00  0.00    +0.000 A 
ATOM      2  C   UNL     1       0.767  10.347  20.017  0.00  0.00    +0.000 A 
ATOM      3  C   UNL     1       1.340   9.783  18.875  0.00  0.00    +0.000 A 
ATOM      4  C   UNL     1       1.806   8.457  18.929  0.00  0.00    +0.000 A 
ATOM      5  C   UNL     1       2.407   7.604  17.970  0.00  0.00    +0.000 A 
ATOM      6  C   UNL     1       2.633   6.390  18.575  0.00  0.00    +0.000 A 
ATOM      7  N   UNL     1       2.147   6.460  19.854  0.00  0.00    +0.000 N 
ATOM      8  C   UNL     1       1.691   7.737  20.120  0.00  0.00    +0.000 A 
ATOM      9  C   UNL     1       1.158   8.300  21.292  0.00  0.00    +0.000 A 
ATOM     10  H   UNL     1       2.174   5.688  20.506  0.00  0.00    +0.000 HD
ENDROOT
BRANCH   6  11
ATOM     11  C   UNL     1       3.247   5.182  17.963  0.00  0.00    +0.000 A 
ATOM     12  N   UNL     1       2.488   4.110  17.698  0.00  0.00    +0.000 NA
ATOM     13  N   UNL     1       3.316   3.300  17.019  0.00  0.00    +0.000 N 
ATOM     14  C   UNL     1       4.600   3.755  16.956  0.00  0.00    +0.000 A 
ATOM     15  C   UNL     1       4.611   4.982  17.589  0.00  0.00    +0.000 A 
ATOM     16  H   UNL     1       2.942   2.435  16.643  0.00  0.00    +0.000 HD
BRANCH  15  17
ATOM     17  C   UNL     1       5.828   5.739  17.869  0.00  0.00    +0.000 A 
ATOM     18  C   UNL     1       6.725   5.347  18.872  0.00  0.00    +0.000 A 
ATOM     19  C   UNL     1       7.867   6.110  19.143  0.00  0.00    +0.000 A 
ATOM     20  C   UNL     1       8.138   7.259  18.404  0.00  0.00    +0.000 A 
ATOM     21  C   UNL     1       7.258   7.662  17.407  0.00  0.00    +0.000 A 
ATOM     22  C   UNL     1       6.101   6.920  17.160  0.00  0.00    +0.000 A 
ENDBRANCH  15  17
ENDBRANCH   6  11
BRANCH   1  24
ATOM     23  O   UNL     1       0.291   9.956  23.505  0.00  0.00    +0.000 OA
ATOM     24  C   UNL     1       0.010  10.282  22.356  0.00  0.00    +0.000 C 
ATOM     25  N   UNL     1      -0.949  11.227  22.066  0.00  0.00    +0.000 N 
ATOM     26  H   UNL     1      -1.316  11.299  21.129  0.00  0.00    +0.000 HD
BRANCH  25  27
ATOM     27  C   UNL     1      -1.691  11.870  23.137  0.00  0.00    +0.000 C 
BRANCH  27  28
ATOM     28  C   UNL     1      -1.692  13.375  23.043  0.00  0.00    +0.000 A 
ATOM     29  C   UNL     1      -2.488  14.032  22.107  0.00  0.00    +0.000 A 
ATOM     30  N   UNL     1      -2.557  15.383  22.019  0.00  0.00    +0.000 NA
ATOM     31  C   UNL     1      -1.787  16.061  22.896  0.00  0.00    +0.000 A 
ATOM     32  C   UNL     1      -0.976  15.418  23.816  0.00  0.00    +0.000 A 
ATOM     33  N   UNL     1      -0.904  14.069  23.910  0.00  0.00    +0.000 NA
ENDBRANCH  27  28
ENDBRANCH  25  27
ENDBRANCH   1  24
TORSDOF 5
ENDMDL
MODEL 7
REMARK VINA RESULT:      -9.0      1.741      2.334
REMARK  Name = 
REMARK  5 active torsions:
REMARK  status: ('A' for Active; 'I' for Inactive)
REMARK    1  A    between atoms: C_2  and  C_11
REMARK    2  A    between atoms: N_3  and  C_4
REMARK    3  A    between atoms: C_4  and  C_5
REMARK    4  A    between atoms: C_16  and  C_17
REMARK    5  A    between atoms: C_21  and  C_22
REMARK                            x       y       z     vdW  Elec       q    Type
REMARK                         _______ _______ _______ _____ _____    ______ ____
ROOT
ATOM      1  C   UNL     1       0.889  10.381  19.921  0.00  0.00    +0.000 A 
ATOM      2  C   UNL     1       1.240  10.314  18.568  0.00  0.00    +0.000 A 
ATOM      3  C   UNL     1       1.827   9.164  18.036  0.00  0.00    +0.000 A 
ATOM      4  C   UNL     1       2.031   8.053  18.873  0.00  0.00    +0.000 A 
ATOM      5  C   UNL     1       2.571   6.762  18.650  0.00  0.00    +0.000 A 
ATOM      6  C   UNL     1       2.496   6.068  19.835  0.00  0.00    +0.000 A 
ATOM      7  N   UNL     1       1.887   6.877  20.759  0.00  0.00    +0.000 N 
ATOM      8  C   UNL     1       1.648   8.123  20.214  0.00  0.00    +0.000 A 
ATOM      9  C   UNL     1       1.095   9.286  20.779  0.00  0.00    +0.000 A 
ATOM     10  H   UNL     1       1.696   6.594  21.710  0.00  0.00    +0.000 HD
ENDROOT
BRANCH   6  11
ATOM     11  C   UNL     1       2.944   4.673  20.089  0.00  0.00    +0.000 A 
ATOM     12  N   UNL     1       2.336   3.940  21.032  0.00  0.00    +0.000 NA
ATOM     13  N   UNL     1       2.872   2.719  20.874  0.00  0.00    +0.000 N 
ATOM     14  C   UNL     1       3.884   2.678  19.961  0.00  0.00    +0.000 A 
ATOM     15  C   UNL     1       3.988   3.950  19.436  0.00  0.00    +0.000 A 
ATOM     16  H   UNL     1       2.513   1.958  21.441  0.00  0.00    +0.000 HD
BRANCH  15  17
ATOM     17  C   UNL     1       5.052   4.369  18.527  0.00  0.00    +0.000 A 
ATOM     18  C   UNL     1       5.037   4.026  17.168  0.00  0.00    +0.000 A 
ATOM     19  C   UNL     1       6.087   4.411  16.326  0.00  0.00    +0.000 A 
ATOM     20  C   UNL     1       7.151   5.159  16.825  0.00  0.00    +0.000 A 
ATOM     21  C   UNL     1       7.181   5.505  18.170  0.00  0.00    +0.000 A 
ATOM     22  C   UNL     1       6.152   5.091  19.017  0.00  0.00    +0.000 A 
ENDBRANCH  15  17
ENDBRANCH   6  11
BRANCH   1  24
ATOM     23  O   UNL     1       0.071  12.563  19.611  0.00  0.00    +0.000 OA
ATOM     24  C   UNL     1       0.218  11.621  20.384  0.00  0.00    +0.000 C 
ATOM     25  N   UNL     1      -0.186  11.670  21.699  0.00  0.00    +0.000 N 
ATOM     26  H   UNL     1       0.155  10.984  22.355  0.00  0.00    +0.000 HD
BRANCH  25  27
ATOM     27  C   UNL     1      -0.797  12.875  22.233  0.00  0.00    +0.000 C 
BRANCH  27  28
ATOM     28  C   UNL     1      -2.304  12.848  22.196  0.00  0.00    +0.000 A 
ATOM     29  C   UNL     1      -3.036  12.332  23.262  0.00  0.00    +0.000 A 
ATOM     30  N   UNL     1      -4.392  12.332  23.292  0.00  0.00    +0.000 NA
ATOM     31  C   UNL     1      -4.996  12.856  22.205  0.00  0.00    +0.000 A 
ATOM     32  C   UNL     1      -4.278  13.353  21.130  0.00  0.00    +0.000 A 
ATOM     33  N   UNL     1      -2.924  13.358  21.095  0.00  0.00    +0.000 NA
ENDBRANCH  27  28
ENDBRANCH  25  27
ENDBRANCH   1  24
TORSDOF 5
ENDMDL
MODEL 8
REMARK VINA RESULT:      -8.9      1.862      2.388
REMARK  Name = 
REMARK  5 active torsions:
REMARK  status: ('A' for Active; 'I' for Inactive)
REMARK    1  A    between atoms: C_2  and  C_11
REMARK    2  A    between atoms: N_3  and  C_4
REMARK    3  A    between atoms: C_4  and  C_5
REMARK    4  A    between atoms: C_16  and  C_17
REMARK    5  A    between atoms: C_21  and  C_22
REMARK                            x       y       z     vdW  Elec       q    Type
REMARK                         _______ _______ _______ _____ _____    ______ ____
ROOT
ATOM      1  C   UNL     1       0.971  10.151  19.688  0.00  0.00    +0.000 A 
ATOM      2  C   UNL     1       1.331  10.093  18.336  0.00  0.00    +0.000 A 
ATOM      3  C   UNL     1       1.946   8.956  17.807  0.00  0.00    +0.000 A 
ATOM      4  C   UNL     1       2.170   7.849  18.644  0.00  0.00    +0.000 A 
ATOM      5  C   UNL     1       2.739   6.570  18.423  0.00  0.00    +0.000 A 
ATOM      6  C   UNL     1       2.674   5.874  19.608  0.00  0.00    +0.000 A 
ATOM      7  N   UNL     1       2.042   6.669  20.528  0.00  0.00    +0.000 N 
ATOM      8  C   UNL     1       1.778   7.910  19.983  0.00  0.00    +0.000 A 
ATOM      9  C   UNL     1       1.197   9.059  20.546  0.00  0.00    +0.000 A 
ATOM     10  H   UNL     1       1.852   6.381  21.479  0.00  0.00    +0.000 HD
ENDROOT
BRANCH   6  11
ATOM     11  C   UNL     1       3.151   4.490  19.863  0.00  0.00    +0.000 A 
ATOM     12  N   UNL     1       2.692   3.812  20.925  0.00  0.00    +0.000 NA
ATOM     13  N   UNL     1       3.194   2.579  20.750  0.00  0.00    +0.000 N 
ATOM     14  C   UNL     1       4.055   2.480  19.697  0.00  0.00    +0.000 A 
ATOM     15  C   UNL     1       4.080   3.723  19.096  0.00  0.00    +0.000 A 
ATOM     16  H   UNL     1       2.924   1.852  21.406  0.00  0.00    +0.000 HD
BRANCH  15  17
ATOM     17  C   UNL     1       4.994   4.082  18.015  0.00  0.00    +0.000 A 
ATOM     18  C   UNL     1       4.673   3.848  16.671  0.00  0.00    +0.000 A 
ATOM     19  C   UNL     1       5.581   4.171  15.656  0.00  0.00    +0.000 A 
ATOM     20  C   UNL     1       6.809   4.750  15.969  0.00  0.00    +0.000 A 
ATOM     21  C   UNL     1       7.143   4.987  17.296  0.00  0.00    +0.000 A 
ATOM     22  C   UNL     1       6.252   4.633  18.310  0.00  0.00    +0.000 A 
ENDBRANCH  15  17
ENDBRANCH   6  11
BRANCH   1  24
ATOM     23  O   UNL     1       0.581  12.469  19.686  0.00  0.00    +0.000 OA
ATOM     24  C   UNL     1       0.271  11.375  20.148  0.00  0.00    +0.000 C 
ATOM     25  N   UNL     1      -0.694  11.227  21.118  0.00  0.00    +0.000 N 
ATOM     26  H   UNL     1      -0.758  10.363  21.635  0.00  0.00    +0.000 HD
BRANCH  25  27
ATOM     27  C   UNL     1      -1.378  12.390  21.655  0.00  0.00    +0.000 C 
BRANCH  27  28
ATOM     28  C   UNL     1      -2.817  12.492  21.218  0.00  0.00    +0.000 A 
ATOM     29  C   UNL     1      -3.164  12.397  19.872  0.00  0.00    +0.000 A 
ATOM     30  N   UNL     1      -4.448  12.435  19.438  0.00  0.00    +0.000 NA
ATOM     31  C   UNL     1      -5.381  12.587  20.401  0.00  0.00    +0.000 A 
ATOM     32  C   UNL     1      -5.046  12.703  21.741  0.00  0.00    +0.000 A 
ATOM     33  N   UNL     1      -3.766  12.664  22.180  0.00  0.00    +0.000 NA
ENDBRANCH  27  28
ENDBRANCH  25  27
ENDBRANCH   1  24
TORSDOF 5
ENDMDL
MODEL 9
REMARK VINA RESULT:      -8.9      1.447      1.805
REMARK  Name = 
REMARK  5 active torsions:
REMARK  status: ('A' for Active; 'I' for Inactive)
REMARK    1  A    between atoms: C_2  and  C_11
REMARK    2  A    between atoms: N_3  and  C_4
REMARK    3  A    between atoms: C_4  and  C_5
REMARK    4  A    between atoms: C_16  and  C_17
REMARK    5  A    between atoms: C_21  and  C_22
REMARK                            x       y       z     vdW  Elec       q    Type
REMARK                         _______ _______ _______ _____ _____    ______ ____
ROOT
ATOM      1  C   UNL     1       1.124   9.819  20.419  0.00  0.00    +0.000 A 
ATOM      2  C   UNL     1       1.329  10.027  19.050  0.00  0.00    +0.000 A 
ATOM      3  C   UNL     1       1.801   8.999  18.231  0.00  0.00    +0.000 A 
ATOM      4  C   UNL     1       2.038   7.733  18.795  0.00  0.00    +0.000 A 
ATOM      5  C   UNL     1       2.490   6.503  18.254  0.00  0.00    +0.000 A 
ATOM      6  C   UNL     1       2.507   5.579  19.273  0.00  0.00    +0.000 A 
ATOM      7  N   UNL     1       2.036   6.193  20.405  0.00  0.00    +0.000 N 
ATOM      8  C   UNL     1       1.801   7.532  20.156  0.00  0.00    +0.000 A 
ATOM      9  C   UNL     1       1.367   8.564  21.006  0.00  0.00    +0.000 A 
ATOM     10  H   UNL     1       1.932   5.723  21.293  0.00  0.00    +0.000 HD
ENDROOT
BRANCH   6  11
ATOM     11  C   UNL     1       2.911   4.152  19.184  0.00  0.00    +0.000 A 
ATOM     12  N   UNL     1       2.294   3.236  19.944  0.00  0.00    +0.000 NA
ATOM     13  N   UNL     1       2.787   2.072  19.494  0.00  0.00    +0.000 N 
ATOM     14  C   UNL     1       3.783   2.216  18.573  0.00  0.00    +0.000 A 
ATOM     15  C   UNL     1       3.920   3.572  18.356  0.00  0.00    +0.000 A 
ATOM     16  H   UNL     1       2.412   1.209  19.877  0.00  0.00    +0.000 HD
BRANCH  15  17
ATOM     17  C   UNL     1       4.983   4.160  17.545  0.00  0.00    +0.000 A 
ATOM     18  C   UNL     1       6.127   4.724  18.128  0.00  0.00    +0.000 A 
ATOM     19  C   UNL     1       7.115   5.312  17.330  0.00  0.00    +0.000 A 
ATOM     20  C   UNL     1       6.984   5.325  15.943  0.00  0.00    +0.000 A 
ATOM     21  C   UNL     1       5.856   4.773  15.351  0.00  0.00    +0.000 A 
ATOM     22  C   UNL     1       4.854   4.217  16.148  0.00  0.00    +0.000 A 
ENDBRANCH  15  17
ENDBRANCH   6  11
BRANCH   1  24
ATOM     23  O   UNL     1       1.164  12.022  21.237  0.00  0.00    +0.000 OA
ATOM     24  C   UNL     1       0.566  10.951  21.197  0.00  0.00    +0.000 C 
ATOM     25  N   UNL     1      -0.608  10.732  21.883  0.00  0.00    +0.000 N 
ATOM     26  H   UNL     1      -0.942   9.789  22.018  0.00  0.00    +0.000 HD
BRANCH  25  27
ATOM     27  C   UNL     1      -1.180  11.779  22.711  0.00  0.00    +0.000 C 
BRANCH  27  28
ATOM     28  C   UNL     1      -2.507  12.284  22.204  0.00  0.00    +0.000 A 
ATOM     29  C   UNL     1      -2.657  12.698  20.883  0.00  0.00    +0.000 A 
ATOM     30  N   UNL     1      -3.842  13.114  20.371  0.00  0.00    +0.000 NA
ATOM     31  C   UNL     1      -4.878  13.115  21.237  0.00  0.00    +0.000 A 
ATOM     32  C   UNL     1      -4.736  12.725  22.558  0.00  0.00    +0.000 A 
ATOM     33  N   UNL     1      -3.555  12.307  23.074  0.00  0.00    +0.000 NA
ENDBRANCH  27  28
ENDBRANCH  25  27
ENDBRANCH   1  24
TORSDOF 5
ENDMDL
