MODEL 1
REMARK VINA RESULT:      -7.0      0.000      0.000
REMARK  Name = 
REMARK  16 active torsions:
REMARK  status: ('A' for Active; 'I' for Inactive)
REMARK    1  A    between atoms: C_1  and  C_2
REMARK    2  A    between atoms: C_2  and  N_3
REMARK    3  A    between atoms: C_4  and  C_6
REMARK    4  A    between atoms: N_9  and  C_10
REMARK    5  A    between atoms: C_12  and  C_13
REMARK    6  A    between atoms: C_13  and  C_14
REMARK    7  A    between atoms: C_13  and  C_15
REMARK    8  A    between atoms: C_16  and  O_17
REMARK    9  A    between atoms: C_19  and  O_20
REMARK   10  A    between atoms: C_21  and  C_22
REMARK   11  A    between atoms: C_25  and  C_26
REMARK   12  A    between atoms: C_26  and  N_27
REMARK   13  A    between atoms: N_27  and  C_28
REMARK   14  A    between atoms: N_27  and  C_30
REMARK   15  A    between atoms: C_28  and  C_29
REMARK   16  A    between atoms: C_30  and  C_31
REMARK                            x       y       z     vdW  Elec       q    Type
REMARK                         _______ _______ _______ _____ _____    ______ ____
ROOT
ATOM      1  C   UNL     1      -1.095  11.508  18.035  0.00  0.00    +0.000 A 
ATOM      2  N   UNL     1      -1.488  12.819  18.076  0.00  0.00    +0.000 NA
ATOM      3  N   UNL     1      -0.557  13.504  18.718  0.00  0.00    +0.000 NA
ATOM      4  N   UNL     1       0.517  12.695  18.925  0.00  0.00    +0.000 N 
ATOM      5  C   UNL     1       0.176  11.374  18.597  0.00  0.00    +0.000 A 
ENDROOT
BRANCH   4   6
ATOM      6  C   UNL     1       1.725  13.258  19.425  0.00  0.00    +0.000 A 
ATOM      7  C   UNL     1       2.605  13.885  18.516  0.00  0.00    +0.000 A 
ATOM      8  C   UNL     1       3.793  14.522  18.944  0.00  0.00    +0.000 A 
ATOM      9  C   UNL     1       4.076  14.484  20.320  0.00  0.00    +0.000 A 
ATOM     10  C   UNL     1       3.225  13.845  21.224  0.00  0.00    +0.000 A 
ATOM     11  C   UNL     1       2.071  13.211  20.775  0.00  0.00    +0.000 A 
BRANCH   8  12
ATOM     12  C   UNL     1       4.742  15.147  17.926  0.00  0.00    +0.000 C 
ATOM     13  C   UNL     1       4.915  16.640  18.224  0.00  0.00    +0.000 C 
ATOM     14  C   UNL     1       6.119  14.480  17.822  0.00  0.00    +0.000 C 
ENDBRANCH   8  12
BRANCH   9  15
ATOM     15  O   UNL     1       5.194  15.029  20.891  0.00  0.00    +0.000 OA
ATOM     16  H   UNL     1       5.604  15.670  20.294  0.00  0.00    +0.000 HD
ENDBRANCH   9  15
BRANCH  11  17
ATOM     17  O   UNL     1       1.346  12.471  21.663  0.00  0.00    +0.000 OA
ATOM     18  H   UNL     1       0.400  12.564  21.452  0.00  0.00    +0.000 HD
ENDBRANCH  11  17
ENDBRANCH   4   6
BRANCH   5  19
ATOM     19  C   UNL     1       1.009  10.174  18.781  0.00  0.00    +0.000 A 
ATOM     20  C   UNL     1       1.859   9.689  17.777  0.00  0.00    +0.000 A 
ATOM     21  C   UNL     1       2.463   8.433  17.900  0.00  0.00    +0.000 A 
ATOM     22  C   UNL     1       2.327   7.698  19.083  0.00  0.00    +0.000 A 
ATOM     23  C   UNL     1       1.597   8.247  20.143  0.00  0.00    +0.000 A 
ATOM     24  C   UNL     1       0.919   9.445  19.974  0.00  0.00    +0.000 A 
BRANCH  22  25
ATOM     25  C   UNL     1       2.854   6.294  19.212  0.00  0.00    +0.000 C 
BRANCH  25  26
ATOM     26  N   UNL     1       1.833   5.242  19.318  0.00  0.00    +0.000 NA
BRANCH  26  27
ATOM     27  C   UNL     1       1.743   4.396  18.111  0.00  0.00    +0.000 C 
ATOM     28  C   UNL     1       3.060   3.929  17.498  0.00  0.00    +0.000 C 
ENDBRANCH  26  27
BRANCH  26  29
ATOM     29  C   UNL     1       2.078   4.497  20.566  0.00  0.00    +0.000 C 
ATOM     30  C   UNL     1       1.172   3.290  20.768  0.00  0.00    +0.000 C 
ENDBRANCH  26  29
ENDBRANCH  25  26
ENDBRANCH  22  25
ENDBRANCH   5  19
BRANCH   1  32
ATOM     31  N   UNL     1      -2.258  10.622  16.146  0.00  0.00    +0.000 N 
ATOM     32  C   UNL     1      -1.947  10.462  17.479  0.00  0.00    +0.000 C 
ATOM     33  O   UNL     1      -2.329   9.488  18.126  0.00  0.00    +0.000 OA
ATOM     34  H   UNL     1      -1.996  11.496  15.695  0.00  0.00    +0.000 HD
BRANCH  31  36
ATOM     35  C   UNL     1      -3.220  10.042  13.973  0.00  0.00    +0.000 C 
ATOM     36  C   UNL     1      -3.031   9.639  15.420  0.00  0.00    +0.000 C 
ENDBRANCH  31  36
ENDBRANCH   1  32
TORSDOF 11
ENDMDL
MODEL 2
REMARK VINA RESULT:      -6.8      4.789      8.867
REMARK  Name = 
REMARK  16 active torsions:
REMARK  status: ('A' for Active; 'I' for Inactive)
REMARK    1  A    between atoms: C_1  and  C_2
REMARK    2  A    between atoms: C_2  and  N_3
REMARK    3  A    between atoms: C_4  and  C_6
REMARK    4  A    between atoms: N_9  and  C_10
REMARK    5  A    between atoms: C_12  and  C_13
REMARK    6  A    between atoms: C_13  and  C_14
REMARK    7  A    between atoms: C_13  and  C_15
REMARK    8  A    between atoms: C_16  and  O_17
REMARK    9  A    between atoms: C_19  and  O_20
REMARK   10  A    between atoms: C_21  and  C_22
REMARK   11  A    between atoms: C_25  and  C_26
REMARK   12  A    between atoms: C_26  and  N_27
REMARK   13  A    between atoms: N_27  and  C_28
REMARK   14  A    between atoms: N_27  and  C_30
REMARK   15  A    between atoms: C_28  and  C_29
REMARK   16  A    between atoms: C_30  and  C_31
REMARK                            x       y       z     vdW  Elec       q    Type
REMARK                         _______ _______ _______ _____ _____    ______ ____
ROOT
ATOM      1  C   UNL     1       5.357   4.559  16.156  0.00  0.00    +0.000 A 
ATOM      2  N   UNL     1       4.247   3.758  16.115  0.00  0.00    +0.000 NA
ATOM      3  N   UNL     1       3.456   4.105  17.117  0.00  0.00    +0.000 NA
ATOM      4  N   UNL     1       3.946   5.239  17.688  0.00  0.00    +0.000 N 
ATOM      5  C   UNL     1       5.223   5.508  17.171  0.00  0.00    +0.000 A 
ENDROOT
BRANCH   4   6
ATOM      6  C   UNL     1       3.163   5.919  18.663  0.00  0.00    +0.000 A 
ATOM      7  C   UNL     1       2.750   7.242  18.395  0.00  0.00    +0.000 A 
ATOM      8  C   UNL     1       1.920   7.961  19.285  0.00  0.00    +0.000 A 
ATOM      9  C   UNL     1       1.537   7.307  20.469  0.00  0.00    +0.000 A 
ATOM     10  C   UNL     1       1.960   6.008  20.755  0.00  0.00    +0.000 A 
ATOM     11  C   UNL     1       2.791   5.329  19.870  0.00  0.00    +0.000 A 
BRANCH   8  12
ATOM     12  C   UNL     1       1.535   9.407  18.983  0.00  0.00    +0.000 C 
ATOM     13  C   UNL     1       2.261   9.886  17.723  0.00  0.00    +0.000 C 
ATOM     14  C   UNL     1       0.029   9.665  18.841  0.00  0.00    +0.000 C 
ENDBRANCH   8  12
BRANCH   9  15
ATOM     15  O   UNL     1       0.760   7.872  21.443  0.00  0.00    +0.000 OA
ATOM     16  H   UNL     1       0.599   7.242  22.160  0.00  0.00    +0.000 HD
ENDBRANCH   9  15
BRANCH  11  17
ATOM     17  O   UNL     1       3.305   4.123  20.252  0.00  0.00    +0.000 OA
ATOM     18  H   UNL     1       4.221   4.253  20.555  0.00  0.00    +0.000 HD
ENDBRANCH  11  17
ENDBRANCH   4   6
BRANCH   5  19
ATOM     19  C   UNL     1       6.143   6.573  17.601  0.00  0.00    +0.000 A 
ATOM     20  C   UNL     1       6.001   7.903  17.182  0.00  0.00    +0.000 A 
ATOM     21  C   UNL     1       7.011   8.839  17.426  0.00  0.00    +0.000 A 
ATOM     22  C   UNL     1       8.123   8.491  18.201  0.00  0.00    +0.000 A 
ATOM     23  C   UNL     1       8.196   7.203  18.744  0.00  0.00    +0.000 A 
ATOM     24  C   UNL     1       7.241   6.254  18.412  0.00  0.00    +0.000 A 
BRANCH  22  25
ATOM     25  C   UNL     1       9.290   9.425  18.384  0.00  0.00    +0.000 C 
BRANCH  25  26
ATOM     26  N   UNL     1       8.958  10.756  18.909  0.00  0.00    +0.000 NA
BRANCH  26  27
ATOM     27  C   UNL     1       9.433  10.971  20.290  0.00  0.00    +0.000 C 
ATOM     28  C   UNL     1      10.706  11.796  20.460  0.00  0.00    +0.000 C 
ENDBRANCH  26  27
BRANCH  26  29
ATOM     29  C   UNL     1       9.436  11.758  17.939  0.00  0.00    +0.000 C 
ATOM     30  C   UNL     1       8.457  12.893  17.670  0.00  0.00    +0.000 C 
ENDBRANCH  26  29
ENDBRANCH  25  26
ENDBRANCH  22  25
ENDBRANCH   5  19
BRANCH   1  32
ATOM     31  N   UNL     1       6.124   4.183  13.926  0.00  0.00    +0.000 N 
ATOM     32  C   UNL     1       6.480   4.372  15.243  0.00  0.00    +0.000 C 
ATOM     33  O   UNL     1       7.656   4.420  15.601  0.00  0.00    +0.000 OA
ATOM     34  H   UNL     1       5.138   4.054  13.710  0.00  0.00    +0.000 HD
BRANCH  31  36
ATOM     35  C   UNL     1       6.650   3.112  11.790  0.00  0.00    +0.000 C 
ATOM     36  C   UNL     1       7.113   4.056  12.879  0.00  0.00    +0.000 C 
ENDBRANCH  31  36
ENDBRANCH   1  32
TORSDOF 11
ENDMDL
MODEL 3
REMARK VINA RESULT:      -6.7      0.796      1.025
REMARK  Name = 
REMARK  16 active torsions:
REMARK  status: ('A' for Active; 'I' for Inactive)
REMARK    1  A    between atoms: C_1  and  C_2
REMARK    2  A    between atoms: C_2  and  N_3
REMARK    3  A    between atoms: C_4  and  C_6
REMARK    4  A    between atoms: N_9  and  C_10
REMARK    5  A    between atoms: C_12  and  C_13
REMARK    6  A    between atoms: C_13  and  C_14
REMARK    7  A    between atoms: C_13  and  C_15
REMARK    8  A    between atoms: C_16  and  O_17
REMARK    9  A    between atoms: C_19  and  O_20
REMARK   10  A    between atoms: C_21  and  C_22
REMARK   11  A    between atoms: C_25  and  C_26
REMARK   12  A    between atoms: C_26  and  N_27
REMARK   13  A    between atoms: N_27  and  C_28
REMARK   14  A    between atoms: N_27  and  C_30
REMARK   15  A    between atoms: C_28  and  C_29
REMARK   16  A    between atoms: C_30  and  C_31
REMARK                            x       y       z     vdW  Elec       q    Type
REMARK                         _______ _______ _______ _____ _____    ______ ____
ROOT
ATOM      1  C   UNL     1      -1.043  11.783  18.014  0.00  0.00    +0.000 A 
ATOM      2  N   UNL     1      -1.366  13.114  18.041  0.00  0.00    +0.000 NA
ATOM      3  N   UNL     1      -0.407  13.754  18.687  0.00  0.00    +0.000 NA
ATOM      4  N   UNL     1       0.621  12.891  18.912  0.00  0.00    +0.000 N 
ATOM      5  C   UNL     1       0.214  11.587  18.591  0.00  0.00    +0.000 A 
ENDROOT
BRANCH   4   6
ATOM      6  C   UNL     1       1.852  13.394  19.419  0.00  0.00    +0.000 A 
ATOM      7  C   UNL     1       2.764  13.982  18.517  0.00  0.00    +0.000 A 
ATOM      8  C   UNL     1       3.980  14.560  18.953  0.00  0.00    +0.000 A 
ATOM      9  C   UNL     1       4.254  14.503  20.331  0.00  0.00    +0.000 A 
ATOM     10  C   UNL     1       3.370  13.902  21.228  0.00  0.00    +0.000 A 
ATOM     11  C   UNL     1       2.189  13.325  20.771  0.00  0.00    +0.000 A 
BRANCH   8  12
ATOM     12  C   UNL     1       4.962  15.144  17.942  0.00  0.00    +0.000 C 
ATOM     13  C   UNL     1       5.234  16.615  18.270  0.00  0.00    +0.000 C 
ATOM     14  C   UNL     1       6.293  14.390  17.815  0.00  0.00    +0.000 C 
ENDBRANCH   8  12
BRANCH   9  15
ATOM     15  O   UNL     1       5.395  14.991  20.908  0.00  0.00    +0.000 OA
ATOM     16  H   UNL     1       5.180  15.641  21.592  0.00  0.00    +0.000 HD
ENDBRANCH   9  15
BRANCH  11  17
ATOM     17  O   UNL     1       1.426  12.616  21.652  0.00  0.00    +0.000 OA
ATOM     18  H   UNL     1       2.011  12.192  22.305  0.00  0.00    +0.000 HD
ENDBRANCH  11  17
ENDBRANCH   4   6
BRANCH   5  19
ATOM     19  C   UNL     1       0.980  10.347  18.793  0.00  0.00    +0.000 A 
ATOM     20  C   UNL     1       1.788   9.791  17.790  0.00  0.00    +0.000 A 
ATOM     21  C   UNL     1       2.323   8.507  17.936  0.00  0.00    +0.000 A 
ATOM     22  C   UNL     1       2.160   7.807  19.137  0.00  0.00    +0.000 A 
ATOM     23  C   UNL     1       1.477   8.421  20.193  0.00  0.00    +0.000 A 
ATOM     24  C   UNL     1       0.866   9.651  20.004  0.00  0.00    +0.000 A 
BRANCH  22  25
ATOM     25  C   UNL     1       2.609   6.379  19.294  0.00  0.00    +0.000 C 
BRANCH  25  26
ATOM     26  N   UNL     1       2.953   5.684  18.046  0.00  0.00    +0.000 NA
BRANCH  26  27
ATOM     27  C   UNL     1       4.396   5.403  17.916  0.00  0.00    +0.000 C 
ATOM     28  C   UNL     1       5.239   6.447  17.189  0.00  0.00    +0.000 C 
ENDBRANCH  26  27
BRANCH  26  29
ATOM     29  C   UNL     1       2.090   4.494  17.937  0.00  0.00    +0.000 C 
ATOM     30  C   UNL     1       1.377   4.113  19.227  0.00  0.00    +0.000 C 
ENDBRANCH  26  29
ENDBRANCH  25  26
ENDBRANCH  22  25
ENDBRANCH   5  19
BRANCH   1  32
ATOM     31  N   UNL     1      -2.537  11.136  16.267  0.00  0.00    +0.000 N 
ATOM     32  C   UNL     1      -1.944  10.779  17.458  0.00  0.00    +0.000 C 
ATOM     33  O   UNL     1      -2.133   9.681  17.979  0.00  0.00    +0.000 OA
ATOM     34  H   UNL     1      -2.418  12.092  15.941  0.00  0.00    +0.000 HD
BRANCH  31  36
ATOM     35  C   UNL     1      -2.887   9.977  14.142  0.00  0.00    +0.000 C 
ATOM     36  C   UNL     1      -3.400  10.230  15.543  0.00  0.00    +0.000 C 
ENDBRANCH  31  36
ENDBRANCH   1  32
TORSDOF 11
ENDMDL
MODEL 4
REMARK VINA RESULT:      -6.3      5.450      8.833
REMARK  Name = 
REMARK  16 active torsions:
REMARK  status: ('A' for Active; 'I' for Inactive)
REMARK    1  A    between atoms: C_1  and  C_2
REMARK    2  A    between atoms: C_2  and  N_3
REMARK    3  A    between atoms: C_4  and  C_6
REMARK    4  A    between atoms: N_9  and  C_10
REMARK    5  A    between atoms: C_12  and  C_13
REMARK    6  A    between atoms: C_13  and  C_14
REMARK    7  A    between atoms: C_13  and  C_15
REMARK    8  A    between atoms: C_16  and  O_17
REMARK    9  A    between atoms: C_19  and  O_20
REMARK   10  A    between atoms: C_21  and  C_22
REMARK   11  A    between atoms: C_25  and  C_26
REMARK   12  A    between atoms: C_26  and  N_27
REMARK   13  A    between atoms: N_27  and  C_28
REMARK   14  A    between atoms: N_27  and  C_30
REMARK   15  A    between atoms: C_28  and  C_29
REMARK   16  A    between atoms: C_30  and  C_31
REMARK                            x       y       z     vdW  Elec       q    Type
REMARK                         _______ _______ _______ _____ _____    ______ ____
ROOT
ATOM      1  C   UNL     1      -4.573  15.799  23.279  0.00  0.00    +0.000 A 
ATOM      2  N   UNL     1      -5.909  16.096  23.310  0.00  0.00    +0.000 NA
ATOM      3  N   UNL     1      -6.536  15.240  22.522  0.00  0.00    +0.000 NA
ATOM      4  N   UNL     1      -5.655  14.279  22.131  0.00  0.00    +0.000 N 
ATOM      5  C   UNL     1      -4.357  14.655  22.508  0.00  0.00    +0.000 A 
ENDROOT
BRANCH   4   6
ATOM      6  C   UNL     1      -6.138  13.136  21.435  0.00  0.00    +0.000 A 
ATOM      7  C   UNL     1      -5.532  12.785  20.209  0.00  0.00    +0.000 A 
ATOM      8  C   UNL     1      -5.913  11.629  19.490  0.00  0.00    +0.000 A 
ATOM      9  C   UNL     1      -6.945  10.848  20.039  0.00  0.00    +0.000 A 
ATOM     10  C   UNL     1      -7.568  11.199  21.238  0.00  0.00    +0.000 A 
ATOM     11  C   UNL     1      -7.186  12.351  21.917  0.00  0.00    +0.000 A 
BRANCH   8  12
ATOM     12  C   UNL     1      -5.268  11.310  18.144  0.00  0.00    +0.000 C 
ATOM     13  C   UNL     1      -5.806  12.262  17.071  0.00  0.00    +0.000 C 
ATOM     14  C   UNL     1      -3.735  11.334  18.134  0.00  0.00    +0.000 C 
ENDBRANCH   8  12
BRANCH   9  15
ATOM     15  O   UNL     1      -7.447   9.717  19.456  0.00  0.00    +0.000 OA
ATOM     16  H   UNL     1      -7.191   8.931  19.958  0.00  0.00    +0.000 HD
ENDBRANCH   9  15
BRANCH  11  17
ATOM     17  O   UNL     1      -7.916  12.742  23.002  0.00  0.00    +0.000 OA
ATOM     18  H   UNL     1      -8.762  12.259  23.002  0.00  0.00    +0.000 HD
ENDBRANCH  11  17
ENDBRANCH   4   6
BRANCH   5  19
ATOM     19  C   UNL     1      -3.104  13.956  22.180  0.00  0.00    +0.000 A 
ATOM     20  C   UNL     1      -2.339  14.276  21.049  0.00  0.00    +0.000 A 
ATOM     21  C   UNL     1      -1.282  13.453  20.648  0.00  0.00    +0.000 A 
ATOM     22  C   UNL     1      -0.894  12.366  21.439  0.00  0.00    +0.000 A 
ATOM     23  C   UNL     1      -1.565  12.130  22.644  0.00  0.00    +0.000 A 
ATOM     24  C   UNL     1      -2.675  12.891  22.983  0.00  0.00    +0.000 A 
BRANCH  22  25
ATOM     25  C   UNL     1       0.152  11.383  20.985  0.00  0.00    +0.000 C 
BRANCH  25  26
ATOM     26  N   UNL     1      -0.361  10.145  20.384  0.00  0.00    +0.000 NA
BRANCH  26  27
ATOM     27  C   UNL     1      -0.328  10.158  18.908  0.00  0.00    +0.000 C 
ATOM     28  C   UNL     1       0.997   9.791  18.246  0.00  0.00    +0.000 C 
ENDBRANCH  26  27
BRANCH  26  29
ATOM     29  C   UNL     1       0.355   9.012  20.998  0.00  0.00    +0.000 C 
ATOM     30  C   UNL     1       0.712   9.212  22.464  0.00  0.00    +0.000 C 
ENDBRANCH  26  29
ENDBRANCH  25  26
ENDBRANCH  22  25
ENDBRANCH   5  19
BRANCH   1  32
ATOM     31  N   UNL     1      -3.091  16.069  25.133  0.00  0.00    +0.000 N 
ATOM     32  C   UNL     1      -3.581  16.619  23.968  0.00  0.00    +0.000 C 
ATOM     33  O   UNL     1      -3.176  17.695  23.533  0.00  0.00    +0.000 OA
ATOM     34  H   UNL     1      -3.537  15.227  25.490  0.00  0.00    +0.000 HD
BRANCH  31  36
ATOM     35  C   UNL     1      -0.944  15.744  26.260  0.00  0.00    +0.000 C 
ATOM     36  C   UNL     1      -2.050  16.714  25.901  0.00  0.00    +0.000 C 
ENDBRANCH  31  36
ENDBRANCH   1  32
TORSDOF 11
ENDMDL
MODEL 5
REMARK VINA RESULT:      -6.3      5.017      9.126
REMARK  Name = 
REMARK  16 active torsions:
REMARK  status: ('A' for Active; 'I' for Inactive)
REMARK    1  A    between atoms: C_1  and  C_2
REMARK    2  A    between atoms: C_2  and  N_3
REMARK    3  A    between atoms: C_4  and  C_6
REMARK    4  A    between atoms: N_9  and  C_10
REMARK    5  A    between atoms: C_12  and  C_13
REMARK    6  A    between atoms: C_13  and  C_14
REMARK    7  A    between atoms: C_13  and  C_15
REMARK    8  A    between atoms: C_16  and  O_17
REMARK    9  A    between atoms: C_19  and  O_20
REMARK   10  A    between atoms: C_21  and  C_22
REMARK   11  A    between atoms: C_25  and  C_26
REMARK   12  A    between atoms: C_26  and  N_27
REMARK   13  A    between atoms: N_27  and  C_28
REMARK   14  A    between atoms: N_27  and  C_30
REMARK   15  A    between atoms: C_28  and  C_29
REMARK   16  A    between atoms: C_30  and  C_31
REMARK                            x       y       z     vdW  Elec       q    Type
REMARK                         _______ _______ _______ _____ _____    ______ ____
ROOT
ATOM      1  C   UNL     1       5.580   4.556  15.579  0.00  0.00    +0.000 A 
ATOM      2  N   UNL     1       4.455   3.777  15.529  0.00  0.00    +0.000 NA
ATOM      3  N   UNL     1       3.747   4.012  16.620  0.00  0.00    +0.000 NA
ATOM      4  N   UNL     1       4.298   5.066  17.281  0.00  0.00    +0.000 N 
ATOM      5  C   UNL     1       5.539   5.381  16.705  0.00  0.00    +0.000 A 
ENDROOT
BRANCH   4   6
ATOM      6  C   UNL     1       3.602   5.635  18.384  0.00  0.00    +0.000 A 
ATOM      7  C   UNL     1       3.113   6.954  18.267  0.00  0.00    +0.000 A 
ATOM      8  C   UNL     1       2.358   7.566  19.295  0.00  0.00    +0.000 A 
ATOM      9  C   UNL     1       2.133   6.808  20.457  0.00  0.00    +0.000 A 
ATOM     10  C   UNL     1       2.633   5.513  20.593  0.00  0.00    +0.000 A 
ATOM     11  C   UNL     1       3.387   4.940  19.574  0.00  0.00    +0.000 A 
BRANCH   8  12
ATOM     12  C   UNL     1       1.888   9.011  19.151  0.00  0.00    +0.000 C 
ATOM     13  C   UNL     1       1.656   9.337  17.672  0.00  0.00    +0.000 C 
ATOM     14  C   UNL     1       0.638   9.374  19.962  0.00  0.00    +0.000 C 
ENDBRANCH   8  12
BRANCH   9  15
ATOM     15  O   UNL     1       1.446   7.263  21.550  0.00  0.00    +0.000 OA
ATOM     16  H   UNL     1       1.487   6.619  22.271  0.00  0.00    +0.000 HD
ENDBRANCH   9  15
BRANCH  11  17
ATOM     17  O   UNL     1       3.985   3.734  19.803  0.00  0.00    +0.000 OA
ATOM     18  H   UNL     1       4.468   3.778  20.647  0.00  0.00    +0.000 HD
ENDBRANCH  11  17
ENDBRANCH   4   6
BRANCH   5  19
ATOM     19  C   UNL     1       6.508   6.379  17.185  0.00  0.00    +0.000 A 
ATOM     20  C   UNL     1       7.533   6.057  18.087  0.00  0.00    +0.000 A 
ATOM     21  C   UNL     1       8.293   7.064  18.690  0.00  0.00    +0.000 A 
ATOM     22  C   UNL     1       8.124   8.400  18.309  0.00  0.00    +0.000 A 
ATOM     23  C   UNL     1       7.202   8.707  17.302  0.00  0.00    +0.000 A 
ATOM     24  C   UNL     1       6.384   7.715  16.783  0.00  0.00    +0.000 A 
BRANCH  22  25
ATOM     25  C   UNL     1       8.829   9.526  19.018  0.00  0.00    +0.000 C 
BRANCH  25  26
ATOM     26  N   UNL     1       9.215  10.663  18.172  0.00  0.00    +0.000 NA
BRANCH  26  27
ATOM     27  C   UNL     1       8.435  11.885  18.450  0.00  0.00    +0.000 C 
ATOM     28  C   UNL     1       7.936  12.674  17.243  0.00  0.00    +0.000 C 
ENDBRANCH  26  27
BRANCH  26  29
ATOM     29  C   UNL     1      10.674  10.836  18.283  0.00  0.00    +0.000 C 
ATOM     30  C   UNL     1      11.109  11.913  19.266  0.00  0.00    +0.000 C 
ENDBRANCH  26  29
ENDBRANCH  25  26
ENDBRANCH  22  25
ENDBRANCH   5  19
BRANCH   1  32
ATOM     31  N   UNL     1       6.308   3.697  13.473  0.00  0.00    +0.000 N 
ATOM     32  C   UNL     1       6.630   4.467  14.569  0.00  0.00    +0.000 C 
ATOM     33  O   UNL     1       7.703   5.061  14.657  0.00  0.00    +0.000 OA
ATOM     34  H   UNL     1       5.448   3.153  13.505  0.00  0.00    +0.000 HD
BRANCH  31  36
ATOM     35  C   UNL     1       6.827   2.381  11.477  0.00  0.00    +0.000 C 
ATOM     36  C   UNL     1       7.204   3.561  12.346  0.00  0.00    +0.000 C 
ENDBRANCH  31  36
ENDBRANCH   1  32
TORSDOF 11
ENDMDL
MODEL 6
REMARK VINA RESULT:      -6.2      2.592      3.629
REMARK  Name = 
REMARK  16 active torsions:
REMARK  status: ('A' for Active; 'I' for Inactive)
REMARK    1  A    between atoms: C_1  and  C_2
REMARK    2  A    between atoms: C_2  and  N_3
REMARK    3  A    between atoms: C_4  and  C_6
REMARK    4  A    between atoms: N_9  and  C_10
REMARK    5  A    between atoms: C_12  and  C_13
REMARK    6  A    between atoms: C_13  and  C_14
REMARK    7  A    between atoms: C_13  and  C_15
REMARK    8  A    between atoms: C_16  and  O_17
REMARK    9  A    between atoms: C_19  and  O_20
REMARK   10  A    between atoms: C_21  and  C_22
REMARK   11  A    between atoms: C_25  and  C_26
REMARK   12  A    between atoms: C_26  and  N_27
REMARK   13  A    between atoms: N_27  and  C_28
REMARK   14  A    between atoms: N_27  and  C_30
REMARK   15  A    between atoms: C_28  and  C_29
REMARK   16  A    between atoms: C_30  and  C_31
REMARK                            x       y       z     vdW  Elec       q    Type
REMARK                         _______ _______ _______ _____ _____    ______ ____
ROOT
ATOM      1  C   UNL     1      -3.148  11.224  18.202  0.00  0.00    +0.000 A 
ATOM      2  N   UNL     1      -4.173  12.101  18.442  0.00  0.00    +0.000 NA
ATOM      3  N   UNL     1      -3.964  12.660  19.622  0.00  0.00    +0.000 NA
ATOM      4  N   UNL     1      -2.727  12.302  20.062  0.00  0.00    +0.000 N 
ATOM      5  C   UNL     1      -2.209  11.296  19.232  0.00  0.00    +0.000 A 
ENDROOT
BRANCH   4   6
ATOM      6  C   UNL     1      -2.192  12.934  21.220  0.00  0.00    +0.000 A 
ATOM      7  C   UNL     1      -0.934  13.568  21.124  0.00  0.00    +0.000 A 
ATOM      8  C   UNL     1      -0.365  14.270  22.212  0.00  0.00    +0.000 A 
ATOM      9  C   UNL     1      -1.100  14.292  23.410  0.00  0.00    +0.000 A 
ATOM     10  C   UNL     1      -2.333  13.648  23.523  0.00  0.00    +0.000 A 
ATOM     11  C   UNL     1      -2.862  12.949  22.443  0.00  0.00    +0.000 A 
BRANCH   8  12
ATOM     12  C   UNL     1       1.018  14.901  22.083  0.00  0.00    +0.000 C 
ATOM     13  C   UNL     1       1.864  14.101  21.088  0.00  0.00    +0.000 C 
ATOM     14  C   UNL     1       1.026  16.384  21.691  0.00  0.00    +0.000 C 
ENDBRANCH   8  12
BRANCH   9  15
ATOM     15  O   UNL     1      -0.679  14.904  24.559  0.00  0.00    +0.000 OA
ATOM     16  H   UNL     1       0.081  15.476  24.382  0.00  0.00    +0.000 HD
ENDBRANCH   9  15
BRANCH  11  17
ATOM     17  O   UNL     1      -3.992  12.208  22.636  0.00  0.00    +0.000 OA
ATOM     18  H   UNL     1      -4.258  12.278  23.570  0.00  0.00    +0.000 HD
ENDBRANCH  11  17
ENDBRANCH   4   6
BRANCH   5  19
ATOM     19  C   UNL     1      -0.952  10.554  19.422  0.00  0.00    +0.000 A 
ATOM     20  C   UNL     1       0.017  10.446  18.413  0.00  0.00    +0.000 A 
ATOM     21  C   UNL     1       1.088   9.558  18.546  0.00  0.00    +0.000 A 
ATOM     22  C   UNL     1       1.278   8.855  19.741  0.00  0.00    +0.000 A 
ATOM     23  C   UNL     1       0.393   9.071  20.803  0.00  0.00    +0.000 A 
ATOM     24  C   UNL     1      -0.722   9.877  20.627  0.00  0.00    +0.000 A 
BRANCH  22  25
ATOM     25  C   UNL     1       2.341   7.799  19.883  0.00  0.00    +0.000 C 
BRANCH  25  26
ATOM     26  N   UNL     1       1.970   6.459  19.408  0.00  0.00    +0.000 NA
BRANCH  26  27
ATOM     27  C   UNL     1       2.894   5.928  18.387  0.00  0.00    +0.000 C 
ATOM     28  C   UNL     1       3.795   6.937  17.681  0.00  0.00    +0.000 C 
ENDBRANCH  26  27
BRANCH  26  29
ATOM     29  C   UNL     1       1.802   5.590  20.587  0.00  0.00    +0.000 C 
ATOM     30  C   UNL     1       1.078   4.281  20.308  0.00  0.00    +0.000 C 
ENDBRANCH  26  29
ENDBRANCH  25  26
ENDBRANCH  22  25
ENDBRANCH   5  19
BRANCH   1  32
ATOM     31  N   UNL     1      -3.020  11.038  15.824  0.00  0.00    +0.000 N 
ATOM     32  C   UNL     1      -3.125  10.365  17.022  0.00  0.00    +0.000 C 
ATOM     33  O   UNL     1      -3.153   9.137  17.082  0.00  0.00    +0.000 OA
ATOM     34  H   UNL     1      -3.103  12.052  15.835  0.00  0.00    +0.000 HD
BRANCH  31  36
ATOM     35  C   UNL     1      -4.263  10.169  13.904  0.00  0.00    +0.000 C 
ATOM     36  C   UNL     1      -2.911  10.337  14.564  0.00  0.00    +0.000 C 
ENDBRANCH  31  36
ENDBRANCH   1  32
TORSDOF 11
ENDMDL
MODEL 7
REMARK VINA RESULT:      -6.2      4.352      9.454
REMARK  Name = 
REMARK  16 active torsions:
REMARK  status: ('A' for Active; 'I' for Inactive)
REMARK    1  A    between atoms: C_1  and  C_2
REMARK    2  A    between atoms: C_2  and  N_3
REMARK    3  A    between atoms: C_4  and  C_6
REMARK    4  A    between atoms: N_9  and  C_10
REMARK    5  A    between atoms: C_12  and  C_13
REMARK    6  A    between atoms: C_13  and  C_14
REMARK    7  A    between atoms: C_13  and  C_15
REMARK    8  A    between atoms: C_16  and  O_17
REMARK    9  A    between atoms: C_19  and  O_20
REMARK   10  A    between atoms: C_21  and  C_22
REMARK   11  A    between atoms: C_25  and  C_26
REMARK   12  A    between atoms: C_26  and  N_27
REMARK   13  A    between atoms: N_27  and  C_28
REMARK   14  A    between atoms: N_27  and  C_30
REMARK   15  A    between atoms: C_28  and  C_29
REMARK   16  A    between atoms: C_30  and  C_31
REMARK                            x       y       z     vdW  Elec       q    Type
REMARK                         _______ _______ _______ _____ _____    ______ ____
ROOT
ATOM      1  C   UNL     1       2.857   2.829  18.652  0.00  0.00    +0.000 A 
ATOM      2  N   UNL     1       3.369   1.650  18.178  0.00  0.00    +0.000 NA
ATOM      3  N   UNL     1       4.200   1.933  17.190  0.00  0.00    +0.000 NA
ATOM      4  N   UNL     1       4.379   3.282  17.142  0.00  0.00    +0.000 N 
ATOM      5  C   UNL     1       3.454   3.906  17.994  0.00  0.00    +0.000 A 
ENDROOT
BRANCH   4   6
ATOM      6  C   UNL     1       5.381   3.819  16.287  0.00  0.00    +0.000 A 
ATOM      7  C   UNL     1       5.208   3.709  14.890  0.00  0.00    +0.000 A 
ATOM      8  C   UNL     1       6.129   4.273  13.976  0.00  0.00    +0.000 A 
ATOM      9  C   UNL     1       7.244   4.933  14.520  0.00  0.00    +0.000 A 
ATOM     10  C   UNL     1       7.437   5.027  15.899  0.00  0.00    +0.000 A 
ATOM     11  C   UNL     1       6.526   4.448  16.777  0.00  0.00    +0.000 A 
BRANCH   8  12
ATOM     12  C   UNL     1       5.933   4.091  12.473  0.00  0.00    +0.000 C 
ATOM     13  C   UNL     1       7.046   3.204  11.907  0.00  0.00    +0.000 C 
ATOM     14  C   UNL     1       4.566   3.532  12.057  0.00  0.00    +0.000 C 
ENDBRANCH   8  12
BRANCH   9  15
ATOM     15  O   UNL     1       8.237   5.508  13.773  0.00  0.00    +0.000 OA
ATOM     16  H   UNL     1       8.938   4.868  13.588  0.00  0.00    +0.000 HD
ENDBRANCH   9  15
BRANCH  11  17
ATOM     17  O   UNL     1       6.825   4.429  18.108  0.00  0.00    +0.000 OA
ATOM     18  H   UNL     1       6.423   5.207  18.532  0.00  0.00    +0.000 HD
ENDBRANCH  11  17
ENDBRANCH   4   6
BRANCH   5  19
ATOM     19  C   UNL     1       3.235   5.353  18.151  0.00  0.00    +0.000 A 
ATOM     20  C   UNL     1       2.565   5.895  19.258  0.00  0.00    +0.000 A 
ATOM     21  C   UNL     1       2.180   7.239  19.269  0.00  0.00    +0.000 A 
ATOM     22  C   UNL     1       2.567   8.093  18.229  0.00  0.00    +0.000 A 
ATOM     23  C   UNL     1       3.361   7.586  17.195  0.00  0.00    +0.000 A 
ATOM     24  C   UNL     1       3.652   6.230  17.141  0.00  0.00    +0.000 A 
BRANCH  22  25
ATOM     25  C   UNL     1       2.072   9.512  18.138  0.00  0.00    +0.000 C 
BRANCH  25  26
ATOM     26  N   UNL     1       0.822   9.793  18.857  0.00  0.00    +0.000 NA
BRANCH  26  27
ATOM     27  C   UNL     1       0.943  10.907  19.818  0.00  0.00    +0.000 C 
ATOM     28  C   UNL     1       0.782  10.562  21.296  0.00  0.00    +0.000 C 
ENDBRANCH  26  27
BRANCH  26  29
ATOM     29  C   UNL     1      -0.247   9.967  17.857  0.00  0.00    +0.000 C 
ATOM     30  C   UNL     1      -1.582  10.417  18.432  0.00  0.00    +0.000 C 
ENDBRANCH  26  29
ENDBRANCH  25  26
ENDBRANCH  22  25
ENDBRANCH   5  19
BRANCH   1  32
ATOM     31  N   UNL     1       2.311   2.953  20.973  0.00  0.00    +0.000 N 
ATOM     32  C   UNL     1       1.828   2.866  19.686  0.00  0.00    +0.000 C 
ATOM     33  O   UNL     1       0.623   2.864  19.439  0.00  0.00    +0.000 OA
ATOM     34  H   UNL     1       3.313   2.850  21.117  0.00  0.00    +0.000 HD
BRANCH  31  36
ATOM     35  C   UNL     1       1.065   1.716  22.677  0.00  0.00    +0.000 C 
ATOM     36  C   UNL     1       1.428   3.073  22.112  0.00  0.00    +0.000 C 
ENDBRANCH  31  36
ENDBRANCH   1  32
TORSDOF 11
ENDMDL
MODEL 8
REMARK VINA RESULT:      -6.1      2.403      6.391
REMARK  Name = 
REMARK  16 active torsions:
REMARK  status: ('A' for Active; 'I' for Inactive)
REMARK    1  A    between atoms: C_1  and  C_2
REMARK    2  A    between atoms: C_2  and  N_3
REMARK    3  A    between atoms: C_4  and  C_6
REMARK    4  A    between atoms: N_9  and  C_10
REMARK    5  A    between atoms: C_12  and  C_13
REMARK    6  A    between atoms: C_13  and  C_14
REMARK    7  A    between atoms: C_13  and  C_15
REMARK    8  A    between atoms: C_16  and  O_17
REMARK    9  A    between atoms: C_19  and  O_20
REMARK   10  A    between atoms: C_21  and  C_22
REMARK   11  A    between atoms: C_25  and  C_26
REMARK   12  A    between atoms: C_26  and  N_27
REMARK   13  A    between atoms: N_27  and  C_28
REMARK   14  A    between atoms: N_27  and  C_30
REMARK   15  A    between atoms: C_28  and  C_29
REMARK   16  A    between atoms: C_30  and  C_31
REMARK                            x       y       z     vdW  Elec       q    Type
REMARK                         _______ _______ _______ _____ _____    ______ ____
ROOT
ATOM      1  C   UNL     1       1.082  13.589  19.515  0.00  0.00    +0.000 A 
ATOM      2  N   UNL     1       0.340  14.711  19.258  0.00  0.00    +0.000 NA
ATOM      3  N   UNL     1      -0.854  14.325  18.843  0.00  0.00    +0.000 NA
ATOM      4  N   UNL     1      -0.960  12.978  19.007  0.00  0.00    +0.000 N 
ATOM      5  C   UNL     1       0.297  12.448  19.337  0.00  0.00    +0.000 A 
ENDROOT
BRANCH   4   6
ATOM      6  C   UNL     1      -2.223  12.351  18.814  0.00  0.00    +0.000 A 
ATOM      7  C   UNL     1      -3.229  12.546  19.785  0.00  0.00    +0.000 A 
ATOM      8  C   UNL     1      -4.529  12.009  19.634  0.00  0.00    +0.000 A 
ATOM      9  C   UNL     1      -4.773  11.247  18.478  0.00  0.00    +0.000 A 
ATOM     10  C   UNL     1      -3.778  11.029  17.524  0.00  0.00    +0.000 A 
ATOM     11  C   UNL     1      -2.502  11.554  17.705  0.00  0.00    +0.000 A 
BRANCH   8  12
ATOM     12  C   UNL     1      -5.574  12.200  20.729  0.00  0.00    +0.000 C 
ATOM     13  C   UNL     1      -4.904  12.727  22.002  0.00  0.00    +0.000 C 
ATOM     14  C   UNL     1      -6.753  13.106  20.354  0.00  0.00    +0.000 C 
ENDBRANCH   8  12
BRANCH   9  15
ATOM     15  O   UNL     1      -5.965  10.639  18.196  0.00  0.00    +0.000 OA
ATOM     16  H   UNL     1      -5.819   9.778  17.779  0.00  0.00    +0.000 HD
ENDBRANCH   9  15
BRANCH  11  17
ATOM     17  O   UNL     1      -1.519  11.194  16.830  0.00  0.00    +0.000 OA
ATOM     18  H   UNL     1      -1.343  11.941  16.230  0.00  0.00    +0.000 HD
ENDBRANCH  11  17
ENDBRANCH   4   6
BRANCH   5  19
ATOM     19  C   UNL     1       0.645  11.026  19.490  0.00  0.00    +0.000 A 
ATOM     20  C   UNL     1       0.370  10.307  20.662  0.00  0.00    +0.000 A 
ATOM     21  C   UNL     1       0.907   9.030  20.857  0.00  0.00    +0.000 A 
ATOM     22  C   UNL     1       1.624   8.402  19.833  0.00  0.00    +0.000 A 
ATOM     23  C   UNL     1       1.775   9.061  18.607  0.00  0.00    +0.000 A 
ATOM     24  C   UNL     1       1.326  10.365  18.459  0.00  0.00    +0.000 A 
BRANCH  22  25
ATOM     25  C   UNL     1       2.324   7.086  20.042  0.00  0.00    +0.000 C 
BRANCH  25  26
ATOM     26  N   UNL     1       1.652   5.914  19.463  0.00  0.00    +0.000 NA
BRANCH  26  27
ATOM     27  C   UNL     1       2.248   5.476  18.186  0.00  0.00    +0.000 C 
ATOM     28  C   UNL     1       3.706   5.851  17.941  0.00  0.00    +0.000 C 
ENDBRANCH  26  27
BRANCH  26  29
ATOM     29  C   UNL     1       1.597   4.866  20.499  0.00  0.00    +0.000 C 
ATOM     30  C   UNL     1       0.904   3.583  20.061  0.00  0.00    +0.000 C 
ENDBRANCH  26  29
ENDBRANCH  25  26
ENDBRANCH  22  25
ENDBRANCH   5  19
BRANCH   1  32
ATOM     31  N   UNL     1       3.314  14.228  18.953  0.00  0.00    +0.000 N 
ATOM     32  C   UNL     1       2.488  13.662  19.899  0.00  0.00    +0.000 C 
ATOM     33  O   UNL     1       2.908  13.291  20.994  0.00  0.00    +0.000 OA
ATOM     34  H   UNL     1       2.925  14.423  18.033  0.00  0.00    +0.000 HD
BRANCH  31  36
ATOM     35  C   UNL     1       5.442  14.894  17.947  0.00  0.00    +0.000 C 
ATOM     36  C   UNL     1       4.722  14.444  19.200  0.00  0.00    +0.000 C 
ENDBRANCH  31  36
ENDBRANCH   1  32
TORSDOF 11
ENDMDL
MODEL 9
REMARK VINA RESULT:      -6.1      0.986      1.605
REMARK  Name = 
REMARK  16 active torsions:
REMARK  status: ('A' for Active; 'I' for Inactive)
REMARK    1  A    between atoms: C_1  and  C_2
REMARK    2  A    between atoms: C_2  and  N_3
REMARK    3  A    between atoms: C_4  and  C_6
REMARK    4  A    between atoms: N_9  and  C_10
REMARK    5  A    between atoms: C_12  and  C_13
REMARK    6  A    between atoms: C_13  and  C_14
REMARK    7  A    between atoms: C_13  and  C_15
REMARK    8  A    between atoms: C_16  and  O_17
REMARK    9  A    between atoms: C_19  and  O_20
REMARK   10  A    between atoms: C_21  and  C_22
REMARK   11  A    between atoms: C_25  and  C_26
REMARK   12  A    between atoms: C_26  and  N_27
REMARK   13  A    between atoms: N_27  and  C_28
REMARK   14  A    between atoms: N_27  and  C_30
REMARK   15  A    between atoms: C_28  and  C_29
REMARK   16  A    between atoms: C_30  and  C_31
REMARK                            x       y       z     vdW  Elec       q    Type
REMARK                         _______ _______ _______ _____ _____    ______ ____
ROOT
ATOM      1  C   UNL     1      -1.491  11.433  18.038  0.00  0.00    +0.000 A 
ATOM      2  N   UNL     1      -1.843  12.753  18.127  0.00  0.00    +0.000 NA
ATOM      3  N   UNL     1      -0.915  13.376  18.833  0.00  0.00    +0.000 NA
ATOM      4  N   UNL     1       0.124  12.522  19.041  0.00  0.00    +0.000 N 
ATOM      5  C   UNL     1      -0.247  11.230  18.639  0.00  0.00    +0.000 A 
ENDROOT
BRANCH   4   6
ATOM      6  C   UNL     1       1.330  13.020  19.609  0.00  0.00    +0.000 A 
ATOM      7  C   UNL     1       2.196  13.783  18.796  0.00  0.00    +0.000 A 
ATOM      8  C   UNL     1       3.380  14.365  19.304  0.00  0.00    +0.000 A 
ATOM      9  C   UNL     1       3.674  14.131  20.659  0.00  0.00    +0.000 A 
ATOM     10  C   UNL     1       2.838  13.358  21.465  0.00  0.00    +0.000 A 
ATOM     11  C   UNL     1       1.687  12.783  20.936  0.00  0.00    +0.000 A 
BRANCH   8  12
ATOM     12  C   UNL     1       4.315  15.142  18.382  0.00  0.00    +0.000 C 
ATOM     13  C   UNL     1       5.433  14.223  17.880  0.00  0.00    +0.000 C 
ATOM     14  C   UNL     1       3.635  15.826  17.189  0.00  0.00    +0.000 C 
ENDBRANCH   8  12
BRANCH   9  15
ATOM     15  O   UNL     1       4.792  14.600  21.295  0.00  0.00    +0.000 OA
ATOM     16  H   UNL     1       4.867  14.216  22.180  0.00  0.00    +0.000 HD
ENDBRANCH   9  15
BRANCH  11  17
ATOM     17  O   UNL     1       0.977  11.913  21.711  0.00  0.00    +0.000 OA
ATOM     18  H   UNL     1       0.085  11.812  21.335  0.00  0.00    +0.000 HD
ENDBRANCH  11  17
ENDBRANCH   4   6
BRANCH   5  19
ATOM     19  C   UNL     1       0.539   9.996  18.796  0.00  0.00    +0.000 A 
ATOM     20  C   UNL     1       0.660   9.333  20.026  0.00  0.00    +0.000 A 
ATOM     21  C   UNL     1       1.585   8.298  20.190  0.00  0.00    +0.000 A 
ATOM     22  C   UNL     1       2.318   7.826  19.095  0.00  0.00    +0.000 A 
ATOM     23  C   UNL     1       2.093   8.389  17.835  0.00  0.00    +0.000 A 
ATOM     24  C   UNL     1       1.248   9.481  17.702  0.00  0.00    +0.000 A 
BRANCH  22  25
ATOM     25  C   UNL     1       3.411   6.803  19.250  0.00  0.00    +0.000 C 
BRANCH  25  26
ATOM     26  N   UNL     1       3.537   5.840  18.147  0.00  0.00    +0.000 NA
BRANCH  26  27
ATOM     27  C   UNL     1       4.912   5.739  17.619  0.00  0.00    +0.000 C 
ATOM     28  C   UNL     1       5.891   4.873  18.406  0.00  0.00    +0.000 C 
ENDBRANCH  26  27
BRANCH  26  29
ATOM     29  C   UNL     1       2.963   4.559  18.596  0.00  0.00    +0.000 C 
ATOM     30  C   UNL     1       1.779   4.074  17.771  0.00  0.00    +0.000 C 
ENDBRANCH  26  29
ENDBRANCH  25  26
ENDBRANCH  22  25
ENDBRANCH   5  19
BRANCH   1  32
ATOM     31  N   UNL     1      -2.458  10.563  16.035  0.00  0.00    +0.000 N 
ATOM     32  C   UNL     1      -2.355  10.442  17.404  0.00  0.00    +0.000 C 
ATOM     33  O   UNL     1      -2.917   9.542  18.024  0.00  0.00    +0.000 OA
ATOM     34  H   UNL     1      -2.051  11.385  15.594  0.00  0.00    +0.000 HD
BRANCH  31  36
ATOM     35  C   UNL     1      -3.137   9.951  13.766  0.00  0.00    +0.000 C 
ATOM     36  C   UNL     1      -3.214   9.620  15.241  0.00  0.00    +0.000 C 
ENDBRANCH  31  36
ENDBRANCH   1  32
TORSDOF 11
ENDMDL
