MODEL 1
REMARK VINA RESULT:      -8.4      0.000      0.000
REMARK  Name = 
REMARK  6 active torsions:
REMARK  status: ('A' for Active; 'I' for Inactive)
REMARK    1  A    between atoms: C_1  and  C_2
REMARK    2  A    between atoms: C_5  and  N_6
REMARK    3  A    between atoms: C_7  and  C_9
REMARK    4  A    between atoms: C_15  and  N_16
REMARK    5  A    between atoms: C_22  and  N_23
REMARK    6  A    between atoms: N_26  and  C_27
REMARK                            x       y       z     vdW  Elec       q    Type
REMARK                         _______ _______ _______ _____ _____    ______ ____
ROOT
ATOM      1  N   UNL     1       1.030   9.776  19.350  0.00  0.00    +0.000 N 
ATOM      2  C   UNL     1       0.686   9.150  20.527  0.00  0.00    +0.000 A 
ATOM      3  N   UNL     1       1.095   7.983  20.898  0.00  0.00    +0.000 NA
ATOM      4  C   UNL     1       1.954   7.299  20.028  0.00  0.00    +0.000 A 
ATOM      5  C   UNL     1       2.376   6.016  20.359  0.00  0.00    +0.000 A 
ATOM      6  C   UNL     1       3.239   5.311  19.508  0.00  0.00    +0.000 A 
ATOM      7  C   UNL     1       3.724   5.869  18.316  0.00  0.00    +0.000 A 
ATOM      8  C   UNL     1       3.280   7.155  17.994  0.00  0.00    +0.000 A 
ATOM      9  C   UNL     1       2.398   7.847  18.830  0.00  0.00    +0.000 A 
ATOM     10  C   UNL     1       1.904   9.179  18.446  0.00  0.00    +0.000 A 
ATOM     11  O   UNL     1       2.285   9.678  17.388  0.00  0.00    +0.000 OA
ENDROOT
BRANCH   1  18
ATOM     12  C   UNL     1      -1.655   9.942  18.104  0.00  0.00    +0.000 C 
ATOM     13  C   UNL     1      -0.791  11.141  18.396  0.00  0.00    +0.000 A 
ATOM     14  C   UNL     1      -1.294  12.415  18.118  0.00  0.00    +0.000 A 
ATOM     15  C   UNL     1      -0.579  13.562  18.474  0.00  0.00    +0.000 A 
ATOM     16  C   UNL     1       0.651  13.475  19.126  0.00  0.00    +0.000 A 
ATOM     17  C   UNL     1       1.173  12.204  19.387  0.00  0.00    +0.000 A 
ATOM     18  C   UNL     1       0.463  11.039  19.026  0.00  0.00    +0.000 A 
BRANCH  16  19
ATOM     19  N   UNL     1       1.399  14.609  19.527  0.00  0.00    +0.000 N 
ATOM     20  C   UNL     1       2.520  15.105  18.882  0.00  0.00    +0.000 C 
ATOM     21  O   UNL     1       2.975  14.670  17.829  0.00  0.00    +0.000 OA
ATOM     22  H   UNL     1       1.026  15.150  20.296  0.00  0.00    +0.000 HD
BRANCH  20  23
ATOM     23  C   UNL     1       3.164  16.246  19.522  0.00  0.00    +0.000 A 
ATOM     24  C   UNL     1       2.834  17.042  20.658  0.00  0.00    +0.000 A 
ATOM     25  C   UNL     1       3.843  17.972  20.791  0.00  0.00    +0.000 A 
ATOM     26  O   UNL     1       4.764  17.816  19.810  0.00  0.00    +0.000 OA
ATOM     27  C   UNL     1       4.352  16.773  19.052  0.00  0.00    +0.000 A 
ENDBRANCH  20  23
ENDBRANCH  16  19
ENDBRANCH   1  18
BRANCH   7  28
ATOM     28  N   UNL     1       4.641   5.228  17.514  0.00  0.00    +0.000 N 
ATOM     29  C   UNL     1       6.089   5.373  17.711  0.00  0.00    +0.000 C 
ATOM     30  C   UNL     1       6.788   5.447  16.333  0.00  0.00    +0.000 C 
ATOM     31  N   UNL     1       6.474   4.288  15.467  0.00  0.00    +0.000 NA
ATOM     32  C   UNL     1       7.132   4.423  14.172  0.00  0.00    +0.000 C 
ATOM     33  C   UNL     1       5.004   4.197  15.298  0.00  0.00    +0.000 C 
ATOM     34  C   UNL     1       4.260   4.097  16.649  0.00  0.00    +0.000 C 
ENDBRANCH   7  28
TORSDOF 4
ENDMDL
MODEL 2
REMARK VINA RESULT:      -8.0      1.005      1.077
REMARK  Name = 
REMARK  6 active torsions:
REMARK  status: ('A' for Active; 'I' for Inactive)
REMARK    1  A    between atoms: C_1  and  C_2
REMARK    2  A    between atoms: C_5  and  N_6
REMARK    3  A    between atoms: C_7  and  C_9
REMARK    4  A    between atoms: C_15  and  N_16
REMARK    5  A    between atoms: C_22  and  N_23
REMARK    6  A    between atoms: N_26  and  C_27
REMARK                            x       y       z     vdW  Elec       q    Type
REMARK                         _______ _______ _______ _____ _____    ______ ____
ROOT
ATOM      1  N   UNL     1       0.961   9.777  19.392  0.00  0.00    +0.000 N 
ATOM      2  C   UNL     1       0.625   9.150  20.571  0.00  0.00    +0.000 A 
ATOM      3  N   UNL     1       1.048   7.990  20.947  0.00  0.00    +0.000 NA
ATOM      4  C   UNL     1       1.915   7.313  20.079  0.00  0.00    +0.000 A 
ATOM      5  C   UNL     1       2.353   6.037  20.413  0.00  0.00    +0.000 A 
ATOM      6  C   UNL     1       3.224   5.339  19.565  0.00  0.00    +0.000 A 
ATOM      7  C   UNL     1       3.702   5.900  18.371  0.00  0.00    +0.000 A 
ATOM      8  C   UNL     1       3.243   7.179  18.045  0.00  0.00    +0.000 A 
ATOM      9  C   UNL     1       2.352   7.863  18.879  0.00  0.00    +0.000 A 
ATOM     10  C   UNL     1       1.842   9.188  18.490  0.00  0.00    +0.000 A 
ATOM     11  O   UNL     1       2.217   9.687  17.431  0.00  0.00    +0.000 OA
ENDROOT
BRANCH   1  18
ATOM     12  C   UNL     1      -1.745   9.909  18.189  0.00  0.00    +0.000 C 
ATOM     13  C   UNL     1      -0.885  11.117  18.454  0.00  0.00    +0.000 A 
ATOM     14  C   UNL     1      -1.403  12.384  18.170  0.00  0.00    +0.000 A 
ATOM     15  C   UNL     1      -0.692  13.540  18.502  0.00  0.00    +0.000 A 
ATOM     16  C   UNL     1       0.549  13.470  19.135  0.00  0.00    +0.000 A 
ATOM     17  C   UNL     1       1.085  12.206  19.401  0.00  0.00    +0.000 A 
ATOM     18  C   UNL     1       0.380  11.032  19.065  0.00  0.00    +0.000 A 
BRANCH  16  19
ATOM     19  N   UNL     1       1.295  14.615  19.512  0.00  0.00    +0.000 N 
ATOM     20  C   UNL     1       1.208  15.268  20.731  0.00  0.00    +0.000 C 
ATOM     21  O   UNL     1       0.523  14.899  21.679  0.00  0.00    +0.000 OA
ATOM     22  H   UNL     1       2.013  14.920  18.869  0.00  0.00    +0.000 HD
BRANCH  20  23
ATOM     23  C   UNL     1       2.027  16.467  20.863  0.00  0.00    +0.000 A 
ATOM     24  C   UNL     1       2.442  17.249  21.980  0.00  0.00    +0.000 A 
ATOM     25  C   UNL     1       3.231  18.262  21.479  0.00  0.00    +0.000 A 
ATOM     26  O   UNL     1       3.322  18.170  20.131  0.00  0.00    +0.000 OA
ATOM     27  C   UNL     1       2.598  17.085  19.766  0.00  0.00    +0.000 A 
ENDBRANCH  20  23
ENDBRANCH  16  19
ENDBRANCH   1  18
BRANCH   7  28
ATOM     28  N   UNL     1       4.626   5.267  17.571  0.00  0.00    +0.000 N 
ATOM     29  C   UNL     1       6.072   5.455  17.747  0.00  0.00    +0.000 C 
ATOM     30  C   UNL     1       6.753   5.519  16.359  0.00  0.00    +0.000 C 
ATOM     31  N   UNL     1       6.460   4.334  15.521  0.00  0.00    +0.000 NA
ATOM     32  C   UNL     1       7.099   4.460  14.215  0.00  0.00    +0.000 C 
ATOM     33  C   UNL     1       4.991   4.200  15.372  0.00  0.00    +0.000 C 
ATOM     34  C   UNL     1       4.266   4.108  16.734  0.00  0.00    +0.000 C 
ENDBRANCH   7  28
TORSDOF 4
ENDMDL
MODEL 3
REMARK VINA RESULT:      -7.9      4.786      6.698
REMARK  Name = 
REMARK  6 active torsions:
REMARK  status: ('A' for Active; 'I' for Inactive)
REMARK    1  A    between atoms: C_1  and  C_2
REMARK    2  A    between atoms: C_5  and  N_6
REMARK    3  A    between atoms: C_7  and  C_9
REMARK    4  A    between atoms: C_15  and  N_16
REMARK    5  A    between atoms: C_22  and  N_23
REMARK    6  A    between atoms: N_26  and  C_27
REMARK                            x       y       z     vdW  Elec       q    Type
REMARK                         _______ _______ _______ _____ _____    ______ ____
ROOT
ATOM      1  N   UNL     1       0.061  12.089  20.532  0.00  0.00    +0.000 N 
ATOM      2  C   UNL     1       0.160  12.382  19.189  0.00  0.00    +0.000 A 
ATOM      3  N   UNL     1       0.614  11.582  18.284  0.00  0.00    +0.000 NA
ATOM      4  C   UNL     1       1.046  10.317  18.704  0.00  0.00    +0.000 A 
ATOM      5  C   UNL     1       1.595   9.442  17.774  0.00  0.00    +0.000 A 
ATOM      6  C   UNL     1       2.030   8.168  18.167  0.00  0.00    +0.000 A 
ATOM      7  C   UNL     1       1.912   7.721  19.491  0.00  0.00    +0.000 A 
ATOM      8  C   UNL     1       1.368   8.618  20.415  0.00  0.00    +0.000 A 
ATOM      9  C   UNL     1       0.959   9.898  20.027  0.00  0.00    +0.000 A 
ATOM     10  C   UNL     1       0.437  10.844  21.027  0.00  0.00    +0.000 A 
ATOM     11  O   UNL     1       0.356  10.490  22.202  0.00  0.00    +0.000 OA
ENDROOT
BRANCH   1  18
ATOM     12  C   UNL     1       1.897  14.200  21.512  0.00  0.00    +0.000 C 
ATOM     13  C   UNL     1       0.463  14.065  21.953  0.00  0.00    +0.000 A 
ATOM     14  C   UNL     1      -0.060  15.016  22.834  0.00  0.00    +0.000 A 
ATOM     15  C   UNL     1      -1.413  15.001  23.184  0.00  0.00    +0.000 A 
ATOM     16  C   UNL     1      -2.287  14.047  22.660  0.00  0.00    +0.000 A 
ATOM     17  C   UNL     1      -1.766  13.079  21.797  0.00  0.00    +0.000 A 
ATOM     18  C   UNL     1      -0.401  13.079  21.441  0.00  0.00    +0.000 A 
BRANCH  16  19
ATOM     19  N   UNL     1      -3.669  14.008  22.968  0.00  0.00    +0.000 N 
ATOM     20  C   UNL     1      -4.326  12.961  23.594  0.00  0.00    +0.000 C 
ATOM     21  O   UNL     1      -3.783  11.953  24.034  0.00  0.00    +0.000 OA
ATOM     22  H   UNL     1      -4.196  14.853  22.795  0.00  0.00    +0.000 HD
BRANCH  20  23
ATOM     23  C   UNL     1      -5.768  13.121  23.742  0.00  0.00    +0.000 A 
ATOM     24  C   UNL     1      -6.638  14.248  23.674  0.00  0.00    +0.000 A 
ATOM     25  C   UNL     1      -7.915  13.770  23.876  0.00  0.00    +0.000 A 
ATOM     26  O   UNL     1      -7.895  12.431  24.078  0.00  0.00    +0.000 OA
ATOM     27  C   UNL     1      -6.600  12.045  23.991  0.00  0.00    +0.000 A 
ENDBRANCH  20  23
ENDBRANCH  16  19
ENDBRANCH   1  18
BRANCH   7  28
ATOM     28  N   UNL     1       2.251   6.444  19.877  0.00  0.00    +0.000 N 
ATOM     29  C   UNL     1       3.580   5.876  19.616  0.00  0.00    +0.000 C 
ATOM     30  C   UNL     1       3.432   4.387  19.222  0.00  0.00    +0.000 C 
ATOM     31  N   UNL     1       2.696   3.597  20.235  0.00  0.00    +0.000 NA
ATOM     32  C   UNL     1       2.558   2.210  19.801  0.00  0.00    +0.000 C 
ATOM     33  C   UNL     1       1.363   4.210  20.450  0.00  0.00    +0.000 C 
ATOM     34  C   UNL     1       1.460   5.695  20.869  0.00  0.00    +0.000 C 
ENDBRANCH   7  28
TORSDOF 4
ENDMDL
MODEL 4
REMARK VINA RESULT:      -7.7      2.838      5.187
REMARK  Name = 
REMARK  6 active torsions:
REMARK  status: ('A' for Active; 'I' for Inactive)
REMARK    1  A    between atoms: C_1  and  C_2
REMARK    2  A    between atoms: C_5  and  N_6
REMARK    3  A    between atoms: C_7  and  C_9
REMARK    4  A    between atoms: C_15  and  N_16
REMARK    5  A    between atoms: C_22  and  N_23
REMARK    6  A    between atoms: N_26  and  C_27
REMARK                            x       y       z     vdW  Elec       q    Type
REMARK                         _______ _______ _______ _____ _____    ______ ____
ROOT
ATOM      1  N   UNL     1       1.102   9.663  19.331  0.00  0.00    +0.000 N 
ATOM      2  C   UNL     1       0.877   9.063  20.549  0.00  0.00    +0.000 A 
ATOM      3  N   UNL     1       1.357   7.924  20.919  0.00  0.00    +0.000 NA
ATOM      4  C   UNL     1       2.168   7.242  20.002  0.00  0.00    +0.000 A 
ATOM      5  C   UNL     1       2.662   5.985  20.334  0.00  0.00    +0.000 A 
ATOM      6  C   UNL     1       3.480   5.284  19.437  0.00  0.00    +0.000 A 
ATOM      7  C   UNL     1       3.847   5.821  18.194  0.00  0.00    +0.000 A 
ATOM      8  C   UNL     1       3.332   7.081  17.873  0.00  0.00    +0.000 A 
ATOM      9  C   UNL     1       2.495   7.768  18.757  0.00  0.00    +0.000 A 
ATOM     10  C   UNL     1       1.923   9.069  18.376  0.00  0.00    +0.000 A 
ATOM     11  O   UNL     1       2.200   9.547  17.278  0.00  0.00    +0.000 OA
ENDROOT
BRANCH   1  18
ATOM     12  C   UNL     1       2.712  12.036  18.581  0.00  0.00    +0.000 C 
ATOM     13  C   UNL     1       1.211  12.046  18.701  0.00  0.00    +0.000 A 
ATOM     14  C   UNL     1       0.521  13.222  18.392  0.00  0.00    +0.000 A 
ATOM     15  C   UNL     1      -0.877  13.250  18.379  0.00  0.00    +0.000 A 
ATOM     16  C   UNL     1      -1.627  12.109  18.662  0.00  0.00    +0.000 A 
ATOM     17  C   UNL     1      -0.945  10.935  18.995  0.00  0.00    +0.000 A 
ATOM     18  C   UNL     1       0.466  10.895  19.019  0.00  0.00    +0.000 A 
BRANCH  16  19
ATOM     19  N   UNL     1      -3.044  12.084  18.637  0.00  0.00    +0.000 N 
ATOM     20  C   UNL     1      -3.824  11.704  17.557  0.00  0.00    +0.000 C 
ATOM     21  O   UNL     1      -3.391  11.267  16.496  0.00  0.00    +0.000 OA
ATOM     22  H   UNL     1      -3.516  12.273  19.510  0.00  0.00    +0.000 HD
BRANCH  20  23
ATOM     23  C   UNL     1      -5.264  11.828  17.746  0.00  0.00    +0.000 A 
ATOM     24  C   UNL     1      -6.216  12.823  17.379  0.00  0.00    +0.000 A 
ATOM     25  C   UNL     1      -7.444  12.372  17.815  0.00  0.00    +0.000 A 
ATOM     26  O   UNL     1      -7.316  11.176  18.437  0.00  0.00    +0.000 OA
ATOM     27  C   UNL     1      -6.003  10.851  18.389  0.00  0.00    +0.000 A 
ENDBRANCH  20  23
ENDBRANCH  16  19
ENDBRANCH   1  18
BRANCH   7  28
ATOM     28  N   UNL     1       4.720   5.187  17.338  0.00  0.00    +0.000 N 
ATOM     29  C   UNL     1       6.177   5.277  17.500  0.00  0.00    +0.000 C 
ATOM     30  C   UNL     1       6.840   5.390  16.107  0.00  0.00    +0.000 C 
ATOM     31  N   UNL     1       6.464   4.280  15.201  0.00  0.00    +0.000 NA
ATOM     32  C   UNL     1       7.090   4.451  13.894  0.00  0.00    +0.000 C 
ATOM     33  C   UNL     1       4.987   4.244  15.070  0.00  0.00    +0.000 C 
ATOM     34  C   UNL     1       4.278   4.108  16.437  0.00  0.00    +0.000 C 
ENDBRANCH   7  28
TORSDOF 4
ENDMDL
MODEL 5
REMARK VINA RESULT:      -7.7      3.396      5.384
REMARK  Name = 
REMARK  6 active torsions:
REMARK  status: ('A' for Active; 'I' for Inactive)
REMARK    1  A    between atoms: C_1  and  C_2
REMARK    2  A    between atoms: C_5  and  N_6
REMARK    3  A    between atoms: C_7  and  C_9
REMARK    4  A    between atoms: C_15  and  N_16
REMARK    5  A    between atoms: C_22  and  N_23
REMARK    6  A    between atoms: N_26  and  C_27
REMARK                            x       y       z     vdW  Elec       q    Type
REMARK                         _______ _______ _______ _____ _____    ______ ____
ROOT
ATOM      1  N   UNL     1       0.511  10.270  20.416  0.00  0.00    +0.000 N 
ATOM      2  C   UNL     1       0.345   9.520  21.559  0.00  0.00    +0.000 A 
ATOM      3  N   UNL     1       0.789   8.321  21.734  0.00  0.00    +0.000 NA
ATOM      4  C   UNL     1       1.492   7.736  20.672  0.00  0.00    +0.000 A 
ATOM      5  C   UNL     1       1.941   6.426  20.793  0.00  0.00    +0.000 A 
ATOM      6  C   UNL     1       2.651   5.819  19.748  0.00  0.00    +0.000 A 
ATOM      7  C   UNL     1       2.954   6.504  18.561  0.00  0.00    +0.000 A 
ATOM      8  C   UNL     1       2.484   7.817  18.453  0.00  0.00    +0.000 A 
ATOM      9  C   UNL     1       1.753   8.412  19.486  0.00  0.00    +0.000 A 
ATOM     10  C   UNL     1       1.225   9.777  19.328  0.00  0.00    +0.000 A 
ATOM     11  O   UNL     1       1.445  10.388  18.284  0.00  0.00    +0.000 OA
ENDROOT
BRANCH   1  18
ATOM     12  C   UNL     1       2.144  12.704  20.860  0.00  0.00    +0.000 C 
ATOM     13  C   UNL     1       0.665  12.728  20.571  0.00  0.00    +0.000 A 
ATOM     14  C   UNL     1       0.025  13.964  20.449  0.00  0.00    +0.000 A 
ATOM     15  C   UNL     1      -1.318  14.041  20.071  0.00  0.00    +0.000 A 
ATOM     16  C   UNL     1      -2.060  12.893  19.792  0.00  0.00    +0.000 A 
ATOM     17  C   UNL     1      -1.433  11.651  19.935  0.00  0.00    +0.000 A 
ATOM     18  C   UNL     1      -0.079  11.560  20.323  0.00  0.00    +0.000 A 
BRANCH  16  19
ATOM     19  N   UNL     1      -3.416  12.924  19.383  0.00  0.00    +0.000 N 
ATOM     20  C   UNL     1      -4.513  12.765  20.214  0.00  0.00    +0.000 C 
ATOM     21  O   UNL     1      -4.460  12.648  21.434  0.00  0.00    +0.000 OA
ATOM     22  H   UNL     1      -3.592  13.174  18.419  0.00  0.00    +0.000 HD
BRANCH  20  23
ATOM     23  C   UNL     1      -5.811  12.766  19.551  0.00  0.00    +0.000 A 
ATOM     24  C   UNL     1      -6.857  13.730  19.453  0.00  0.00    +0.000 A 
ATOM     25  C   UNL     1      -7.839  13.165  18.667  0.00  0.00    +0.000 A 
ATOM     26  O   UNL     1      -7.480  11.916  18.285  0.00  0.00    +0.000 OA
ATOM     27  C   UNL     1      -6.257  11.683  18.816  0.00  0.00    +0.000 A 
ENDBRANCH  20  23
ENDBRANCH  16  19
ENDBRANCH   1  18
BRANCH   7  28
ATOM     28  N   UNL     1       3.724   5.955  17.562  0.00  0.00    +0.000 N 
ATOM     29  C   UNL     1       3.598   4.548  17.160  0.00  0.00    +0.000 C 
ATOM     30  C   UNL     1       5.003   3.973  16.860  0.00  0.00    +0.000 C 
ATOM     31  N   UNL     1       5.739   4.761  15.845  0.00  0.00    +0.000 NA
ATOM     32  C   UNL     1       7.066   4.195  15.623  0.00  0.00    +0.000 C 
ATOM     33  C   UNL     1       5.843   6.166  16.307  0.00  0.00    +0.000 C 
ATOM     34  C   UNL     1       4.460   6.793  16.598  0.00  0.00    +0.000 C 
ENDBRANCH   7  28
TORSDOF 4
ENDMDL
MODEL 6
REMARK VINA RESULT:      -7.6      3.099      3.363
REMARK  Name = 
REMARK  6 active torsions:
REMARK  status: ('A' for Active; 'I' for Inactive)
REMARK    1  A    between atoms: C_1  and  C_2
REMARK    2  A    between atoms: C_5  and  N_6
REMARK    3  A    between atoms: C_7  and  C_9
REMARK    4  A    between atoms: C_15  and  N_16
REMARK    5  A    between atoms: C_22  and  N_23
REMARK    6  A    between atoms: N_26  and  C_27
REMARK                            x       y       z     vdW  Elec       q    Type
REMARK                         _______ _______ _______ _____ _____    ______ ____
ROOT
ATOM      1  N   UNL     1       0.271   9.638  20.298  0.00  0.00    +0.000 N 
ATOM      2  C   UNL     1      -0.032   8.779  21.332  0.00  0.00    +0.000 A 
ATOM      3  N   UNL     1       0.480   7.607  21.501  0.00  0.00    +0.000 NA
ATOM      4  C   UNL     1       1.415   7.172  20.552  0.00  0.00    +0.000 A 
ATOM      5  C   UNL     1       1.951   5.895  20.661  0.00  0.00    +0.000 A 
ATOM      6  C   UNL     1       2.892   5.437  19.728  0.00  0.00    +0.000 A 
ATOM      7  C   UNL     1       3.342   6.245  18.672  0.00  0.00    +0.000 A 
ATOM      8  C   UNL     1       2.783   7.522  18.572  0.00  0.00    +0.000 A 
ATOM      9  C   UNL     1       1.825   7.968  19.488  0.00  0.00    +0.000 A 
ATOM     10  C   UNL     1       1.213   9.297  19.332  0.00  0.00    +0.000 A 
ATOM     11  O   UNL     1       1.563  10.012  18.395  0.00  0.00    +0.000 OA
ENDROOT
BRANCH   1  18
ATOM     12  C   UNL     1      -1.685  10.092  18.118  0.00  0.00    +0.000 C 
ATOM     13  C   UNL     1      -1.308  11.136  19.137  0.00  0.00    +0.000 A 
ATOM     14  C   UNL     1      -1.950  12.377  19.096  0.00  0.00    +0.000 A 
ATOM     15  C   UNL     1      -1.719  13.337  20.085  0.00  0.00    +0.000 A 
ATOM     16  C   UNL     1      -0.852  13.087  21.148  0.00  0.00    +0.000 A 
ATOM     17  C   UNL     1      -0.188  11.857  21.184  0.00  0.00    +0.000 A 
ATOM     18  C   UNL     1      -0.407  10.882  20.188  0.00  0.00    +0.000 A 
BRANCH  16  19
ATOM     19  N   UNL     1      -0.605  14.020  22.186  0.00  0.00    +0.000 N 
ATOM     20  C   UNL     1      -1.361  14.162  23.339  0.00  0.00    +0.000 C 
ATOM     21  O   UNL     1      -2.308  13.447  23.651  0.00  0.00    +0.000 OA
ATOM     22  H   UNL     1       0.246  14.560  22.117  0.00  0.00    +0.000 HD
BRANCH  20  23
ATOM     23  C   UNL     1      -0.953  15.239  24.231  0.00  0.00    +0.000 A 
ATOM     24  C   UNL     1      -1.225  15.531  25.600  0.00  0.00    +0.000 A 
ATOM     25  C   UNL     1      -0.536  16.687  25.899  0.00  0.00    +0.000 A 
ATOM     26  O   UNL     1       0.131  17.137  24.810  0.00  0.00    +0.000 OA
ATOM     27  C   UNL     1      -0.120  16.260  23.810  0.00  0.00    +0.000 A 
ENDBRANCH  20  23
ENDBRANCH  16  19
ENDBRANCH   1  18
BRANCH   7  28
ATOM     28  N   UNL     1       4.329   5.846  17.800  0.00  0.00    +0.000 N 
ATOM     29  C   UNL     1       5.053   6.799  16.949  0.00  0.00    +0.000 C 
ATOM     30  C   UNL     1       5.287   6.168  15.556  0.00  0.00    +0.000 C 
ATOM     31  N   UNL     1       5.989   4.866  15.628  0.00  0.00    +0.000 NA
ATOM     32  C   UNL     1       6.156   4.300  14.293  0.00  0.00    +0.000 C 
ATOM     33  C   UNL     1       5.210   3.944  16.490  0.00  0.00    +0.000 C 
ATOM     34  C   UNL     1       4.970   4.523  17.903  0.00  0.00    +0.000 C 
ENDBRANCH   7  28
TORSDOF 4
ENDMDL
MODEL 7
REMARK VINA RESULT:      -7.5      4.439      6.300
REMARK  Name = 
REMARK  6 active torsions:
REMARK  status: ('A' for Active; 'I' for Inactive)
REMARK    1  A    between atoms: C_1  and  C_2
REMARK    2  A    between atoms: C_5  and  N_6
REMARK    3  A    between atoms: C_7  and  C_9
REMARK    4  A    between atoms: C_15  and  N_16
REMARK    5  A    between atoms: C_22  and  N_23
REMARK    6  A    between atoms: N_26  and  C_27
REMARK                            x       y       z     vdW  Elec       q    Type
REMARK                         _______ _______ _______ _____ _____    ______ ____
ROOT
ATOM      1  N   UNL     1       0.480  11.263  20.128  0.00  0.00    +0.000 N 
ATOM      2  C   UNL     1       0.755  11.630  18.829  0.00  0.00    +0.000 A 
ATOM      3  N   UNL     1       1.352  10.890  17.956  0.00  0.00    +0.000 NA
ATOM      4  C   UNL     1       1.758   9.613  18.369  0.00  0.00    +0.000 A 
ATOM      5  C   UNL     1       2.455   8.801  17.481  0.00  0.00    +0.000 A 
ATOM      6  C   UNL     1       2.868   7.518  17.867  0.00  0.00    +0.000 A 
ATOM      7  C   UNL     1       2.581   6.998  19.138  0.00  0.00    +0.000 A 
ATOM      8  C   UNL     1       1.890   7.833  20.020  0.00  0.00    +0.000 A 
ATOM      9  C   UNL     1       1.501   9.122  19.644  0.00  0.00    +0.000 A 
ATOM     10  C   UNL     1       0.819  10.002  20.608  0.00  0.00    +0.000 A 
ATOM     11  O   UNL     1       0.587   9.584  21.740  0.00  0.00    +0.000 OA
ENDROOT
BRANCH   1  18
ATOM     12  C   UNL     1       1.938  13.696  20.990  0.00  0.00    +0.000 C 
ATOM     13  C   UNL     1       0.556  13.333  21.469  0.00  0.00    +0.000 A 
ATOM     14  C   UNL     1      -0.109  14.212  22.328  0.00  0.00    +0.000 A 
ATOM     15  C   UNL     1      -1.432  13.977  22.710  0.00  0.00    +0.000 A 
ATOM     16  C   UNL     1      -2.136  12.867  22.241  0.00  0.00    +0.000 A 
ATOM     17  C   UNL     1      -1.470  11.970  21.400  0.00  0.00    +0.000 A 
ATOM     18  C   UNL     1      -0.131  12.193  21.013  0.00  0.00    +0.000 A 
BRANCH  16  19
ATOM     19  N   UNL     1      -3.485  12.601  22.582  0.00  0.00    +0.000 N 
ATOM     20  C   UNL     1      -4.593  13.234  22.042  0.00  0.00    +0.000 C 
ATOM     21  O   UNL     1      -4.557  14.064  21.139  0.00  0.00    +0.000 OA
ATOM     22  H   UNL     1      -3.650  11.821  23.204  0.00  0.00    +0.000 HD
BRANCH  20  23
ATOM     23  C   UNL     1      -5.879  12.838  22.601  0.00  0.00    +0.000 A 
ATOM     24  C   UNL     1      -6.983  12.099  22.085  0.00  0.00    +0.000 A 
ATOM     25  C   UNL     1      -7.917  12.029  23.097  0.00  0.00    +0.000 A 
ATOM     26  O   UNL     1      -7.474  12.684  24.197  0.00  0.00    +0.000 OA
ATOM     27  C   UNL     1      -6.245  13.166  23.894  0.00  0.00    +0.000 A 
ENDBRANCH  20  23
ENDBRANCH  16  19
ENDBRANCH   1  18
BRANCH   7  28
ATOM     28  N   UNL     1       2.901   5.710  19.503  0.00  0.00    +0.000 N 
ATOM     29  C   UNL     1       4.245   5.152  19.306  0.00  0.00    +0.000 C 
ATOM     30  C   UNL     1       4.126   3.677  18.856  0.00  0.00    +0.000 C 
ATOM     31  N   UNL     1       3.332   2.853  19.796  0.00  0.00    +0.000 NA
ATOM     32  C   UNL     1       3.225   1.481  19.310  0.00  0.00    +0.000 C 
ATOM     33  C   UNL     1       1.986   3.458  19.949  0.00  0.00    +0.000 C 
ATOM     34  C   UNL     1       2.052   4.929  20.420  0.00  0.00    +0.000 C 
ENDBRANCH   7  28
TORSDOF 4
ENDMDL
MODEL 8
REMARK VINA RESULT:      -7.5      4.709      6.530
REMARK  Name = 
REMARK  6 active torsions:
REMARK  status: ('A' for Active; 'I' for Inactive)
REMARK    1  A    between atoms: C_1  and  C_2
REMARK    2  A    between atoms: C_5  and  N_6
REMARK    3  A    between atoms: C_7  and  C_9
REMARK    4  A    between atoms: C_15  and  N_16
REMARK    5  A    between atoms: C_22  and  N_23
REMARK    6  A    between atoms: N_26  and  C_27
REMARK                            x       y       z     vdW  Elec       q    Type
REMARK                         _______ _______ _______ _____ _____    ______ ____
ROOT
ATOM      1  N   UNL     1       0.223  12.094  20.567  0.00  0.00    +0.000 N 
ATOM      2  C   UNL     1       0.377  12.429  19.240  0.00  0.00    +0.000 A 
ATOM      3  N   UNL     1       0.846  11.650  18.324  0.00  0.00    +0.000 NA
ATOM      4  C   UNL     1       1.235  10.362  18.716  0.00  0.00    +0.000 A 
ATOM      5  C   UNL     1       1.799   9.506  17.777  0.00  0.00    +0.000 A 
ATOM      6  C   UNL     1       2.192   8.211  18.141  0.00  0.00    +0.000 A 
ATOM      7  C   UNL     1       2.017   7.722  19.445  0.00  0.00    +0.000 A 
ATOM      8  C   UNL     1       1.459   8.600  20.378  0.00  0.00    +0.000 A 
ATOM      9  C   UNL     1       1.092   9.901  20.020  0.00  0.00    +0.000 A 
ATOM     10  C   UNL     1       0.554  10.825  21.033  0.00  0.00    +0.000 A 
ATOM     11  O   UNL     1       0.423  10.434  22.191  0.00  0.00    +0.000 OA
ENDROOT
BRANCH   1  18
ATOM     12  C   UNL     1       1.950  14.362  21.379  0.00  0.00    +0.000 C 
ATOM     13  C   UNL     1       0.566  14.125  21.926  0.00  0.00    +0.000 A 
ATOM     14  C   UNL     1       0.033  15.049  22.828  0.00  0.00    +0.000 A 
ATOM     15  C   UNL     1      -1.286  14.935  23.276  0.00  0.00    +0.000 A 
ATOM     16  C   UNL     1      -2.115  13.905  22.832  0.00  0.00    +0.000 A 
ATOM     17  C   UNL     1      -1.582  12.963  21.947  0.00  0.00    +0.000 A 
ATOM     18  C   UNL     1      -0.250  13.063  21.493  0.00  0.00    +0.000 A 
BRANCH  16  19
ATOM     19  N   UNL     1      -3.465  13.764  23.239  0.00  0.00    +0.000 N 
ATOM     20  C   UNL     1      -4.565  14.297  22.587  0.00  0.00    +0.000 C 
ATOM     21  O   UNL     1      -4.523  14.906  21.522  0.00  0.00    +0.000 OA
ATOM     22  H   UNL     1      -3.640  13.146  24.020  0.00  0.00    +0.000 HD
BRANCH  20  23
ATOM     23  C   UNL     1      -5.851  14.076  23.235  0.00  0.00    +0.000 A 
ATOM     24  C   UNL     1      -6.593  12.902  23.557  0.00  0.00    +0.000 A 
ATOM     25  C   UNL     1      -7.741  13.325  24.191  0.00  0.00    +0.000 A 
ATOM     26  O   UNL     1      -7.768  14.677  24.272  0.00  0.00    +0.000 OA
ATOM     27  C   UNL     1      -6.625  15.123  23.699  0.00  0.00    +0.000 A 
ENDBRANCH  20  23
ENDBRANCH  16  19
ENDBRANCH   1  18
BRANCH   7  28
ATOM     28  N   UNL     1       2.315   6.426  19.799  0.00  0.00    +0.000 N 
ATOM     29  C   UNL     1       3.581   5.784  19.423  0.00  0.00    +0.000 C 
ATOM     30  C   UNL     1       3.314   4.309  19.042  0.00  0.00    +0.000 C 
ATOM     31  N   UNL     1       2.624   3.556  20.114  0.00  0.00    +0.000 NA
ATOM     32  C   UNL     1       2.370   2.182  19.693  0.00  0.00    +0.000 C 
ATOM     33  C   UNL     1       1.353   4.243  20.445  0.00  0.00    +0.000 C 
ATOM     34  C   UNL     1       1.570   5.718  20.855  0.00  0.00    +0.000 C 
ENDBRANCH   7  28
TORSDOF 4
ENDMDL
MODEL 9
REMARK VINA RESULT:      -7.4      2.140      2.411
REMARK  Name = 
REMARK  6 active torsions:
REMARK  status: ('A' for Active; 'I' for Inactive)
REMARK    1  A    between atoms: C_1  and  C_2
REMARK    2  A    between atoms: C_5  and  N_6
REMARK    3  A    between atoms: C_7  and  C_9
REMARK    4  A    between atoms: C_15  and  N_16
REMARK    5  A    between atoms: C_22  and  N_23
REMARK    6  A    between atoms: N_26  and  C_27
REMARK                            x       y       z     vdW  Elec       q    Type
REMARK                         _______ _______ _______ _____ _____    ______ ____
ROOT
ATOM      1  N   UNL     1       0.717   9.644  19.801  0.00  0.00    +0.000 N 
ATOM      2  C   UNL     1       0.311   8.913  20.895  0.00  0.00    +0.000 A 
ATOM      3  N   UNL     1       0.721   7.726  21.193  0.00  0.00    +0.000 NA
ATOM      4  C   UNL     1       1.651   7.134  20.328  0.00  0.00    +0.000 A 
ATOM      5  C   UNL     1       2.080   5.835  20.577  0.00  0.00    +0.000 A 
ATOM      6  C   UNL     1       3.013   5.221  19.730  0.00  0.00    +0.000 A 
ATOM      7  C   UNL     1       3.563   5.888  18.624  0.00  0.00    +0.000 A 
ATOM      8  C   UNL     1       3.111   7.189  18.383  0.00  0.00    +0.000 A 
ATOM      9  C   UNL     1       2.160   7.791  19.214  0.00  0.00    +0.000 A 
ATOM     10  C   UNL     1       1.662   9.142  18.910  0.00  0.00    +0.000 A 
ATOM     11  O   UNL     1       2.100   9.736  17.927  0.00  0.00    +0.000 OA
ENDROOT
BRANCH   1  18
ATOM     12  C   UNL     1      -1.371   9.966  17.721  0.00  0.00    +0.000 C 
ATOM     13  C   UNL     1      -0.818  11.105  18.537  0.00  0.00    +0.000 A 
ATOM     14  C   UNL     1      -1.349  12.385  18.351  0.00  0.00    +0.000 A 
ATOM     15  C   UNL     1      -0.950  13.452  19.160  0.00  0.00    +0.000 A 
ATOM     16  C   UNL     1      -0.020  13.275  20.185  0.00  0.00    +0.000 A 
ATOM     17  C   UNL     1       0.533  12.004  20.363  0.00  0.00    +0.000 A 
ATOM     18  C   UNL     1       0.144  10.920  19.548  0.00  0.00    +0.000 A 
BRANCH  16  19
ATOM     19  N   UNL     1       0.395  14.321  21.046  0.00  0.00    +0.000 N 
ATOM     20  C   UNL     1      -0.393  14.938  22.004  0.00  0.00    +0.000 C 
ATOM     21  O   UNL     1      -1.540  14.610  22.287  0.00  0.00    +0.000 OA
ATOM     22  H   UNL     1       1.374  14.571  21.016  0.00  0.00    +0.000 HD
BRANCH  20  23
ATOM     23  C   UNL     1       0.236  16.039  22.723  0.00  0.00    +0.000 A 
ATOM     24  C   UNL     1       1.270  16.962  22.387  0.00  0.00    +0.000 A 
ATOM     25  C   UNL     1       1.420  17.795  23.475  0.00  0.00    +0.000 A 
ATOM     26  O   UNL     1       0.563  17.446  24.463  0.00  0.00    +0.000 OA
ATOM     27  C   UNL     1      -0.150  16.390  24.004  0.00  0.00    +0.000 A 
ENDBRANCH  20  23
ENDBRANCH  16  19
ENDBRANCH   1  18
BRANCH   7  28
ATOM     28  N   UNL     1       4.544   5.334  17.834  0.00  0.00    +0.000 N 
ATOM     29  C   UNL     1       5.957   5.714  17.962  0.00  0.00    +0.000 C 
ATOM     30  C   UNL     1       6.596   5.787  16.555  0.00  0.00    +0.000 C 
ATOM     31  N   UNL     1       6.442   4.528  15.789  0.00  0.00    +0.000 NA
ATOM     32  C   UNL     1       7.033   4.661  14.461  0.00  0.00    +0.000 C 
ATOM     33  C   UNL     1       4.999   4.201  15.686  0.00  0.00    +0.000 C 
ATOM     34  C   UNL     1       4.320   4.094  17.070  0.00  0.00    +0.000 C 
ENDBRANCH   7  28
TORSDOF 4
ENDMDL
