MODEL 1
REMARK VINA RESULT:      -8.4      0.000      0.000
REMARK  Name = 
REMARK  0 active torsions:
REMARK  status: ('A' for Active; 'I' for Inactive)
REMARK                            x       y       z     vdW  Elec       q    Type
REMARK                         _______ _______ _______ _____ _____    ______ ____
ROOT
ATOM      1 BR   UNL     1      -2.268  13.643  22.506  0.00  0.00    +0.000 Br
ATOM      2  C   UNL     1      -1.301  12.029  22.249  0.00  0.00    +0.000 A 
ATOM      3  C   UNL     1      -1.238  11.109  23.302  0.00  0.00    +0.000 A 
ATOM      4  C   UNL     1      -0.503   9.936  23.152  0.00  0.00    +0.000 A 
ATOM      5  C   UNL     1       0.156   9.718  21.933  0.00  0.00    +0.000 A 
ATOM      6  N   UNL     1       0.969   8.687  21.528  0.00  0.00    +0.000 N 
ATOM      7  C   UNL     1       1.347   8.778  20.206  0.00  0.00    +0.000 A 
ATOM      8  C   UNL     1       2.060   7.892  19.328  0.00  0.00    +0.000 A 
ATOM      9  N   UNL     1       2.417   6.576  19.669  0.00  0.00    +0.000 N 
ATOM     10  C   UNL     1       1.478   5.994  20.607  0.00  0.00    +0.000 C 
ATOM     11  C   UNL     1       1.218   4.518  20.520  0.00  0.00    +0.000 C 
ATOM     12  C   UNL     1       2.481   3.768  20.400  0.00  0.00    +0.000 A 
ATOM     13  C   UNL     1       2.593   2.550  21.091  0.00  0.00    +0.000 A 
ATOM     14  C   UNL     1       3.746   1.797  20.996  0.00  0.00    +0.000 A 
ATOM     15  C   UNL     1       4.757   2.231  20.145  0.00  0.00    +0.000 A 
ATOM     16  C   UNL     1       4.634   3.448  19.421  0.00  0.00    +0.000 A 
ATOM     17  C   UNL     1       3.504   4.273  19.574  0.00  0.00    +0.000 A 
ATOM     18  C   UNL     1       3.281   5.645  18.868  0.00  0.00    +0.000 C 
ATOM     19  N   UNL     1       2.281   8.390  18.091  0.00  0.00    +0.000 NA
ATOM     20  C   UNL     1       1.759   9.611  17.770  0.00  0.00    +0.000 A 
ATOM     21  N   UNL     1       1.033  10.460  18.526  0.00  0.00    +0.000 NA
ATOM     22  C   UNL     1       0.846  10.000  19.782  0.00  0.00    +0.000 A 
ATOM     23  C   UNL     1       0.085  10.604  20.854  0.00  0.00    +0.000 A 
ATOM     24  C   UNL     1      -0.660  11.791  21.026  0.00  0.00    +0.000 A 
ATOM     25  H   UNL     1       1.208   7.926  22.149  0.00  0.00    +0.000 HD
ENDROOT
TORSDOF 0
ENDMDL
MODEL 2
REMARK VINA RESULT:      -7.8      3.605      8.120
REMARK  Name = 
REMARK  0 active torsions:
REMARK  status: ('A' for Active; 'I' for Inactive)
REMARK                            x       y       z     vdW  Elec       q    Type
REMARK                         _______ _______ _______ _____ _____    ______ ____
ROOT
ATOM      1 BR   UNL     1       6.314   3.678  14.788  0.00  0.00    +0.000 Br
ATOM      2  C   UNL     1       5.347   4.953  15.810  0.00  0.00    +0.000 A 
ATOM      3  C   UNL     1       5.384   6.296  15.417  0.00  0.00    +0.000 A 
ATOM      4  C   UNL     1       4.715   7.256  16.172  0.00  0.00    +0.000 A 
ATOM      5  C   UNL     1       4.020   6.834  17.314  0.00  0.00    +0.000 A 
ATOM      6  N   UNL     1       3.317   7.555  18.250  0.00  0.00    +0.000 N 
ATOM      7  C   UNL     1       2.679   6.764  19.181  0.00  0.00    +0.000 A 
ATOM      8  C   UNL     1       1.747   7.050  20.236  0.00  0.00    +0.000 A 
ATOM      9  N   UNL     1       1.159   8.311  20.436  0.00  0.00    +0.000 N 
ATOM     10  C   UNL     1       1.021   9.040  19.191  0.00  0.00    +0.000 C 
ATOM     11  C   UNL     1      -0.156   9.959  19.038  0.00  0.00    +0.000 C 
ATOM     12  C   UNL     1      -0.331  10.794  20.239  0.00  0.00    +0.000 A 
ATOM     13  C   UNL     1      -0.713  12.135  20.061  0.00  0.00    +0.000 A 
ATOM     14  C   UNL     1      -0.912  12.955  21.153  0.00  0.00    +0.000 A 
ATOM     15  C   UNL     1      -0.800  12.408  22.427  0.00  0.00    +0.000 A 
ATOM     16  C   UNL     1      -0.442  11.044  22.610  0.00  0.00    +0.000 A 
ATOM     17  C   UNL     1      -0.149  10.216  21.510  0.00  0.00    +0.000 A 
ATOM     18  C   UNL     1       0.295   8.724  21.593  0.00  0.00    +0.000 C 
ATOM     19  N   UNL     1       1.395   5.977  20.977  0.00  0.00    +0.000 NA
ATOM     20  C   UNL     1       1.874   4.747  20.623  0.00  0.00    +0.000 A 
ATOM     21  N   UNL     1       2.698   4.405  19.612  0.00  0.00    +0.000 NA
ATOM     22  C   UNL     1       3.100   5.474  18.892  0.00  0.00    +0.000 A 
ATOM     23  C   UNL     1       3.940   5.496  17.714  0.00  0.00    +0.000 A 
ATOM     24  C   UNL     1       4.629   4.538  16.940  0.00  0.00    +0.000 A 
ATOM     25  H   UNL     1       3.254   8.562  18.204  0.00  0.00    +0.000 HD
ENDROOT
TORSDOF 0
ENDMDL
MODEL 3
REMARK VINA RESULT:      -7.7      3.205      7.665
REMARK  Name = 
REMARK  0 active torsions:
REMARK  status: ('A' for Active; 'I' for Inactive)
REMARK                            x       y       z     vdW  Elec       q    Type
REMARK                         _______ _______ _______ _____ _____    ______ ____
ROOT
ATOM      1 BR   UNL     1       4.838   0.919  19.964  0.00  0.00    +0.000 Br
ATOM      2  C   UNL     1       3.806   2.489  20.242  0.00  0.00    +0.000 A 
ATOM      3  C   UNL     1       2.889   2.510  21.300  0.00  0.00    +0.000 A 
ATOM      4  C   UNL     1       2.092   3.635  21.502  0.00  0.00    +0.000 A 
ATOM      5  C   UNL     1       2.242   4.718  20.625  0.00  0.00    +0.000 A 
ATOM      6  N   UNL     1       1.574   5.918  20.564  0.00  0.00    +0.000 N 
ATOM      7  C   UNL     1       2.083   6.778  19.615  0.00  0.00    +0.000 A 
ATOM      8  C   UNL     1       1.808   8.150  19.288  0.00  0.00    +0.000 A 
ATOM      9  N   UNL     1       0.974   8.982  20.054  0.00  0.00    +0.000 N 
ATOM     10  C   UNL     1       0.982   8.605  21.453  0.00  0.00    +0.000 C 
ATOM     11  C   UNL     1       0.824   9.691  22.477  0.00  0.00    +0.000 C 
ATOM     12  C   UNL     1      -0.276  10.601  22.113  0.00  0.00    +0.000 A 
ATOM     13  C   UNL     1      -1.101  11.084  23.143  0.00  0.00    +0.000 A 
ATOM     14  C   UNL     1      -2.133  11.956  22.860  0.00  0.00    +0.000 A 
ATOM     15  C   UNL     1      -2.288  12.403  21.552  0.00  0.00    +0.000 A 
ATOM     16  C   UNL     1      -1.435  11.940  20.513  0.00  0.00    +0.000 A 
ATOM     17  C   UNL     1      -0.435  10.982  20.767  0.00  0.00    +0.000 A 
ATOM     18  C   UNL     1       0.526  10.371  19.702  0.00  0.00    +0.000 C 
ATOM     19  N   UNL     1       2.499   8.620  18.227  0.00  0.00    +0.000 NA
ATOM     20  C   UNL     1       3.421   7.808  17.629  0.00  0.00    +0.000 A 
ATOM     21  N   UNL     1       3.768   6.538  17.925  0.00  0.00    +0.000 NA
ATOM     22  C   UNL     1       3.050   6.036  18.953  0.00  0.00    +0.000 A 
ATOM     23  C   UNL     1       3.171   4.737  19.580  0.00  0.00    +0.000 A 
ATOM     24  C   UNL     1       3.966   3.587  19.386  0.00  0.00    +0.000 A 
ATOM     25  H   UNL     1       0.819   6.136  21.199  0.00  0.00    +0.000 HD
ENDROOT
TORSDOF 0
ENDMDL
MODEL 4
REMARK VINA RESULT:      -7.7      3.215      5.042
REMARK  Name = 
REMARK  0 active torsions:
REMARK  status: ('A' for Active; 'I' for Inactive)
REMARK                            x       y       z     vdW  Elec       q    Type
REMARK                         _______ _______ _______ _____ _____    ______ ____
ROOT
ATOM      1 BR   UNL     1      -0.585  10.424  22.850  0.00  0.00    +0.000 Br
ATOM      2  C   UNL     1       0.408   9.550  21.488  0.00  0.00    +0.000 A 
ATOM      3  C   UNL     1       0.832  10.296  20.382  0.00  0.00    +0.000 A 
ATOM      4  C   UNL     1       1.529   9.671  19.351  0.00  0.00    +0.000 A 
ATOM      5  C   UNL     1       1.782   8.297  19.462  0.00  0.00    +0.000 A 
ATOM      6  N   UNL     1       2.401   7.430  18.594  0.00  0.00    +0.000 N 
ATOM      7  C   UNL     1       2.554   6.160  19.109  0.00  0.00    +0.000 A 
ATOM      8  C   UNL     1       3.240   4.988  18.639  0.00  0.00    +0.000 A 
ATOM      9  N   UNL     1       4.079   4.976  17.511  0.00  0.00    +0.000 N 
ATOM     10  C   UNL     1       4.709   6.263  17.298  0.00  0.00    +0.000 C 
ATOM     11  C   UNL     1       6.090   6.285  16.712  0.00  0.00    +0.000 C 
ATOM     12  C   UNL     1       6.183   5.379  15.553  0.00  0.00    +0.000 A 
ATOM     13  C   UNL     1       6.944   5.796  14.448  0.00  0.00    +0.000 A 
ATOM     14  C   UNL     1       7.083   4.977  13.347  0.00  0.00    +0.000 A 
ATOM     15  C   UNL     1       6.518   3.706  13.385  0.00  0.00    +0.000 A 
ATOM     16  C   UNL     1       5.773   3.270  14.514  0.00  0.00    +0.000 A 
ATOM     17  C   UNL     1       5.546   4.124  15.610  0.00  0.00    +0.000 A 
ATOM     18  C   UNL     1       4.710   3.770  16.877  0.00  0.00    +0.000 C 
ATOM     19  N   UNL     1       3.097   3.903  19.430  0.00  0.00    +0.000 NA
ATOM     20  C   UNL     1       2.407   4.028  20.602  0.00  0.00    +0.000 A 
ATOM     21  N   UNL     1       1.794   5.110  21.127  0.00  0.00    +0.000 NA
ATOM     22  C   UNL     1       1.885   6.192  20.323  0.00  0.00    +0.000 A 
ATOM     23  C   UNL     1       1.398   7.532  20.568  0.00  0.00    +0.000 A 
ATOM     24  C   UNL     1       0.688   8.181  21.601  0.00  0.00    +0.000 A 
ATOM     25  H   UNL     1       2.743   7.735  17.694  0.00  0.00    +0.000 HD
ENDROOT
TORSDOF 0
ENDMDL
MODEL 5
REMARK VINA RESULT:      -7.7      4.113      6.117
REMARK  Name = 
REMARK  0 active torsions:
REMARK  status: ('A' for Active; 'I' for Inactive)
REMARK                            x       y       z     vdW  Elec       q    Type
REMARK                         _______ _______ _______ _____ _____    ______ ____
ROOT
ATOM      1 BR   UNL     1       0.156   9.272  22.360  0.00  0.00    +0.000 Br
ATOM      2  C   UNL     1       1.110   8.547  20.887  0.00  0.00    +0.000 A 
ATOM      3  C   UNL     1       1.480   9.402  19.841  0.00  0.00    +0.000 A 
ATOM      4  C   UNL     1       2.147   8.888  18.731  0.00  0.00    +0.000 A 
ATOM      5  C   UNL     1       2.425   7.515  18.703  0.00  0.00    +0.000 A 
ATOM      6  N   UNL     1       3.025   6.744  17.736  0.00  0.00    +0.000 N 
ATOM      7  C   UNL     1       3.217   5.435  18.124  0.00  0.00    +0.000 A 
ATOM      8  C   UNL     1       3.903   4.326  17.522  0.00  0.00    +0.000 A 
ATOM      9  N   UNL     1       4.698   4.434  16.368  0.00  0.00    +0.000 N 
ATOM     10  C   UNL     1       5.299   5.748  16.254  0.00  0.00    +0.000 C 
ATOM     11  C   UNL     1       6.656   5.850  15.622  0.00  0.00    +0.000 C 
ATOM     12  C   UNL     1       6.720   5.058  14.381  0.00  0.00    +0.000 A 
ATOM     13  C   UNL     1       7.432   5.591  13.293  0.00  0.00    +0.000 A 
ATOM     14  C   UNL     1       7.541   4.880  12.115  0.00  0.00    +0.000 A 
ATOM     15  C   UNL     1       6.998   3.601  12.055  0.00  0.00    +0.000 A 
ATOM     16  C   UNL     1       6.304   3.047  13.165  0.00  0.00    +0.000 A 
ATOM     17  C   UNL     1       6.105   3.791  14.343  0.00  0.00    +0.000 A 
ATOM     18  C   UNL     1       5.324   3.305  15.601  0.00  0.00    +0.000 C 
ATOM     19  N   UNL     1       3.807   3.169  18.212  0.00  0.00    +0.000 NA
ATOM     20  C   UNL     1       3.160   3.171  19.415  0.00  0.00    +0.000 A 
ATOM     21  N   UNL     1       2.551   4.188  20.061  0.00  0.00    +0.000 NA
ATOM     22  C   UNL     1       2.594   5.341  19.360  0.00  0.00    +0.000 A 
ATOM     23  C   UNL     1       2.096   6.643  19.746  0.00  0.00    +0.000 A 
ATOM     24  C   UNL     1       1.416   7.180  20.861  0.00  0.00    +0.000 A 
ATOM     25  H   UNL     1       3.327   7.138  16.857  0.00  0.00    +0.000 HD
ENDROOT
TORSDOF 0
ENDMDL
MODEL 6
REMARK VINA RESULT:      -7.3      1.173      1.184
REMARK  Name = 
REMARK  0 active torsions:
REMARK  status: ('A' for Active; 'I' for Inactive)
REMARK                            x       y       z     vdW  Elec       q    Type
REMARK                         _______ _______ _______ _____ _____    ______ ____
ROOT
ATOM      1 BR   UNL     1      -1.684  12.997  23.113  0.00  0.00    +0.000 Br
ATOM      2  C   UNL     1      -0.839  11.417  22.485  0.00  0.00    +0.000 A 
ATOM      3  C   UNL     1      -0.868  10.274  23.293  0.00  0.00    +0.000 A 
ATOM      4  C   UNL     1      -0.222   9.114  22.873  0.00  0.00    +0.000 A 
ATOM      5  C   UNL     1       0.442   9.135  21.639  0.00  0.00    +0.000 A 
ATOM      6  N   UNL     1       1.181   8.166  21.005  0.00  0.00    +0.000 N 
ATOM      7  C   UNL     1       1.593   8.533  19.741  0.00  0.00    +0.000 A 
ATOM      8  C   UNL     1       2.253   7.823  18.681  0.00  0.00    +0.000 A 
ATOM      9  N   UNL     1       2.500   6.440  18.705  0.00  0.00    +0.000 N 
ATOM     10  C   UNL     1       1.500   5.731  19.478  0.00  0.00    +0.000 C 
ATOM     11  C   UNL     1       1.129   4.342  19.047  0.00  0.00    +0.000 C 
ATOM     12  C   UNL     1       2.333   3.542  18.756  0.00  0.00    +0.000 A 
ATOM     13  C   UNL     1       2.337   2.191  19.143  0.00  0.00    +0.000 A 
ATOM     14  C   UNL     1       3.430   1.393  18.875  0.00  0.00    +0.000 A 
ATOM     15  C   UNL     1       4.489   1.932  18.152  0.00  0.00    +0.000 A 
ATOM     16  C   UNL     1       4.474   3.290  17.733  0.00  0.00    +0.000 A 
ATOM     17  C   UNL     1       3.409   4.144  18.074  0.00  0.00    +0.000 A 
ATOM     18  C   UNL     1       3.306   5.656  17.709  0.00  0.00    +0.000 C 
ATOM     19  N   UNL     1       2.536   8.577  17.596  0.00  0.00    +0.000 NA
ATOM     20  C   UNL     1       2.117   9.877  17.570  0.00  0.00    +0.000 A 
ATOM     21  N   UNL     1       1.443  10.581  18.503  0.00  0.00    +0.000 NA
ATOM     22  C   UNL     1       1.196   9.856  19.615  0.00  0.00    +0.000 A 
ATOM     23  C   UNL     1       0.462  10.252  20.797  0.00  0.00    +0.000 A 
ATOM     24  C   UNL     1      -0.193  11.421  21.242  0.00  0.00    +0.000 A 
ATOM     25  H   UNL     1       1.349   7.265  21.430  0.00  0.00    +0.000 HD
ENDROOT
TORSDOF 0
ENDMDL
MODEL 7
REMARK VINA RESULT:      -7.2      2.114      3.582
REMARK  Name = 
REMARK  0 active torsions:
REMARK  status: ('A' for Active; 'I' for Inactive)
REMARK                            x       y       z     vdW  Elec       q    Type
REMARK                         _______ _______ _______ _____ _____    ______ ____
ROOT
ATOM      1 BR   UNL     1       1.363  16.029  19.903  0.00  0.00    +0.000 Br
ATOM      2  C   UNL     1       1.444  14.157  19.594  0.00  0.00    +0.000 A 
ATOM      3  C   UNL     1       1.844  13.701  18.332  0.00  0.00    +0.000 A 
ATOM      4  C   UNL     1       1.875  12.335  18.068  0.00  0.00    +0.000 A 
ATOM      5  C   UNL     1       1.498  11.454  19.091  0.00  0.00    +0.000 A 
ATOM      6  N   UNL     1       1.398  10.083  19.099  0.00  0.00    +0.000 N 
ATOM      7  C   UNL     1       1.092   9.566  20.339  0.00  0.00    +0.000 A 
ATOM      8  C   UNL     1       1.018   8.225  20.850  0.00  0.00    +0.000 A 
ATOM      9  N   UNL     1       1.420   7.091  20.125  0.00  0.00    +0.000 N 
ATOM     10  C   UNL     1       2.481   7.403  19.189  0.00  0.00    +0.000 C 
ATOM     11  C   UNL     1       3.506   6.345  18.904  0.00  0.00    +0.000 C 
ATOM     12  C   UNL     1       2.863   5.042  18.661  0.00  0.00    +0.000 A 
ATOM     13  C   UNL     1       3.401   4.217  17.658  0.00  0.00    +0.000 A 
ATOM     14  C   UNL     1       2.850   2.978  17.403  0.00  0.00    +0.000 A 
ATOM     15  C   UNL     1       1.806   2.534  18.208  0.00  0.00    +0.000 A 
ATOM     16  C   UNL     1       1.279   3.354  19.243  0.00  0.00    +0.000 A 
ATOM     17  C   UNL     1       1.769   4.656  19.459  0.00  0.00    +0.000 A 
ATOM     18  C   UNL     1       1.240   5.656  20.532  0.00  0.00    +0.000 C 
ATOM     19  N   UNL     1       0.618   8.140  22.138  0.00  0.00    +0.000 NA
ATOM     20  C   UNL     1       0.404   9.293  22.839  0.00  0.00    +0.000 A 
ATOM     21  N   UNL     1       0.515  10.576  22.436  0.00  0.00    +0.000 NA
ATOM     22  C   UNL     1       0.865  10.678  21.136  0.00  0.00    +0.000 A 
ATOM     23  C   UNL     1       1.124  11.878  20.370  0.00  0.00    +0.000 A 
ATOM     24  C   UNL     1       1.093  13.267  20.618  0.00  0.00    +0.000 A 
ATOM     25  H   UNL     1       1.583   9.534  18.271  0.00  0.00    +0.000 HD
ENDROOT
TORSDOF 0
ENDMDL
MODEL 8
REMARK VINA RESULT:      -7.1      2.697      4.310
REMARK  Name = 
REMARK  0 active torsions:
REMARK  status: ('A' for Active; 'I' for Inactive)
REMARK                            x       y       z     vdW  Elec       q    Type
REMARK                         _______ _______ _______ _____ _____    ______ ____
ROOT
ATOM      1 BR   UNL     1      -0.560  13.455  21.141  0.00  0.00    +0.000 Br
ATOM      2  C   UNL     1       0.389  12.135  20.161  0.00  0.00    +0.000 A 
ATOM      3  C   UNL     1       1.041  12.513  18.981  0.00  0.00    +0.000 A 
ATOM      4  C   UNL     1       1.711  11.557  18.223  0.00  0.00    +0.000 A 
ATOM      5  C   UNL     1       1.708  10.231  18.678  0.00  0.00    +0.000 A 
ATOM      6  N   UNL     1       2.245   9.094  18.123  0.00  0.00    +0.000 N 
ATOM      7  C   UNL     1       2.123   7.983  18.929  0.00  0.00    +0.000 A 
ATOM      8  C   UNL     1       2.634   6.643  18.836  0.00  0.00    +0.000 A 
ATOM      9  N   UNL     1       3.560   6.229  17.864  0.00  0.00    +0.000 N 
ATOM     10  C   UNL     1       4.424   7.316  17.450  0.00  0.00    +0.000 C 
ATOM     11  C   UNL     1       5.837   6.988  17.065  0.00  0.00    +0.000 C 
ATOM     12  C   UNL     1       5.880   5.820  16.167  0.00  0.00    +0.000 A 
ATOM     13  C   UNL     1       6.804   5.834  15.109  0.00  0.00    +0.000 A 
ATOM     14  C   UNL     1       6.900   4.756  14.252  0.00  0.00    +0.000 A 
ATOM     15  C   UNL     1       6.120   3.632  14.504  0.00  0.00    +0.000 A 
ATOM     16  C   UNL     1       5.206   3.603  15.592  0.00  0.00    +0.000 A 
ATOM     17  C   UNL     1       5.029   4.726  16.423  0.00  0.00    +0.000 A 
ATOM     18  C   UNL     1       4.028   4.824  17.614  0.00  0.00    +0.000 C 
ATOM     19  N   UNL     1       2.228   5.821  19.828  0.00  0.00    +0.000 NA
ATOM     20  C   UNL     1       1.462   6.332  20.836  0.00  0.00    +0.000 A 
ATOM     21  N   UNL     1       1.002   7.589  21.013  0.00  0.00    +0.000 NA
ATOM     22  C   UNL     1       1.357   8.413  20.003  0.00  0.00    +0.000 A 
ATOM     23  C   UNL     1       1.092   9.829  19.868  0.00  0.00    +0.000 A 
ATOM     24  C   UNL     1       0.412  10.811  20.620  0.00  0.00    +0.000 A 
ATOM     25  H   UNL     1       2.719   9.113  17.230  0.00  0.00    +0.000 HD
ENDROOT
TORSDOF 0
ENDMDL
MODEL 9
REMARK VINA RESULT:      -7.0      1.853      3.532
REMARK  Name = 
REMARK  0 active torsions:
REMARK  status: ('A' for Active; 'I' for Inactive)
REMARK                            x       y       z     vdW  Elec       q    Type
REMARK                         _______ _______ _______ _____ _____    ______ ____
ROOT
ATOM      1 BR   UNL     1      -1.070  16.238  20.229  0.00  0.00    +0.000 Br
ATOM      2  C   UNL     1      -0.595  14.430  19.894  0.00  0.00    +0.000 A 
ATOM      3  C   UNL     1      -0.331  14.038  18.577  0.00  0.00    +0.000 A 
ATOM      4  C   UNL     1      -0.018  12.710  18.300  0.00  0.00    +0.000 A 
ATOM      5  C   UNL     1       0.021  11.803  19.368  0.00  0.00    +0.000 A 
ATOM      6  N   UNL     1       0.259  10.449  19.382  0.00  0.00    +0.000 N 
ATOM      7  C   UNL     1       0.317   9.919  20.653  0.00  0.00    +0.000 A 
ATOM      8  C   UNL     1       0.664   8.619  21.158  0.00  0.00    +0.000 A 
ATOM      9  N   UNL     1       1.191   7.589  20.362  0.00  0.00    +0.000 N 
ATOM     10  C   UNL     1       1.958   8.112  19.249  0.00  0.00    +0.000 C 
ATOM     11  C   UNL     1       3.140   7.321  18.772  0.00  0.00    +0.000 C 
ATOM     12  C   UNL     1       2.799   5.893  18.640  0.00  0.00    +0.000 A 
ATOM     13  C   UNL     1       3.331   5.186  17.548  0.00  0.00    +0.000 A 
ATOM     14  C   UNL     1       3.060   3.842  17.389  0.00  0.00    +0.000 A 
ATOM     15  C   UNL     1       2.318   3.191  18.368  0.00  0.00    +0.000 A 
ATOM     16  C   UNL     1       1.804   3.898  19.490  0.00  0.00    +0.000 A 
ATOM     17  C   UNL     1       1.994   5.286  19.623  0.00  0.00    +0.000 A 
ATOM     18  C   UNL     1       1.441   6.169  20.783  0.00  0.00    +0.000 C 
ATOM     19  N   UNL     1       0.536   8.488  22.497  0.00  0.00    +0.000 NA
ATOM     20  C   UNL     1       0.179   9.581  23.235  0.00  0.00    +0.000 A 
ATOM     21  N   UNL     1      -0.099  10.838  22.829  0.00  0.00    +0.000 NA
ATOM     22  C   UNL     1      -0.025  10.973  21.488  0.00  0.00    +0.000 A 
ATOM     23  C   UNL     1      -0.208  12.171  20.697  0.00  0.00    +0.000 A 
ATOM     24  C   UNL     1      -0.529  13.521  20.958  0.00  0.00    +0.000 A 
ATOM     25  H   UNL     1       0.420   9.930  18.530  0.00  0.00    +0.000 HD
ENDROOT
TORSDOF 0
ENDMDL
