MODEL 1
REMARK VINA RESULT:      -9.0      0.000      0.000
REMARK  Name = 
REMARK  6 active torsions:
REMARK  status: ('A' for Active; 'I' for Inactive)
REMARK    1  A    between atoms: O_1  and  C_2
REMARK    2  A    between atoms: C_5  and  C_6
REMARK    3  A    between atoms: N_9  and  N_10
REMARK    4  A    between atoms: N_10  and  C_11
REMARK    5  A    between atoms: C_11  and  N_13
REMARK    6  A    between atoms: C_21  and  O_22
REMARK                            x       y       z     vdW  Elec       q    Type
REMARK                         _______ _______ _______ _____ _____    ______ ____
ROOT
ATOM      1  C   UNL     1       2.655   6.889  18.891  0.00  0.00    +0.000 C 
ATOM      2  C   UNL     1       2.065   6.159  17.681  0.00  0.00    +0.000 C 
ATOM      3  C   UNL     1       2.747   4.855  17.784  0.00  0.00    +0.000 C 
ATOM      4  N   UNL     1       3.888   4.506  17.287  0.00  0.00    +0.000 NA
ATOM      5  C   UNL     1       2.198   4.116  18.914  0.00  0.00    +0.000 A 
ATOM      6  C   UNL     1       1.587   2.871  18.850  0.00  0.00    +0.000 A 
ATOM      7  C   UNL     1       1.234   2.256  20.052  0.00  0.00    +0.000 A 
ATOM      8  C   UNL     1       1.594   2.854  21.262  0.00  0.00    +0.000 A 
ATOM      9  C   UNL     1       2.140   4.138  21.302  0.00  0.00    +0.000 A 
ATOM     10  C   UNL     1       2.342   4.819  20.114  0.00  0.00    +0.000 A 
ATOM     11  O   UNL     1       2.560   6.180  20.157  0.00  0.00    +0.000 OA
ENDROOT
BRANCH   1  15
ATOM     12  C   UNL     1       0.999  10.846  19.258  0.00  0.00    +0.000 A 
ATOM     13  C   UNL     1       1.658  10.494  18.085  0.00  0.00    +0.000 A 
ATOM     14  C   UNL     1       2.142   9.194  17.937  0.00  0.00    +0.000 A 
ATOM     15  C   UNL     1       1.994   8.251  18.968  0.00  0.00    +0.000 A 
ATOM     16  C   UNL     1       1.324   8.628  20.140  0.00  0.00    +0.000 A 
ATOM     17  C   UNL     1       0.826   9.923  20.280  0.00  0.00    +0.000 A 
BRANCH  12  18
ATOM     18  O   UNL     1       0.501  12.101  19.444  0.00  0.00    +0.000 OA
ATOM     19  H   UNL     1       0.853  12.678  18.746  0.00  0.00    +0.000 HD
ENDBRANCH  12  18
ENDBRANCH   1  15
BRANCH   4  20
ATOM     20  N   UNL     1       4.609   5.447  16.586  0.00  0.00    +0.000 N 
ATOM     21  H   UNL     1       4.360   6.417  16.697  0.00  0.00    +0.000 HD
BRANCH  20  22
ATOM     22  C   UNL     1       5.923   5.181  16.178  0.00  0.00    +0.000 C 
ATOM     23  S   UNL     1       6.284   4.392  14.731  0.00  0.00    +0.000 S 
BRANCH  22  24
ATOM     24  N   UNL     1       6.915   5.616  17.064  0.00  0.00    +0.000 N 
ATOM     25  C   UNL     1       7.671   4.809  18.022  0.00  0.00    +0.000 C 
ATOM     26  C   UNL     1       7.855   5.748  19.198  0.00  0.00    +0.000 C 
ATOM     27  C   UNL     1       8.089   7.096  18.531  0.00  0.00    +0.000 C 
ATOM     28  C   UNL     1       7.277   7.022  17.238  0.00  0.00    +0.000 C 
ENDBRANCH  22  24
ENDBRANCH  20  22
ENDBRANCH   4  20
BRANCH   8  29
ATOM     29  O   UNL     1       1.392   2.210  22.448  0.00  0.00    +0.000 OA
ATOM     30  H   UNL     1       0.437   2.174  22.625  0.00  0.00    +0.000 HD
ENDBRANCH   8  29
TORSDOF 6
ENDMDL
MODEL 2
REMARK VINA RESULT:      -8.3      1.440      2.467
REMARK  Name = 
REMARK  6 active torsions:
REMARK  status: ('A' for Active; 'I' for Inactive)
REMARK    1  A    between atoms: O_1  and  C_2
REMARK    2  A    between atoms: C_5  and  C_6
REMARK    3  A    between atoms: N_9  and  N_10
REMARK    4  A    between atoms: N_10  and  C_11
REMARK    5  A    between atoms: C_11  and  N_13
REMARK    6  A    between atoms: C_21  and  O_22
REMARK                            x       y       z     vdW  Elec       q    Type
REMARK                         _______ _______ _______ _____ _____    ______ ____
ROOT
ATOM      1  C   UNL     1       2.780   6.731  18.942  0.00  0.00    +0.000 C 
ATOM      2  C   UNL     1       2.192   6.023  17.718  0.00  0.00    +0.000 C 
ATOM      3  C   UNL     1       2.829   4.697  17.832  0.00  0.00    +0.000 C 
ATOM      4  N   UNL     1       3.969   4.313  17.358  0.00  0.00    +0.000 NA
ATOM      5  C   UNL     1       2.232   3.975  18.947  0.00  0.00    +0.000 A 
ATOM      6  C   UNL     1       1.583   2.750  18.867  0.00  0.00    +0.000 A 
ATOM      7  C   UNL     1       1.184   2.145  20.059  0.00  0.00    +0.000 A 
ATOM      8  C   UNL     1       1.537   2.728  21.278  0.00  0.00    +0.000 A 
ATOM      9  C   UNL     1       2.124   3.994  21.333  0.00  0.00    +0.000 A 
ATOM     10  C   UNL     1       2.373   4.669  20.152  0.00  0.00    +0.000 A 
ATOM     11  O   UNL     1       2.634   6.023  20.203  0.00  0.00    +0.000 OA
ENDROOT
BRANCH   1  15
ATOM     12  C   UNL     1       0.798  10.553  18.997  0.00  0.00    +0.000 A 
ATOM     13  C   UNL     1       0.757   9.753  20.134  0.00  0.00    +0.000 A 
ATOM     14  C   UNL     1       1.450   8.542  20.142  0.00  0.00    +0.000 A 
ATOM     15  C   UNL     1       2.161   8.114  19.008  0.00  0.00    +0.000 A 
ATOM     16  C   UNL     1       2.190   8.939  17.875  0.00  0.00    +0.000 A 
ATOM     17  C   UNL     1       1.512  10.157  17.875  0.00  0.00    +0.000 A 
BRANCH  12  18
ATOM     18  O   UNL     1       0.145  11.748  18.947  0.00  0.00    +0.000 OA
ATOM     19  H   UNL     1      -0.632  11.650  18.372  0.00  0.00    +0.000 HD
ENDBRANCH  12  18
ENDBRANCH   1  15
BRANCH   4  20
ATOM     20  N   UNL     1       4.735   5.232  16.675  0.00  0.00    +0.000 N 
ATOM     21  H   UNL     1       4.548   6.210  16.822  0.00  0.00    +0.000 HD
BRANCH  20  22
ATOM     22  C   UNL     1       6.022   4.900  16.234  0.00  0.00    +0.000 C 
ATOM     23  S   UNL     1       7.319   4.682  17.291  0.00  0.00    +0.000 S 
BRANCH  22  24
ATOM     24  N   UNL     1       6.154   4.766  14.847  0.00  0.00    +0.000 N 
ATOM     25  C   UNL     1       5.210   4.145  13.917  0.00  0.00    +0.000 C 
ATOM     26  C   UNL     1       6.114   3.494  12.888  0.00  0.00    +0.000 C 
ATOM     27  C   UNL     1       7.245   4.502  12.735  0.00  0.00    +0.000 C 
ATOM     28  C   UNL     1       7.357   5.153  14.112  0.00  0.00    +0.000 C 
ENDBRANCH  22  24
ENDBRANCH  20  22
ENDBRANCH   4  20
BRANCH   8  29
ATOM     29  O   UNL     1       1.290   2.088  22.457  0.00  0.00    +0.000 OA
ATOM     30  H   UNL     1       0.673   2.626  22.982  0.00  0.00    +0.000 HD
ENDBRANCH   8  29
TORSDOF 6
ENDMDL
MODEL 3
REMARK VINA RESULT:      -8.0      1.349      2.185
REMARK  Name = 
REMARK  6 active torsions:
REMARK  status: ('A' for Active; 'I' for Inactive)
REMARK    1  A    between atoms: O_1  and  C_2
REMARK    2  A    between atoms: C_5  and  C_6
REMARK    3  A    between atoms: N_9  and  N_10
REMARK    4  A    between atoms: N_10  and  C_11
REMARK    5  A    between atoms: C_11  and  N_13
REMARK    6  A    between atoms: C_21  and  O_22
REMARK                            x       y       z     vdW  Elec       q    Type
REMARK                         _______ _______ _______ _____ _____    ______ ____
ROOT
ATOM      1  C   UNL     1       2.553   7.102  19.031  0.00  0.00    +0.000 C 
ATOM      2  C   UNL     1       2.025   6.400  17.777  0.00  0.00    +0.000 C 
ATOM      3  C   UNL     1       2.758   5.122  17.845  0.00  0.00    +0.000 C 
ATOM      4  N   UNL     1       3.924   4.841  17.364  0.00  0.00    +0.000 NA
ATOM      5  C   UNL     1       2.212   4.315  18.929  0.00  0.00    +0.000 A 
ATOM      6  C   UNL     1       1.656   3.049  18.798  0.00  0.00    +0.000 A 
ATOM      7  C   UNL     1       1.299   2.371  19.964  0.00  0.00    +0.000 A 
ATOM      8  C   UNL     1       1.603   2.932  21.207  0.00  0.00    +0.000 A 
ATOM      9  C   UNL     1       2.094   4.234  21.313  0.00  0.00    +0.000 A 
ATOM     10  C   UNL     1       2.297   4.971  20.160  0.00  0.00    +0.000 A 
ATOM     11  O   UNL     1       2.456   6.338  20.264  0.00  0.00    +0.000 OA
ENDROOT
BRANCH   1  15
ATOM     12  C   UNL     1       0.736  10.978  19.492  0.00  0.00    +0.000 A 
ATOM     13  C   UNL     1       1.340  10.653  18.282  0.00  0.00    +0.000 A 
ATOM     14  C   UNL     1       1.875   9.377  18.106  0.00  0.00    +0.000 A 
ATOM     15  C   UNL     1       1.834   8.432  19.146  0.00  0.00    +0.000 A 
ATOM     16  C   UNL     1       1.218   8.781  20.356  0.00  0.00    +0.000 A 
ATOM     17  C   UNL     1       0.668  10.052  20.523  0.00  0.00    +0.000 A 
BRANCH  12  18
ATOM     18  O   UNL     1       0.191  12.209  19.706  0.00  0.00    +0.000 OA
ATOM     19  H   UNL     1       0.398  12.773  18.943  0.00  0.00    +0.000 HD
ENDBRANCH  12  18
ENDBRANCH   1  15
BRANCH   4  20
ATOM     20  N   UNL     1       4.622   5.839  16.722  0.00  0.00    +0.000 N 
ATOM     21  H   UNL     1       4.254   6.776  16.756  0.00  0.00    +0.000 HD
BRANCH  20  22
ATOM     22  C   UNL     1       6.000   5.717  16.500  0.00  0.00    +0.000 C 
ATOM     23  S   UNL     1       7.152   6.405  17.523  0.00  0.00    +0.000 S 
BRANCH  22  24
ATOM     24  N   UNL     1       6.351   4.984  15.361  0.00  0.00    +0.000 N 
ATOM     25  C   UNL     1       7.592   5.071  14.590  0.00  0.00    +0.000 C 
ATOM     26  C   UNL     1       7.131   4.840  13.163  0.00  0.00    +0.000 C 
ATOM     27  C   UNL     1       6.052   3.779  13.316  0.00  0.00    +0.000 C 
ATOM     28  C   UNL     1       5.440   4.059  14.688  0.00  0.00    +0.000 C 
ENDBRANCH  22  24
ENDBRANCH  20  22
ENDBRANCH   4  20
BRANCH   8  29
ATOM     29  O   UNL     1       1.400   2.230  22.359  0.00  0.00    +0.000 OA
ATOM     30  H   UNL     1       0.710   2.677  22.879  0.00  0.00    +0.000 HD
ENDBRANCH   8  29
TORSDOF 6
ENDMDL
MODEL 4
REMARK VINA RESULT:      -7.8      1.533      2.384
REMARK  Name = 
REMARK  6 active torsions:
REMARK  status: ('A' for Active; 'I' for Inactive)
REMARK    1  A    between atoms: O_1  and  C_2
REMARK    2  A    between atoms: C_5  and  C_6
REMARK    3  A    between atoms: N_9  and  N_10
REMARK    4  A    between atoms: N_10  and  C_11
REMARK    5  A    between atoms: C_11  and  N_13
REMARK    6  A    between atoms: C_21  and  O_22
REMARK                            x       y       z     vdW  Elec       q    Type
REMARK                         _______ _______ _______ _____ _____    ______ ____
ROOT
ATOM      1  C   UNL     1       2.352   7.403  19.559  0.00  0.00    +0.000 C 
ATOM      2  C   UNL     1       2.163   6.776  18.175  0.00  0.00    +0.000 C 
ATOM      3  C   UNL     1       3.046   5.599  18.280  0.00  0.00    +0.000 C 
ATOM      4  N   UNL     1       4.308   5.518  18.013  0.00  0.00    +0.000 NA
ATOM      5  C   UNL     1       2.434   4.621  19.170  0.00  0.00    +0.000 A 
ATOM      6  C   UNL     1       2.096   3.317  18.835  0.00  0.00    +0.000 A 
ATOM      7  C   UNL     1       1.635   2.481  19.852  0.00  0.00    +0.000 A 
ATOM      8  C   UNL     1       1.627   2.942  21.171  0.00  0.00    +0.000 A 
ATOM      9  C   UNL     1       1.901   4.277  21.473  0.00  0.00    +0.000 A 
ATOM     10  C   UNL     1       2.202   5.150  20.444  0.00  0.00    +0.000 A 
ATOM     11  O   UNL     1       2.144   6.507  20.685  0.00  0.00    +0.000 OA
ENDROOT
BRANCH   1  15
ATOM     12  C   UNL     1      -0.437  10.681  19.673  0.00  0.00    +0.000 A 
ATOM     13  C   UNL     1      -0.210   9.944  20.831  0.00  0.00    +0.000 A 
ATOM     14  C   UNL     1       0.738   8.922  20.815  0.00  0.00    +0.000 A 
ATOM     15  C   UNL     1       1.442   8.613  19.639  0.00  0.00    +0.000 A 
ATOM     16  C   UNL     1       1.199   9.372  18.485  0.00  0.00    +0.000 A 
ATOM     17  C   UNL     1       0.263  10.405  18.507  0.00  0.00    +0.000 A 
BRANCH  12  18
ATOM     18  O   UNL     1      -1.346  11.696  19.644  0.00  0.00    +0.000 OA
ATOM     19  H   UNL     1      -1.426  12.063  20.540  0.00  0.00    +0.000 HD
ENDBRANCH  12  18
ENDBRANCH   1  15
BRANCH   4  20
ATOM     20  N   UNL     1       4.962   6.657  17.599  0.00  0.00    +0.000 N 
ATOM     21  H   UNL     1       4.729   7.529  18.047  0.00  0.00    +0.000 HD
BRANCH  20  22
ATOM     22  C   UNL     1       6.228   6.577  17.004  0.00  0.00    +0.000 C 
ATOM     23  S   UNL     1       7.585   7.349  17.645  0.00  0.00    +0.000 S 
BRANCH  22  24
ATOM     24  N   UNL     1       6.283   5.811  15.835  0.00  0.00    +0.000 N 
ATOM     25  C   UNL     1       5.307   5.776  14.744  0.00  0.00    +0.000 C 
ATOM     26  C   UNL     1       5.337   4.327  14.299  0.00  0.00    +0.000 C 
ATOM     27  C   UNL     1       6.809   3.959  14.415  0.00  0.00    +0.000 C 
ATOM     28  C   UNL     1       7.320   4.814  15.575  0.00  0.00    +0.000 C 
ENDBRANCH  22  24
ENDBRANCH  20  22
ENDBRANCH   4  20
BRANCH   8  29
ATOM     29  O   UNL     1       1.321   2.103  22.203  0.00  0.00    +0.000 OA
ATOM     30  H   UNL     1       0.551   1.566  21.950  0.00  0.00    +0.000 HD
ENDBRANCH   8  29
TORSDOF 6
ENDMDL
MODEL 5
REMARK VINA RESULT:      -7.5      2.831      5.447
REMARK  Name = 
REMARK  6 active torsions:
REMARK  status: ('A' for Active; 'I' for Inactive)
REMARK    1  A    between atoms: O_1  and  C_2
REMARK    2  A    between atoms: C_5  and  C_6
REMARK    3  A    between atoms: N_9  and  N_10
REMARK    4  A    between atoms: N_10  and  C_11
REMARK    5  A    between atoms: C_11  and  N_13
REMARK    6  A    between atoms: C_21  and  O_22
REMARK                            x       y       z     vdW  Elec       q    Type
REMARK                         _______ _______ _______ _____ _____    ______ ____
ROOT
ATOM      1  C   UNL     1       3.689   5.658  18.258  0.00  0.00    +0.000 C 
ATOM      2  C   UNL     1       5.064   5.943  18.869  0.00  0.00    +0.000 C 
ATOM      3  C   UNL     1       5.799   4.724  18.479  0.00  0.00    +0.000 C 
ATOM      4  N   UNL     1       5.881   3.602  19.115  0.00  0.00    +0.000 NA
ATOM      5  C   UNL     1       6.062   4.762  17.047  0.00  0.00    +0.000 A 
ATOM      6  C   UNL     1       7.315   4.722  16.450  0.00  0.00    +0.000 A 
ATOM      7  C   UNL     1       7.371   4.640  15.058  0.00  0.00    +0.000 A 
ATOM      8  C   UNL     1       6.188   4.496  14.329  0.00  0.00    +0.000 A 
ATOM      9  C   UNL     1       4.940   4.612  14.943  0.00  0.00    +0.000 A 
ATOM     10  C   UNL     1       4.881   4.858  16.303  0.00  0.00    +0.000 A 
ATOM     11  O   UNL     1       3.694   5.299  16.849  0.00  0.00    +0.000 OA
ENDROOT
BRANCH   1  15
ATOM     12  C   UNL     1       1.430   9.220  19.122  0.00  0.00    +0.000 A 
ATOM     13  C   UNL     1       1.983   9.060  17.856  0.00  0.00    +0.000 A 
ATOM     14  C   UNL     1       2.662   7.880  17.552  0.00  0.00    +0.000 A 
ATOM     15  C   UNL     1       2.816   6.870  18.517  0.00  0.00    +0.000 A 
ATOM     16  C   UNL     1       2.248   7.053  19.785  0.00  0.00    +0.000 A 
ATOM     17  C   UNL     1       1.554   8.225  20.083  0.00  0.00    +0.000 A 
BRANCH  12  18
ATOM     18  O   UNL     1       0.749  10.351  19.462  0.00  0.00    +0.000 OA
ATOM     19  H   UNL     1      -0.202  10.165  19.407  0.00  0.00    +0.000 HD
ENDBRANCH  12  18
ENDBRANCH   1  15
BRANCH   4  20
ATOM     20  N   UNL     1       5.190   3.470  20.298  0.00  0.00    +0.000 N 
ATOM     21  H   UNL     1       4.946   4.307  20.803  0.00  0.00    +0.000 HD
BRANCH  20  22
ATOM     22  C   UNL     1       4.397   2.340  20.539  0.00  0.00    +0.000 C 
ATOM     23  S   UNL     1       5.046   0.858  21.020  0.00  0.00    +0.000 S 
BRANCH  22  24
ATOM     24  N   UNL     1       3.024   2.532  20.347  0.00  0.00    +0.000 N 
ATOM     25  C   UNL     1       2.204   2.054  19.233  0.00  0.00    +0.000 C 
ATOM     26  C   UNL     1       1.197   3.172  19.040  0.00  0.00    +0.000 C 
ATOM     27  C   UNL     1       0.895   3.616  20.464  0.00  0.00    +0.000 C 
ATOM     28  C   UNL     1       2.199   3.364  21.221  0.00  0.00    +0.000 C 
ENDBRANCH  22  24
ENDBRANCH  20  22
ENDBRANCH   4  20
BRANCH   8  29
ATOM     29  O   UNL     1       6.219   4.267  12.984  0.00  0.00    +0.000 OA
ATOM     30  H   UNL     1       6.819   3.522  12.808  0.00  0.00    +0.000 HD
ENDBRANCH   8  29
TORSDOF 6
ENDMDL
MODEL 6
REMARK VINA RESULT:      -7.2      1.544      2.234
REMARK  Name = 
REMARK  6 active torsions:
REMARK  status: ('A' for Active; 'I' for Inactive)
REMARK    1  A    between atoms: O_1  and  C_2
REMARK    2  A    between atoms: C_5  and  C_6
REMARK    3  A    between atoms: N_9  and  N_10
REMARK    4  A    between atoms: N_10  and  C_11
REMARK    5  A    between atoms: C_11  and  N_13
REMARK    6  A    between atoms: C_21  and  O_22
REMARK                            x       y       z     vdW  Elec       q    Type
REMARK                         _______ _______ _______ _____ _____    ______ ____
ROOT
ATOM      1  C   UNL     1       2.579   7.313  19.313  0.00  0.00    +0.000 C 
ATOM      2  C   UNL     1       2.949   6.929  17.878  0.00  0.00    +0.000 C 
ATOM      3  C   UNL     1       3.580   5.614  18.096  0.00  0.00    +0.000 C 
ATOM      4  N   UNL     1       4.819   5.354  18.357  0.00  0.00    +0.000 NA
ATOM      5  C   UNL     1       2.552   4.642  18.441  0.00  0.00    +0.000 A 
ATOM      6  C   UNL     1       2.268   3.476  17.742  0.00  0.00    +0.000 A 
ATOM      7  C   UNL     1       1.333   2.598  18.291  0.00  0.00    +0.000 A 
ATOM      8  C   UNL     1       0.800   2.864  19.555  0.00  0.00    +0.000 A 
ATOM      9  C   UNL     1       1.043   4.075  20.205  0.00  0.00    +0.000 A 
ATOM     10  C   UNL     1       1.843   5.019  19.586  0.00  0.00    +0.000 A 
ATOM     11  O   UNL     1       1.818   6.318  20.050  0.00  0.00    +0.000 OA
ENDROOT
BRANCH   1  15
ATOM     12  C   UNL     1       0.711  11.192  19.296  0.00  0.00    +0.000 A 
ATOM     13  C   UNL     1       1.423  10.779  18.175  0.00  0.00    +0.000 A 
ATOM     14  C   UNL     1       1.977   9.499  18.151  0.00  0.00    +0.000 A 
ATOM     15  C   UNL     1       1.846   8.639  19.255  0.00  0.00    +0.000 A 
ATOM     16  C   UNL     1       1.122   9.077  20.373  0.00  0.00    +0.000 A 
ATOM     17  C   UNL     1       0.554  10.350  20.388  0.00  0.00    +0.000 A 
BRANCH  12  18
ATOM     18  O   UNL     1       0.144  12.430  19.360  0.00  0.00    +0.000 OA
ATOM     19  H   UNL     1       0.081  12.786  18.459  0.00  0.00    +0.000 HD
ENDBRANCH  12  18
ENDBRANCH   1  15
BRANCH   4  20
ATOM     20  N   UNL     1       5.694   6.410  18.484  0.00  0.00    +0.000 N 
ATOM     21  H   UNL     1       5.951   6.706  19.412  0.00  0.00    +0.000 HD
BRANCH  20  22
ATOM     22  C   UNL     1       6.597   6.716  17.458  0.00  0.00    +0.000 C 
ATOM     23  S   UNL     1       7.726   7.965  17.580  0.00  0.00    +0.000 S 
BRANCH  22  24
ATOM     24  N   UNL     1       6.491   5.910  16.319  0.00  0.00    +0.000 N 
ATOM     25  C   UNL     1       5.577   6.079  15.188  0.00  0.00    +0.000 C 
ATOM     26  C   UNL     1       5.244   4.653  14.795  0.00  0.00    +0.000 C 
ATOM     27  C   UNL     1       6.565   3.922  14.990  0.00  0.00    +0.000 C 
ATOM     28  C   UNL     1       7.240   4.667  16.140  0.00  0.00    +0.000 C 
ENDBRANCH  22  24
ENDBRANCH  20  22
ENDBRANCH   4  20
BRANCH   8  29
ATOM     29  O   UNL     1      -0.003   1.954  20.180  0.00  0.00    +0.000 OA
ATOM     30  H   UNL     1      -0.874   1.958  19.749  0.00  0.00    +0.000 HD
ENDBRANCH   8  29
TORSDOF 6
ENDMDL
MODEL 7
REMARK VINA RESULT:      -7.0      1.652      2.554
REMARK  Name = 
REMARK  6 active torsions:
REMARK  status: ('A' for Active; 'I' for Inactive)
REMARK    1  A    between atoms: O_1  and  C_2
REMARK    2  A    between atoms: C_5  and  C_6
REMARK    3  A    between atoms: N_9  and  N_10
REMARK    4  A    between atoms: N_10  and  C_11
REMARK    5  A    between atoms: C_11  and  N_13
REMARK    6  A    between atoms: C_21  and  O_22
REMARK                            x       y       z     vdW  Elec       q    Type
REMARK                         _______ _______ _______ _____ _____    ______ ____
ROOT
ATOM      1  C   UNL     1       2.925   6.668  19.312  0.00  0.00    +0.000 C 
ATOM      2  C   UNL     1       3.365   6.454  17.861  0.00  0.00    +0.000 C 
ATOM      3  C   UNL     1       4.074   5.165  17.973  0.00  0.00    +0.000 C 
ATOM      4  N   UNL     1       5.318   4.958  18.256  0.00  0.00    +0.000 NA
ATOM      5  C   UNL     1       3.101   4.101  18.182  0.00  0.00    +0.000 A 
ATOM      6  C   UNL     1       2.918   2.996  17.361  0.00  0.00    +0.000 A 
ATOM      7  C   UNL     1       2.025   2.011  17.784  0.00  0.00    +0.000 A 
ATOM      8  C   UNL     1       1.434   2.115  19.046  0.00  0.00    +0.000 A 
ATOM      9  C   UNL     1       1.577   3.267  19.821  0.00  0.00    +0.000 A 
ATOM     10  C   UNL     1       2.332   4.317  19.330  0.00  0.00    +0.000 A 
ATOM     11  O   UNL     1       2.207   5.558  19.917  0.00  0.00    +0.000 OA
ENDROOT
BRANCH   1  15
ATOM     12  C   UNL     1       0.390  10.148  19.332  0.00  0.00    +0.000 A 
ATOM     13  C   UNL     1       0.572   9.437  20.514  0.00  0.00    +0.000 A 
ATOM     14  C   UNL     1       1.442   8.345  20.526  0.00  0.00    +0.000 A 
ATOM     15  C   UNL     1       2.109   7.945  19.356  0.00  0.00    +0.000 A 
ATOM     16  C   UNL     1       1.912   8.680  18.178  0.00  0.00    +0.000 A 
ATOM     17  C   UNL     1       1.056   9.780  18.172  0.00  0.00    +0.000 A 
BRANCH  12  18
ATOM     18  O   UNL     1      -0.441  11.227  19.275  0.00  0.00    +0.000 OA
ATOM     19  H   UNL     1      -0.594  11.447  18.341  0.00  0.00    +0.000 HD
ENDBRANCH  12  18
ENDBRANCH   1  15
BRANCH   4  20
ATOM     20  N   UNL     1       6.118   6.047  18.520  0.00  0.00    +0.000 N 
ATOM     21  H   UNL     1       6.475   6.161  19.455  0.00  0.00    +0.000 HD
BRANCH  20  22
ATOM     22  C   UNL     1       6.846   6.664  17.494  0.00  0.00    +0.000 C 
ATOM     23  S   UNL     1       7.790   8.040  17.747  0.00  0.00    +0.000 S 
BRANCH  22  24
ATOM     24  N   UNL     1       6.728   6.056  16.240  0.00  0.00    +0.000 N 
ATOM     25  C   UNL     1       5.755   6.358  15.189  0.00  0.00    +0.000 C 
ATOM     26  C   UNL     1       5.478   5.001  14.572  0.00  0.00    +0.000 C 
ATOM     27  C   UNL     1       6.842   4.327  14.590  0.00  0.00    +0.000 C 
ATOM     28  C   UNL     1       7.531   4.906  15.825  0.00  0.00    +0.000 C 
ENDBRANCH  22  24
ENDBRANCH  20  22
ENDBRANCH   4  20
BRANCH   8  29
ATOM     29  O   UNL     1       0.673   1.099  19.547  0.00  0.00    +0.000 OA
ATOM     30  H   UNL     1       1.172   0.653  20.252  0.00  0.00    +0.000 HD
ENDBRANCH   8  29
TORSDOF 6
ENDMDL
MODEL 8
REMARK VINA RESULT:      -7.0      5.835      9.479
REMARK  Name = 
REMARK  6 active torsions:
REMARK  status: ('A' for Active; 'I' for Inactive)
REMARK    1  A    between atoms: O_1  and  C_2
REMARK    2  A    between atoms: C_5  and  C_6
REMARK    3  A    between atoms: N_9  and  N_10
REMARK    4  A    between atoms: N_10  and  C_11
REMARK    5  A    between atoms: C_11  and  N_13
REMARK    6  A    between atoms: C_21  and  O_22
REMARK                            x       y       z     vdW  Elec       q    Type
REMARK                         _______ _______ _______ _____ _____    ______ ____
ROOT
ATOM      1  C   UNL     1       0.100  10.579  18.823  0.00  0.00    +0.000 C 
ATOM      2  C   UNL     1      -0.882  10.786  19.979  0.00  0.00    +0.000 C 
ATOM      3  C   UNL     1      -1.696  11.899  19.455  0.00  0.00    +0.000 C 
ATOM      4  N   UNL     1      -1.483  13.169  19.568  0.00  0.00    +0.000 NA
ATOM      5  C   UNL     1      -2.550  11.404  18.383  0.00  0.00    +0.000 A 
ATOM      6  C   UNL     1      -3.937  11.457  18.359  0.00  0.00    +0.000 A 
ATOM      7  C   UNL     1      -4.585  11.049  17.193  0.00  0.00    +0.000 A 
ATOM      8  C   UNL     1      -3.827  10.707  16.069  0.00  0.00    +0.000 A 
ATOM      9  C   UNL     1      -2.438  10.590  16.140  0.00  0.00    +0.000 A 
ATOM     10  C   UNL     1      -1.804  10.837  17.345  0.00  0.00    +0.000 A 
ATOM     11  O   UNL     1      -0.504  10.409  17.512  0.00  0.00    +0.000 OA
ENDROOT
BRANCH   1  15
ATOM     12  C   UNL     1       2.386   7.064  19.803  0.00  0.00    +0.000 A 
ATOM     13  C   UNL     1       2.479   7.596  18.522  0.00  0.00    +0.000 A 
ATOM     14  C   UNL     1       1.789   8.770  18.218  0.00  0.00    +0.000 A 
ATOM     15  C   UNL     1       0.984   9.400  19.182  0.00  0.00    +0.000 A 
ATOM     16  C   UNL     1       0.908   8.846  20.468  0.00  0.00    +0.000 A 
ATOM     17  C   UNL     1       1.612   7.683  20.775  0.00  0.00    +0.000 A 
BRANCH  12  18
ATOM     18  O   UNL     1       3.049   5.925  20.149  0.00  0.00    +0.000 OA
ATOM     19  H   UNL     1       2.454   5.169  20.014  0.00  0.00    +0.000 HD
ENDBRANCH  12  18
ENDBRANCH   1  15
BRANCH   4  20
ATOM     20  N   UNL     1      -0.348  13.583  20.229  0.00  0.00    +0.000 N 
ATOM     21  H   UNL     1       0.507  13.661  19.703  0.00  0.00    +0.000 HD
BRANCH  20  22
ATOM     22  C   UNL     1      -0.443  14.364  21.388  0.00  0.00    +0.000 C 
ATOM     23  S   UNL     1       0.442  15.784  21.605  0.00  0.00    +0.000 S 
BRANCH  22  24
ATOM     24  N   UNL     1      -1.327  13.875  22.357  0.00  0.00    +0.000 N 
ATOM     25  C   UNL     1      -1.239  12.610  23.088  0.00  0.00    +0.000 C 
ATOM     26  C   UNL     1      -2.690  12.197  23.242  0.00  0.00    +0.000 C 
ATOM     27  C   UNL     1      -3.401  13.519  23.494  0.00  0.00    +0.000 C 
ATOM     28  C   UNL     1      -2.576  14.544  22.717  0.00  0.00    +0.000 C 
ENDBRANCH  22  24
ENDBRANCH  20  22
ENDBRANCH   4  20
BRANCH   8  29
ATOM     29  O   UNL     1      -4.430  10.445  14.873  0.00  0.00    +0.000 OA
ATOM     30  H   UNL     1      -3.848  10.752  14.157  0.00  0.00    +0.000 HD
ENDBRANCH   8  29
TORSDOF 6
ENDMDL
MODEL 9
REMARK VINA RESULT:      -6.9      5.518      9.090
REMARK  Name = 
REMARK  6 active torsions:
REMARK  status: ('A' for Active; 'I' for Inactive)
REMARK    1  A    between atoms: O_1  and  C_2
REMARK    2  A    between atoms: C_5  and  C_6
REMARK    3  A    between atoms: N_9  and  N_10
REMARK    4  A    between atoms: N_10  and  C_11
REMARK    5  A    between atoms: C_11  and  N_13
REMARK    6  A    between atoms: C_21  and  O_22
REMARK                            x       y       z     vdW  Elec       q    Type
REMARK                         _______ _______ _______ _____ _____    ______ ____
ROOT
ATOM      1  C   UNL     1       0.231  10.515  18.736  0.00  0.00    +0.000 C 
ATOM      2  C   UNL     1      -0.681  10.869  19.914  0.00  0.00    +0.000 C 
ATOM      3  C   UNL     1      -1.460  11.982  19.338  0.00  0.00    +0.000 C 
ATOM      4  N   UNL     1      -1.174  13.242  19.336  0.00  0.00    +0.000 NA
ATOM      5  C   UNL     1      -2.390  11.452  18.350  0.00  0.00    +0.000 A 
ATOM      6  C   UNL     1      -3.772  11.583  18.384  0.00  0.00    +0.000 A 
ATOM      7  C   UNL     1      -4.497  11.121  17.285  0.00  0.00    +0.000 A 
ATOM      8  C   UNL     1      -3.816  10.647  16.161  0.00  0.00    +0.000 A 
ATOM      9  C   UNL     1      -2.433  10.458  16.178  0.00  0.00    +0.000 A 
ATOM     10  C   UNL     1      -1.728  10.763  17.329  0.00  0.00    +0.000 A 
ATOM     11  O   UNL     1      -0.446  10.276  17.472  0.00  0.00    +0.000 OA
ENDROOT
BRANCH   1  15
ATOM     12  C   UNL     1       2.376   6.962  19.879  0.00  0.00    +0.000 A 
ATOM     13  C   UNL     1       2.502   7.439  18.578  0.00  0.00    +0.000 A 
ATOM     14  C   UNL     1       1.858   8.625  18.221  0.00  0.00    +0.000 A 
ATOM     15  C   UNL     1       1.067   9.321  19.151  0.00  0.00    +0.000 A 
ATOM     16  C   UNL     1       0.958   8.821  20.456  0.00  0.00    +0.000 A 
ATOM     17  C   UNL     1       1.616   7.646  20.817  0.00  0.00    +0.000 A 
BRANCH  12  18
ATOM     18  O   UNL     1       2.995   5.814  20.276  0.00  0.00    +0.000 OA
ATOM     19  H   UNL     1       3.783   5.682  19.724  0.00  0.00    +0.000 HD
ENDBRANCH  12  18
ENDBRANCH   1  15
BRANCH   4  20
ATOM     20  N   UNL     1       0.013  13.643  19.909  0.00  0.00    +0.000 N 
ATOM     21  H   UNL     1       0.332  13.158  20.731  0.00  0.00    +0.000 HD
BRANCH  20  22
ATOM     22  C   UNL     1       0.992  14.289  19.144  0.00  0.00    +0.000 C 
ATOM     23  S   UNL     1       2.360  13.494  18.557  0.00  0.00    +0.000 S 
BRANCH  22  24
ATOM     24  N   UNL     1       0.754  15.647  18.905  0.00  0.00    +0.000 N 
ATOM     25  C   UNL     1      -0.500  16.379  19.091  0.00  0.00    +0.000 C 
ATOM     26  C   UNL     1      -0.487  17.385  17.956  0.00  0.00    +0.000 C 
ATOM     27  C   UNL     1       0.977  17.794  17.874  0.00  0.00    +0.000 C 
ATOM     28  C   UNL     1       1.742  16.545  18.309  0.00  0.00    +0.000 C 
ENDBRANCH  22  24
ENDBRANCH  20  22
ENDBRANCH   4  20
BRANCH   8  29
ATOM     29  O   UNL     1      -4.490  10.326  15.019  0.00  0.00    +0.000 OA
ATOM     30  H   UNL     1      -5.388  10.041  15.256  0.00  0.00    +0.000 HD
ENDBRANCH   8  29
TORSDOF 6
ENDMDL
