MODEL 1
REMARK VINA RESULT:      -7.9      0.000      0.000
REMARK  Name = 
REMARK  4 active torsions:
REMARK  status: ('A' for Active; 'I' for Inactive)
REMARK    1  A    between atoms: C_1  and  C_2
REMARK    2  A    between atoms: C_3  and  C_4
REMARK    3  A    between atoms: C_12  and  N_13
REMARK    4  A    between atoms: N_17  and  C_18
REMARK                            x       y       z     vdW  Elec       q    Type
REMARK                         _______ _______ _______ _____ _____    ______ ____
ROOT
ATOM      1  C   UNL     1       1.837   6.979  20.759  0.00  0.00    +0.000 C 
ATOM      2  C   UNL     1       1.822   7.977  19.664  0.00  0.00    +0.000 A 
ATOM      3  C   UNL     1       2.425   7.946  18.407  0.00  0.00    +0.000 A 
ATOM      4  C   UNL     1       1.949   9.132  17.794  0.00  0.00    +0.000 A 
ATOM      5  N   UNL     1       1.087   9.819  18.561  0.00  0.00    +0.000 NA
ATOM      6  N   UNL     1       1.075   9.162  19.748  0.00  0.00    +0.000 N 
ENDROOT
BRANCH   3   7
ATOM      7  C   UNL     1       3.350   6.922  17.809  0.00  0.00    +0.000 A 
ATOM      8  N   UNL     1       4.594   7.301  17.315  0.00  0.00    +0.000 NA
ATOM      9  C   UNL     1       5.186   6.191  16.904  0.00  0.00    +0.000 A 
ATOM     10  C   UNL     1       6.524   5.893  16.508  0.00  0.00    +0.000 A 
ATOM     11  C   UNL     1       6.873   4.604  16.424  0.00  0.00    +0.000 A 
ATOM     12  C   UNL     1       5.926   3.618  16.027  0.00  0.00    +0.000 A 
ATOM     13  C   UNL     1       4.660   3.803  16.442  0.00  0.00    +0.000 A 
ATOM     14  N   UNL     1       4.329   5.084  16.989  0.00  0.00    +0.000 N 
ATOM     15  C   UNL     1       3.217   5.544  17.678  0.00  0.00    +0.000 A 
BRANCH  15  16
ATOM     16  N   UNL     1       2.156   4.784  18.184  0.00  0.00    +0.000 NA
ATOM     17  O   UNL     1       1.312   4.421  17.356  0.00  0.00    +0.000 OA
ENDBRANCH  15  16
ENDBRANCH   3   7
BRANCH   6  18
ATOM     18  C   UNL     1       0.371   9.715  20.871  0.00  0.00    +0.000 A 
ATOM     19  C   UNL     1      -0.408  10.927  20.758  0.00  0.00    +0.000 A 
ATOM     20  C   UNL     1      -1.125  11.428  21.861  0.00  0.00    +0.000 A 
ATOM     21  C   UNL     1      -1.054  10.786  23.097  0.00  0.00    +0.000 A 
ATOM     22  C   UNL     1      -0.267   9.628  23.226  0.00  0.00    +0.000 A 
ATOM     23  C   UNL     1       0.445   9.142  22.132  0.00  0.00    +0.000 A 
ENDBRANCH   6  18
TORSDOF 3
ENDMDL
MODEL 2
REMARK VINA RESULT:      -7.8      0.949      1.872
REMARK  Name = 
REMARK  4 active torsions:
REMARK  status: ('A' for Active; 'I' for Inactive)
REMARK    1  A    between atoms: C_1  and  C_2
REMARK    2  A    between atoms: C_3  and  C_4
REMARK    3  A    between atoms: C_12  and  N_13
REMARK    4  A    between atoms: N_17  and  C_18
REMARK                            x       y       z     vdW  Elec       q    Type
REMARK                         _______ _______ _______ _____ _____    ______ ____
ROOT
ATOM      1  C   UNL     1       2.063   9.470  17.748  0.00  0.00    +0.000 C 
ATOM      2  C   UNL     1       1.901   8.523  18.877  0.00  0.00    +0.000 A 
ATOM      3  C   UNL     1       2.486   7.277  19.100  0.00  0.00    +0.000 A 
ATOM      4  C   UNL     1       2.019   6.931  20.393  0.00  0.00    +0.000 A 
ATOM      5  N   UNL     1       1.260   7.884  20.957  0.00  0.00    +0.000 NA
ATOM      6  N   UNL     1       1.108   8.828  19.994  0.00  0.00    +0.000 N 
ENDROOT
BRANCH   3   7
ATOM      7  C   UNL     1       3.398   6.471  18.217  0.00  0.00    +0.000 A 
ATOM      8  N   UNL     1       4.587   7.020  17.747  0.00  0.00    +0.000 NA
ATOM      9  C   UNL     1       5.185   6.070  17.047  0.00  0.00    +0.000 A 
ATOM     10  C   UNL     1       6.500   5.944  16.505  0.00  0.00    +0.000 A 
ATOM     11  C   UNL     1       6.887   4.731  16.096  0.00  0.00    +0.000 A 
ATOM     12  C   UNL     1       5.949   3.817  15.538  0.00  0.00    +0.000 A 
ATOM     13  C   UNL     1       4.712   3.832  16.068  0.00  0.00    +0.000 A 
ATOM     14  N   UNL     1       4.378   4.931  16.923  0.00  0.00    +0.000 N 
ATOM     15  C   UNL     1       3.306   5.157  17.772  0.00  0.00    +0.000 A 
BRANCH  15  16
ATOM     16  N   UNL     1       2.314   4.245  18.152  0.00  0.00    +0.000 NA
ATOM     17  O   UNL     1       1.325   4.187  17.412  0.00  0.00    +0.000 OA
ENDBRANCH  15  16
ENDBRANCH   3   7
BRANCH   6  18
ATOM     18  C   UNL     1       0.214   9.933  20.201  0.00  0.00    +0.000 A 
ATOM     19  C   UNL     1       0.268  10.739  21.399  0.00  0.00    +0.000 A 
ATOM     20  C   UNL     1      -0.589  11.844  21.561  0.00  0.00    +0.000 A 
ATOM     21  C   UNL     1      -1.539  12.147  20.588  0.00  0.00    +0.000 A 
ATOM     22  C   UNL     1      -1.625  11.344  19.437  0.00  0.00    +0.000 A 
ATOM     23  C   UNL     1      -0.778  10.249  19.285  0.00  0.00    +0.000 A 
ENDBRANCH   6  18
TORSDOF 3
ENDMDL
MODEL 3
REMARK VINA RESULT:      -7.8      1.012      1.749
REMARK  Name = 
REMARK  4 active torsions:
REMARK  status: ('A' for Active; 'I' for Inactive)
REMARK    1  A    between atoms: C_1  and  C_2
REMARK    2  A    between atoms: C_3  and  C_4
REMARK    3  A    between atoms: C_12  and  N_13
REMARK    4  A    between atoms: N_17  and  C_18
REMARK                            x       y       z     vdW  Elec       q    Type
REMARK                         _______ _______ _______ _____ _____    ______ ____
ROOT
ATOM      1  C   UNL     1       2.111   9.529  17.730  0.00  0.00    +0.000 C 
ATOM      2  C   UNL     1       1.918   8.582  18.854  0.00  0.00    +0.000 A 
ATOM      3  C   UNL     1       2.477   7.325  19.081  0.00  0.00    +0.000 A 
ATOM      4  C   UNL     1       1.988   6.985  20.367  0.00  0.00    +0.000 A 
ATOM      5  N   UNL     1       1.239   7.950  20.924  0.00  0.00    +0.000 NA
ATOM      6  N   UNL     1       1.116   8.898  19.962  0.00  0.00    +0.000 N 
ENDROOT
BRANCH   3   7
ATOM      7  C   UNL     1       3.387   6.506  18.209  0.00  0.00    +0.000 A 
ATOM      8  N   UNL     1       4.580   7.044  17.736  0.00  0.00    +0.000 NA
ATOM      9  C   UNL     1       5.174   6.084  17.046  0.00  0.00    +0.000 A 
ATOM     10  C   UNL     1       6.489   5.944  16.508  0.00  0.00    +0.000 A 
ATOM     11  C   UNL     1       6.870   4.725  16.112  0.00  0.00    +0.000 A 
ATOM     12  C   UNL     1       5.928   3.811  15.561  0.00  0.00    +0.000 A 
ATOM     13  C   UNL     1       4.690   3.839  16.088  0.00  0.00    +0.000 A 
ATOM     14  N   UNL     1       4.361   4.947  16.932  0.00  0.00    +0.000 N 
ATOM     15  C   UNL     1       3.288   5.188  17.776  0.00  0.00    +0.000 A 
BRANCH  15  16
ATOM     16  N   UNL     1       2.291   4.286  18.163  0.00  0.00    +0.000 NA
ATOM     17  O   UNL     1       1.355   4.144  17.366  0.00  0.00    +0.000 OA
ENDBRANCH  15  16
ENDBRANCH   3   7
BRANCH   6  18
ATOM     18  C   UNL     1       0.239  10.018  20.160  0.00  0.00    +0.000 A 
ATOM     19  C   UNL     1      -0.829  10.319  19.235  0.00  0.00    +0.000 A 
ATOM     20  C   UNL     1      -1.704  11.397  19.471  0.00  0.00    +0.000 A 
ATOM     21  C   UNL     1      -1.521  12.222  20.580  0.00  0.00    +0.000 A 
ATOM     22  C   UNL     1      -0.460  11.959  21.465  0.00  0.00    +0.000 A 
ATOM     23  C   UNL     1       0.406  10.896  21.221  0.00  0.00    +0.000 A 
ENDBRANCH   6  18
TORSDOF 3
ENDMDL
MODEL 4
REMARK VINA RESULT:      -7.7      2.340      7.954
REMARK  Name = 
REMARK  4 active torsions:
REMARK  status: ('A' for Active; 'I' for Inactive)
REMARK    1  A    between atoms: C_1  and  C_2
REMARK    2  A    between atoms: C_3  and  C_4
REMARK    3  A    between atoms: C_12  and  N_13
REMARK    4  A    between atoms: N_17  and  C_18
REMARK                            x       y       z     vdW  Elec       q    Type
REMARK                         _______ _______ _______ _____ _____    ______ ____
ROOT
ATOM      1  C   UNL     1       2.675   8.393  17.848  0.00  0.00    +0.000 C 
ATOM      2  C   UNL     1       2.321   7.631  19.070  0.00  0.00    +0.000 A 
ATOM      3  C   UNL     1       1.482   7.969  20.132  0.00  0.00    +0.000 A 
ATOM      4  C   UNL     1       1.473   6.791  20.920  0.00  0.00    +0.000 A 
ATOM      5  N   UNL     1       2.188   5.788  20.385  0.00  0.00    +0.000 NA
ATOM      6  N   UNL     1       2.787   6.326  19.294  0.00  0.00    +0.000 N 
ENDROOT
BRANCH   3   7
ATOM      7  C   UNL     1       0.744   9.251  20.404  0.00  0.00    +0.000 A 
ATOM      8  N   UNL     1      -0.061   9.820  19.423  0.00  0.00    +0.000 NA
ATOM      9  C   UNL     1      -0.605  10.897  19.966  0.00  0.00    +0.000 A 
ATOM     10  C   UNL     1      -1.662  11.765  19.556  0.00  0.00    +0.000 A 
ATOM     11  C   UNL     1      -2.169  12.599  20.470  0.00  0.00    +0.000 A 
ATOM     12  C   UNL     1      -1.344  13.147  21.493  0.00  0.00    +0.000 A 
ATOM     13  C   UNL     1      -0.380  12.344  21.979  0.00  0.00    +0.000 A 
ATOM     14  N   UNL     1      -0.094  11.146  21.248  0.00  0.00    +0.000 N 
ATOM     15  C   UNL     1       0.664  10.027  21.555  0.00  0.00    +0.000 A 
BRANCH  15  16
ATOM     16  N   UNL     1       1.234   9.698  22.791  0.00  0.00    +0.000 NA
ATOM     17  O   UNL     1       0.454   9.668  23.751  0.00  0.00    +0.000 OA
ENDBRANCH  15  16
ENDBRANCH   3   7
BRANCH   6  18
ATOM     18  C   UNL     1       3.762   5.570  18.559  0.00  0.00    +0.000 A 
ATOM     19  C   UNL     1       3.390   4.735  17.439  0.00  0.00    +0.000 A 
ATOM     20  C   UNL     1       4.368   4.037  16.706  0.00  0.00    +0.000 A 
ATOM     21  C   UNL     1       5.709   4.101  17.082  0.00  0.00    +0.000 A 
ATOM     22  C   UNL     1       6.075   4.881  18.194  0.00  0.00    +0.000 A 
ATOM     23  C   UNL     1       5.101   5.564  18.918  0.00  0.00    +0.000 A 
ENDBRANCH   6  18
TORSDOF 3
ENDMDL
MODEL 5
REMARK VINA RESULT:      -7.7      2.561      7.890
REMARK  Name = 
REMARK  4 active torsions:
REMARK  status: ('A' for Active; 'I' for Inactive)
REMARK    1  A    between atoms: C_1  and  C_2
REMARK    2  A    between atoms: C_3  and  C_4
REMARK    3  A    between atoms: C_12  and  N_13
REMARK    4  A    between atoms: N_17  and  C_18
REMARK                            x       y       z     vdW  Elec       q    Type
REMARK                         _______ _______ _______ _____ _____    ______ ____
ROOT
ATOM      1  C   UNL     1       1.397   7.016  20.840  0.00  0.00    +0.000 C 
ATOM      2  C   UNL     1       1.737   7.766  19.607  0.00  0.00    +0.000 A 
ATOM      3  C   UNL     1       1.415   9.068  19.225  0.00  0.00    +0.000 A 
ATOM      4  C   UNL     1       2.118   9.227  18.005  0.00  0.00    +0.000 A 
ATOM      5  N   UNL     1       2.856   8.156  17.672  0.00  0.00    +0.000 NA
ATOM      6  N   UNL     1       2.555   7.218  18.606  0.00  0.00    +0.000 N 
ENDROOT
BRANCH   3   7
ATOM      7  C   UNL     1       0.549  10.086  19.915  0.00  0.00    +0.000 A 
ATOM      8  N   UNL     1      -0.493  10.701  19.230  0.00  0.00    +0.000 NA
ATOM      9  C   UNL     1      -1.091  11.499  20.100  0.00  0.00    +0.000 A 
ATOM     10  C   UNL     1      -2.324  12.219  20.071  0.00  0.00    +0.000 A 
ATOM     11  C   UNL     1      -2.785  12.705  21.228  0.00  0.00    +0.000 A 
ATOM     12  C   UNL     1      -1.887  13.149  22.241  0.00  0.00    +0.000 A 
ATOM     13  C   UNL     1      -0.742  12.454  22.371  0.00  0.00    +0.000 A 
ATOM     14  N   UNL     1      -0.409  11.536  21.324  0.00  0.00    +0.000 N 
ATOM     15  C   UNL     1       0.554  10.543  21.228  0.00  0.00    +0.000 A 
BRANCH  15  16
ATOM     16  N   UNL     1       1.374  10.051  22.250  0.00  0.00    +0.000 NA
ATOM     17  O   UNL     1       0.790   9.680  23.276  0.00  0.00    +0.000 OA
ENDBRANCH  15  16
ENDBRANCH   3   7
BRANCH   6  18
ATOM     18  C   UNL     1       3.051   5.878  18.469  0.00  0.00    +0.000 A 
ATOM     19  C   UNL     1       2.270   4.839  17.836  0.00  0.00    +0.000 A 
ATOM     20  C   UNL     1       2.793   3.543  17.674  0.00  0.00    +0.000 A 
ATOM     21  C   UNL     1       4.058   3.227  18.168  0.00  0.00    +0.000 A 
ATOM     22  C   UNL     1       4.809   4.221  18.820  0.00  0.00    +0.000 A 
ATOM     23  C   UNL     1       4.283   5.500  18.983  0.00  0.00    +0.000 A 
ENDBRANCH   6  18
TORSDOF 3
ENDMDL
MODEL 6
REMARK VINA RESULT:      -7.7      2.575      7.915
REMARK  Name = 
REMARK  4 active torsions:
REMARK  status: ('A' for Active; 'I' for Inactive)
REMARK    1  A    between atoms: C_1  and  C_2
REMARK    2  A    between atoms: C_3  and  C_4
REMARK    3  A    between atoms: C_12  and  N_13
REMARK    4  A    between atoms: N_17  and  C_18
REMARK                            x       y       z     vdW  Elec       q    Type
REMARK                         _______ _______ _______ _____ _____    ______ ____
ROOT
ATOM      1  C   UNL     1       1.396   7.025  20.862  0.00  0.00    +0.000 C 
ATOM      2  C   UNL     1       1.738   7.773  19.629  0.00  0.00    +0.000 A 
ATOM      3  C   UNL     1       1.416   9.074  19.244  0.00  0.00    +0.000 A 
ATOM      4  C   UNL     1       2.123   9.232  18.026  0.00  0.00    +0.000 A 
ATOM      5  N   UNL     1       2.863   8.161  17.698  0.00  0.00    +0.000 NA
ATOM      6  N   UNL     1       2.561   7.225  18.632  0.00  0.00    +0.000 N 
ENDROOT
BRANCH   3   7
ATOM      7  C   UNL     1       0.546  10.091  19.929  0.00  0.00    +0.000 A 
ATOM      8  N   UNL     1      -0.495  10.704  19.238  0.00  0.00    +0.000 NA
ATOM      9  C   UNL     1      -1.098  11.502  20.105  0.00  0.00    +0.000 A 
ATOM     10  C   UNL     1      -2.331  12.220  20.070  0.00  0.00    +0.000 A 
ATOM     11  C   UNL     1      -2.797  12.708  21.225  0.00  0.00    +0.000 A 
ATOM     12  C   UNL     1      -1.904  13.155  22.240  0.00  0.00    +0.000 A 
ATOM     13  C   UNL     1      -0.759  12.462  22.375  0.00  0.00    +0.000 A 
ATOM     14  N   UNL     1      -0.420  11.543  21.331  0.00  0.00    +0.000 N 
ATOM     15  C   UNL     1       0.545  10.551  21.241  0.00  0.00    +0.000 A 
BRANCH  15  16
ATOM     16  N   UNL     1       1.362  10.063  22.267  0.00  0.00    +0.000 NA
ATOM     17  O   UNL     1       0.775   9.695  23.292  0.00  0.00    +0.000 OA
ENDBRANCH  15  16
ENDBRANCH   3   7
BRANCH   6  18
ATOM     18  C   UNL     1       3.060   5.885  18.500  0.00  0.00    +0.000 A 
ATOM     19  C   UNL     1       4.367   5.509  18.989  0.00  0.00    +0.000 A 
ATOM     20  C   UNL     1       4.818   4.180  18.888  0.00  0.00    +0.000 A 
ATOM     21  C   UNL     1       4.029   3.213  18.267  0.00  0.00    +0.000 A 
ATOM     22  C   UNL     1       2.772   3.579  17.753  0.00  0.00    +0.000 A 
ATOM     23  C   UNL     1       2.334   4.897  17.851  0.00  0.00    +0.000 A 
ENDBRANCH   6  18
TORSDOF 3
ENDMDL
MODEL 7
REMARK VINA RESULT:      -7.6      2.267      8.000
REMARK  Name = 
REMARK  4 active torsions:
REMARK  status: ('A' for Active; 'I' for Inactive)
REMARK    1  A    between atoms: C_1  and  C_2
REMARK    2  A    between atoms: C_3  and  C_4
REMARK    3  A    between atoms: C_12  and  N_13
REMARK    4  A    between atoms: N_17  and  C_18
REMARK                            x       y       z     vdW  Elec       q    Type
REMARK                         _______ _______ _______ _____ _____    ______ ____
ROOT
ATOM      1  C   UNL     1       2.374   8.628  17.588  0.00  0.00    +0.000 C 
ATOM      2  C   UNL     1       2.181   7.852  18.836  0.00  0.00    +0.000 A 
ATOM      3  C   UNL     1       1.448   8.156  19.983  0.00  0.00    +0.000 A 
ATOM      4  C   UNL     1       1.568   6.978  20.761  0.00  0.00    +0.000 A 
ATOM      5  N   UNL     1       2.260   6.004  20.149  0.00  0.00    +0.000 NA
ATOM      6  N   UNL     1       2.718   6.566  19.003  0.00  0.00    +0.000 N 
ENDROOT
BRANCH   3   7
ATOM      7  C   UNL     1       0.694   9.408  20.339  0.00  0.00    +0.000 A 
ATOM      8  N   UNL     1      -0.137  10.017  19.405  0.00  0.00    +0.000 NA
ATOM      9  C   UNL     1      -0.689  11.053  20.016  0.00  0.00    +0.000 A 
ATOM     10  C   UNL     1      -1.766  11.924  19.672  0.00  0.00    +0.000 A 
ATOM     11  C   UNL     1      -2.271  12.697  20.640  0.00  0.00    +0.000 A 
ATOM     12  C   UNL     1      -1.437  13.201  21.678  0.00  0.00    +0.000 A 
ATOM     13  C   UNL     1      -0.452  12.389  22.102  0.00  0.00    +0.000 A 
ATOM     14  N   UNL     1      -0.160  11.239  21.301  0.00  0.00    +0.000 N 
ATOM     15  C   UNL     1       0.622  10.117  21.533  0.00  0.00    +0.000 A 
BRANCH  15  16
ATOM     16  N   UNL     1       1.218   9.729  22.738  0.00  0.00    +0.000 NA
ATOM     17  O   UNL     1       0.457   9.645  23.710  0.00  0.00    +0.000 OA
ENDBRANCH  15  16
ENDBRANCH   3   7
BRANCH   6  18
ATOM     18  C   UNL     1       3.638   5.849  18.164  0.00  0.00    +0.000 A 
ATOM     19  C   UNL     1       4.942   6.381  17.840  0.00  0.00    +0.000 A 
ATOM     20  C   UNL     1       5.845   5.642  17.052  0.00  0.00    +0.000 A 
ATOM     21  C   UNL     1       5.473   4.404  16.529  0.00  0.00    +0.000 A 
ATOM     22  C   UNL     1       4.191   3.897  16.808  0.00  0.00    +0.000 A 
ATOM     23  C   UNL     1       3.301   4.636  17.583  0.00  0.00    +0.000 A 
ENDBRANCH   6  18
TORSDOF 3
ENDMDL
MODEL 8
REMARK VINA RESULT:      -7.5      2.480      3.846
REMARK  Name = 
REMARK  4 active torsions:
REMARK  status: ('A' for Active; 'I' for Inactive)
REMARK    1  A    between atoms: C_1  and  C_2
REMARK    2  A    between atoms: C_3  and  C_4
REMARK    3  A    between atoms: C_12  and  N_13
REMARK    4  A    between atoms: N_17  and  C_18
REMARK                            x       y       z     vdW  Elec       q    Type
REMARK                         _______ _______ _______ _____ _____    ______ ____
ROOT
ATOM      1  C   UNL     1       1.736   8.753  17.813  0.00  0.00    +0.000 C 
ATOM      2  C   UNL     1       1.507   8.729  19.278  0.00  0.00    +0.000 A 
ATOM      3  C   UNL     1       1.707   7.707  20.205  0.00  0.00    +0.000 A 
ATOM      4  C   UNL     1       1.413   8.335  21.441  0.00  0.00    +0.000 A 
ATOM      5  N   UNL     1       1.111   9.637  21.318  0.00  0.00    +0.000 NA
ATOM      6  N   UNL     1       1.078   9.865  19.982  0.00  0.00    +0.000 N 
ENDROOT
BRANCH   3   7
ATOM      7  C   UNL     1       2.136   6.282  19.988  0.00  0.00    +0.000 A 
ATOM      8  N   UNL     1       1.350   5.233  20.452  0.00  0.00    +0.000 NA
ATOM      9  C   UNL     1       1.956   4.118  20.076  0.00  0.00    +0.000 A 
ATOM     10  C   UNL     1       1.552   2.749  20.061  0.00  0.00    +0.000 A 
ATOM     11  C   UNL     1       2.290   1.893  19.347  0.00  0.00    +0.000 A 
ATOM     12  C   UNL     1       3.696   2.075  19.219  0.00  0.00    +0.000 A 
ATOM     13  C   UNL     1       4.130   3.346  19.144  0.00  0.00    +0.000 A 
ATOM     14  N   UNL     1       3.196   4.379  19.477  0.00  0.00    +0.000 N 
ATOM     15  C   UNL     1       3.236   5.756  19.320  0.00  0.00    +0.000 A 
BRANCH  15  16
ATOM     16  N   UNL     1       4.178   6.504  18.604  0.00  0.00    +0.000 NA
ATOM     17  O   UNL     1       4.179   6.336  17.379  0.00  0.00    +0.000 OA
ENDBRANCH  15  16
ENDBRANCH   3   7
BRANCH   6  18
ATOM     18  C   UNL     1       0.629  11.133  19.477  0.00  0.00    +0.000 A 
ATOM     19  C   UNL     1       1.548  12.221  19.231  0.00  0.00    +0.000 A 
ATOM     20  C   UNL     1       1.093  13.440  18.695  0.00  0.00    +0.000 A 
ATOM     21  C   UNL     1      -0.264  13.633  18.439  0.00  0.00    +0.000 A 
ATOM     22  C   UNL     1      -1.170  12.593  18.711  0.00  0.00    +0.000 A 
ATOM     23  C   UNL     1      -0.714  11.392  19.247  0.00  0.00    +0.000 A 
ENDBRANCH   6  18
TORSDOF 3
ENDMDL
MODEL 9
REMARK VINA RESULT:      -7.5      2.477      3.828
REMARK  Name = 
REMARK  4 active torsions:
REMARK  status: ('A' for Active; 'I' for Inactive)
REMARK    1  A    between atoms: C_1  and  C_2
REMARK    2  A    between atoms: C_3  and  C_4
REMARK    3  A    between atoms: C_12  and  N_13
REMARK    4  A    between atoms: N_17  and  C_18
REMARK                            x       y       z     vdW  Elec       q    Type
REMARK                         _______ _______ _______ _____ _____    ______ ____
ROOT
ATOM      1  C   UNL     1       1.732   8.743  17.791  0.00  0.00    +0.000 C 
ATOM      2  C   UNL     1       1.509   8.724  19.256  0.00  0.00    +0.000 A 
ATOM      3  C   UNL     1       1.710   7.704  20.186  0.00  0.00    +0.000 A 
ATOM      4  C   UNL     1       1.422   8.337  21.421  0.00  0.00    +0.000 A 
ATOM      5  N   UNL     1       1.122   9.639  21.295  0.00  0.00    +0.000 NA
ATOM      6  N   UNL     1       1.084   9.863  19.958  0.00  0.00    +0.000 N 
ENDROOT
BRANCH   3   7
ATOM      7  C   UNL     1       2.136   6.278  19.972  0.00  0.00    +0.000 A 
ATOM      8  N   UNL     1       1.362   5.232  20.463  0.00  0.00    +0.000 NA
ATOM      9  C   UNL     1       1.961   4.115  20.083  0.00  0.00    +0.000 A 
ATOM     10  C   UNL     1       1.558   2.745  20.089  0.00  0.00    +0.000 A 
ATOM     11  C   UNL     1       2.281   1.884  19.366  0.00  0.00    +0.000 A 
ATOM     12  C   UNL     1       3.684   2.066  19.206  0.00  0.00    +0.000 A 
ATOM     13  C   UNL     1       4.115   3.337  19.110  0.00  0.00    +0.000 A 
ATOM     14  N   UNL     1       3.187   4.372  19.454  0.00  0.00    +0.000 N 
ATOM     15  C   UNL     1       3.222   5.747  19.284  0.00  0.00    +0.000 A 
BRANCH  15  16
ATOM     16  N   UNL     1       4.147   6.490  18.541  0.00  0.00    +0.000 NA
ATOM     17  O   UNL     1       4.119   6.313  17.317  0.00  0.00    +0.000 OA
ENDBRANCH  15  16
ENDBRANCH   3   7
BRANCH   6  18
ATOM     18  C   UNL     1       0.636  11.130  19.450  0.00  0.00    +0.000 A 
ATOM     19  C   UNL     1      -0.716  11.322  18.977  0.00  0.00    +0.000 A 
ATOM     20  C   UNL     1      -1.147  12.583  18.524  0.00  0.00    +0.000 A 
ATOM     21  C   UNL     1      -0.258  13.656  18.478  0.00  0.00    +0.000 A 
ATOM     22  C   UNL     1       1.070  13.467  18.900  0.00  0.00    +0.000 A 
ATOM     23  C   UNL     1       1.491  12.216  19.341  0.00  0.00    +0.000 A 
ENDBRANCH   6  18
TORSDOF 3
ENDMDL
