MODEL 1
REMARK VINA RESULT:      -8.7      0.000      0.000
REMARK  Name = 
REMARK  8 active torsions:
REMARK  status: ('A' for Active; 'I' for Inactive)
REMARK    1  A    between atoms: C_1  and  C_2
REMARK    2  A    between atoms: C_4  and  C_5
REMARK    3  A    between atoms: N_6  and  C_7
REMARK    4  A    between atoms: C_7  and  C_8
REMARK    5  A    between atoms: C_8  and  C_9
REMARK    6  A    between atoms: C_9  and  N_10
REMARK    7  A    between atoms: C_17  and  C_18
REMARK    8  A    between atoms: C_21  and  C_22
REMARK                            x       y       z     vdW  Elec       q    Type
REMARK                         _______ _______ _______ _____ _____    ______ ____
ROOT
ATOM      1  N   UNL     1       4.399   4.000  17.174  0.00  0.00    +0.000 N 
ATOM      2  C   UNL     1       3.234   3.316  17.399  0.00  0.00    +0.000 C 
ATOM      3  O   UNL     1       2.577   2.827  16.476  0.00  0.00    +0.000 OA
ATOM      4  N   UNL     1       2.806   3.271  18.710  0.00  0.00    +0.000 N 
ATOM      5  C   UNL     1       1.622   2.466  19.026  0.00  0.00    +0.000 C 
ATOM      6  C   UNL     1       0.652   3.220  19.929  0.00  0.00    +0.000 C 
ATOM      7  C   UNL     1       1.356   3.734  21.184  0.00  0.00    +0.000 C 
ATOM      8  C   UNL     1       2.600   4.555  20.834  0.00  0.00    +0.000 C 
ATOM      9  C   UNL     1       3.525   3.808  19.871  0.00  0.00    +0.000 C 
ATOM     10  H   UNL     1       5.111   3.852  17.874  0.00  0.00    +0.000 HD
ENDROOT
BRANCH   8  11
ATOM     11  C   UNL     1       2.200   5.923  20.365  0.00  0.00    +0.000 A 
ATOM     12  N   UNL     1       1.429   6.717  21.073  0.00  0.00    +0.000 NA
ATOM     13  C   UNL     1       1.324   7.874  20.349  0.00  0.00    +0.000 A 
ATOM     14  C   UNL     1       0.699   9.078  20.714  0.00  0.00    +0.000 A 
ATOM     15  C   UNL     1      -0.120   9.208  21.957  0.00  0.00    +0.000 C 
ATOM     16  C   UNL     1       0.873  10.168  19.844  0.00  0.00    +0.000 A 
ATOM     17  C   UNL     1       1.459  10.004  18.584  0.00  0.00    +0.000 A 
ATOM     18  C   UNL     1       1.989   8.775  18.173  0.00  0.00    +0.000 A 
ATOM     19  C   UNL     1       1.971   7.754  19.125  0.00  0.00    +0.000 A 
ATOM     20  N   UNL     1       2.528   6.497  19.161  0.00  0.00    +0.000 N 
ATOM     21  H   UNL     1       3.123   6.091  18.452  0.00  0.00    +0.000 HD
ENDBRANCH   8  11
BRANCH   1  22
ATOM     22  C   UNL     1       4.901   4.159  15.821  0.00  0.00    +0.000 C 
BRANCH  22  23
ATOM     23  C   UNL     1       5.457   5.558  15.572  0.00  0.00    +0.000 C 
BRANCH  23  24
ATOM     24  C   UNL     1       6.974   5.579  15.706  0.00  0.00    +0.000 C 
BRANCH  24  30
ATOM     25  C   UNL     1       8.408   9.398  18.278  0.00  0.00    +0.000 C 
ATOM     26  C   UNL     1       8.028   8.018  17.929  0.00  0.00    +0.000 A 
ATOM     27  N   UNL     1       8.118   6.976  18.814  0.00  0.00    +0.000 NA
ATOM     28  C   UNL     1       7.714   5.938  18.110  0.00  0.00    +0.000 A 
ATOM     29  C   UNL     1       7.645   4.528  18.554  0.00  0.00    +0.000 C 
ATOM     30  N   UNL     1       7.389   6.364  16.849  0.00  0.00    +0.000 N 
ATOM     31  N   UNL     1       7.584   7.686  16.713  0.00  0.00    +0.000 NA
ENDBRANCH  24  30
ENDBRANCH  23  24
ENDBRANCH  22  23
ENDBRANCH   1  22
TORSDOF 5
ENDMDL
MODEL 2
REMARK VINA RESULT:      -8.7      0.540      1.604
REMARK  Name = 
REMARK  8 active torsions:
REMARK  status: ('A' for Active; 'I' for Inactive)
REMARK    1  A    between atoms: C_1  and  C_2
REMARK    2  A    between atoms: C_4  and  C_5
REMARK    3  A    between atoms: N_6  and  C_7
REMARK    4  A    between atoms: C_7  and  C_8
REMARK    5  A    between atoms: C_8  and  C_9
REMARK    6  A    between atoms: C_9  and  N_10
REMARK    7  A    between atoms: C_17  and  C_18
REMARK    8  A    between atoms: C_21  and  C_22
REMARK                            x       y       z     vdW  Elec       q    Type
REMARK                         _______ _______ _______ _____ _____    ______ ____
ROOT
ATOM      1  N   UNL     1       4.465   3.563  17.291  0.00  0.00    +0.000 N 
ATOM      2  C   UNL     1       3.263   2.934  17.478  0.00  0.00    +0.000 C 
ATOM      3  O   UNL     1       2.589   2.522  16.530  0.00  0.00    +0.000 OA
ATOM      4  N   UNL     1       2.821   2.855  18.783  0.00  0.00    +0.000 N 
ATOM      5  C   UNL     1       1.592   2.103  19.054  0.00  0.00    +0.000 C 
ATOM      6  C   UNL     1       0.656   2.868  19.983  0.00  0.00    +0.000 C 
ATOM      7  C   UNL     1       1.374   3.289  21.264  0.00  0.00    +0.000 C 
ATOM      8  C   UNL     1       2.664   4.055  20.959  0.00  0.00    +0.000 C 
ATOM      9  C   UNL     1       3.557   3.302  19.971  0.00  0.00    +0.000 C 
ATOM     10  H   UNL     1       5.161   3.347  17.989  0.00  0.00    +0.000 HD
ENDROOT
BRANCH   8  11
ATOM     11  C   UNL     1       2.343   5.462  20.548  0.00  0.00    +0.000 A 
ATOM     12  N   UNL     1       2.845   6.017  19.469  0.00  0.00    +0.000 NA
ATOM     13  C   UNL     1       2.297   7.270  19.406  0.00  0.00    +0.000 A 
ATOM     14  C   UNL     1       2.424   8.229  18.387  0.00  0.00    +0.000 A 
ATOM     15  C   UNL     1       3.363   8.052  17.238  0.00  0.00    +0.000 C 
ATOM     16  C   UNL     1       1.626   9.380  18.500  0.00  0.00    +0.000 A 
ATOM     17  C   UNL     1       0.904   9.649  19.668  0.00  0.00    +0.000 A 
ATOM     18  C   UNL     1       0.861   8.741  20.733  0.00  0.00    +0.000 A 
ATOM     19  C   UNL     1       1.510   7.524  20.524  0.00  0.00    +0.000 A 
ATOM     20  N   UNL     1       1.552   6.349  21.237  0.00  0.00    +0.000 N 
ATOM     21  H   UNL     1       1.043   6.153  22.089  0.00  0.00    +0.000 HD
ENDBRANCH   8  11
BRANCH   1  22
ATOM     22  C   UNL     1       4.988   3.753  15.950  0.00  0.00    +0.000 C 
BRANCH  22  23
ATOM     23  C   UNL     1       5.433   5.192  15.703  0.00  0.00    +0.000 C 
BRANCH  23  24
ATOM     24  C   UNL     1       6.948   5.322  15.795  0.00  0.00    +0.000 C 
BRANCH  24  30
ATOM     25  C   UNL     1       8.313   9.364  18.044  0.00  0.00    +0.000 C 
ATOM     26  C   UNL     1       7.943   7.957  17.813  0.00  0.00    +0.000 A 
ATOM     27  N   UNL     1       8.015   6.999  18.790  0.00  0.00    +0.000 NA
ATOM     28  C   UNL     1       7.629   5.900  18.173  0.00  0.00    +0.000 A 
ATOM     29  C   UNL     1       7.553   4.535  18.741  0.00  0.00    +0.000 C 
ATOM     30  N   UNL     1       7.334   6.209  16.872  0.00  0.00    +0.000 N 
ATOM     31  N   UNL     1       7.530   7.514  16.621  0.00  0.00    +0.000 NA
ENDBRANCH  24  30
ENDBRANCH  23  24
ENDBRANCH  22  23
ENDBRANCH   1  22
TORSDOF 5
ENDMDL
MODEL 3
REMARK VINA RESULT:      -8.2      0.803      1.296
REMARK  Name = 
REMARK  8 active torsions:
REMARK  status: ('A' for Active; 'I' for Inactive)
REMARK    1  A    between atoms: C_1  and  C_2
REMARK    2  A    between atoms: C_4  and  C_5
REMARK    3  A    between atoms: N_6  and  C_7
REMARK    4  A    between atoms: C_7  and  C_8
REMARK    5  A    between atoms: C_8  and  C_9
REMARK    6  A    between atoms: C_9  and  N_10
REMARK    7  A    between atoms: C_17  and  C_18
REMARK    8  A    between atoms: C_21  and  C_22
REMARK                            x       y       z     vdW  Elec       q    Type
REMARK                         _______ _______ _______ _____ _____    ______ ____
ROOT
ATOM      1  N   UNL     1       4.917   3.562  17.613  0.00  0.00    +0.000 N 
ATOM      2  C   UNL     1       3.708   2.923  17.685  0.00  0.00    +0.000 C 
ATOM      3  O   UNL     1       3.200   2.378  16.702  0.00  0.00    +0.000 OA
ATOM      4  N   UNL     1       3.064   2.991  18.904  0.00  0.00    +0.000 N 
ATOM      5  C   UNL     1       1.816   2.239  19.071  0.00  0.00    +0.000 C 
ATOM      6  C   UNL     1       0.734   3.082  19.737  0.00  0.00    +0.000 C 
ATOM      7  C   UNL     1       1.234   3.678  21.052  0.00  0.00    +0.000 C 
ATOM      8  C   UNL     1       2.547   4.442  20.860  0.00  0.00    +0.000 C 
ATOM      9  C   UNL     1       3.595   3.602  20.127  0.00  0.00    +0.000 C 
ATOM     10  H   UNL     1       5.495   3.455  18.433  0.00  0.00    +0.000 HD
ENDROOT
BRANCH   8  11
ATOM     11  C   UNL     1       2.280   5.777  20.231  0.00  0.00    +0.000 A 
ATOM     12  N   UNL     1       1.537   6.696  20.806  0.00  0.00    +0.000 NA
ATOM     13  C   UNL     1       1.559   7.773  19.962  0.00  0.00    +0.000 A 
ATOM     14  C   UNL     1       1.012   9.051  20.164  0.00  0.00    +0.000 A 
ATOM     15  C   UNL     1       0.142   9.371  21.337  0.00  0.00    +0.000 C 
ATOM     16  C   UNL     1       1.315  10.027  19.199  0.00  0.00    +0.000 A 
ATOM     17  C   UNL     1       1.951   9.688  18.000  0.00  0.00    +0.000 A 
ATOM     18  C   UNL     1       2.404   8.387  17.750  0.00  0.00    +0.000 A 
ATOM     19  C   UNL     1       2.258   7.477  18.798  0.00  0.00    +0.000 A 
ATOM     20  N   UNL     1       2.713   6.195  18.997  0.00  0.00    +0.000 N 
ATOM     21  H   UNL     1       3.311   5.673  18.369  0.00  0.00    +0.000 HD
ENDBRANCH   8  11
BRANCH   1  22
ATOM     22  C   UNL     1       5.646   3.604  16.357  0.00  0.00    +0.000 C 
BRANCH  22  23
ATOM     23  C   UNL     1       6.996   4.302  16.496  0.00  0.00    +0.000 C 
BRANCH  23  24
ATOM     24  C   UNL     1       7.127   4.979  17.854  0.00  0.00    +0.000 C 
BRANCH  24  30
ATOM     25  C   UNL     1       8.802   9.445  18.570  0.00  0.00    +0.000 C 
ATOM     26  C   UNL     1       7.988   8.329  18.058  0.00  0.00    +0.000 A 
ATOM     27  N   UNL     1       6.901   8.514  17.244  0.00  0.00    +0.000 NA
ATOM     28  C   UNL     1       6.456   7.291  17.042  0.00  0.00    +0.000 A 
ATOM     29  C   UNL     1       5.263   6.890  16.262  0.00  0.00    +0.000 C 
ATOM     30  N   UNL     1       7.265   6.413  17.714  0.00  0.00    +0.000 N 
ATOM     31  N   UNL     1       8.246   7.055  18.369  0.00  0.00    +0.000 NA
ENDBRANCH  24  30
ENDBRANCH  23  24
ENDBRANCH  22  23
ENDBRANCH   1  22
TORSDOF 5
ENDMDL
MODEL 4
REMARK VINA RESULT:      -8.2      1.357      2.585
REMARK  Name = 
REMARK  8 active torsions:
REMARK  status: ('A' for Active; 'I' for Inactive)
REMARK    1  A    between atoms: C_1  and  C_2
REMARK    2  A    between atoms: C_4  and  C_5
REMARK    3  A    between atoms: N_6  and  C_7
REMARK    4  A    between atoms: C_7  and  C_8
REMARK    5  A    between atoms: C_8  and  C_9
REMARK    6  A    between atoms: C_9  and  N_10
REMARK    7  A    between atoms: C_17  and  C_18
REMARK    8  A    between atoms: C_21  and  C_22
REMARK                            x       y       z     vdW  Elec       q    Type
REMARK                         _______ _______ _______ _____ _____    ______ ____
ROOT
ATOM      1  N   UNL     1       5.653   4.094  19.060  0.00  0.00    +0.000 N 
ATOM      2  C   UNL     1       4.639   3.373  18.487  0.00  0.00    +0.000 C 
ATOM      3  O   UNL     1       4.688   2.999  17.313  0.00  0.00    +0.000 OA
ATOM      4  N   UNL     1       3.532   3.157  19.283  0.00  0.00    +0.000 N 
ATOM      5  C   UNL     1       2.459   2.305  18.760  0.00  0.00    +0.000 C 
ATOM      6  C   UNL     1       1.085   2.925  18.984  0.00  0.00    +0.000 C 
ATOM      7  C   UNL     1       0.877   3.284  20.455  0.00  0.00    +0.000 C 
ATOM      8  C   UNL     1       2.017   4.158  20.987  0.00  0.00    +0.000 C 
ATOM      9  C   UNL     1       3.389   3.550  20.688  0.00  0.00    +0.000 C 
ATOM     10  H   UNL     1       5.832   3.867  20.026  0.00  0.00    +0.000 HD
ENDROOT
BRANCH   8  11
ATOM     11  C   UNL     1       1.852   5.569  20.507  0.00  0.00    +0.000 A 
ATOM     12  N   UNL     1       1.177   6.473  21.181  0.00  0.00    +0.000 NA
ATOM     13  C   UNL     1       1.283   7.631  20.459  0.00  0.00    +0.000 A 
ATOM     14  C   UNL     1       0.832   8.917  20.800  0.00  0.00    +0.000 A 
ATOM     15  C   UNL     1      -0.016   9.172  22.004  0.00  0.00    +0.000 C 
ATOM     16  C   UNL     1       1.209   9.966  19.944  0.00  0.00    +0.000 A 
ATOM     17  C   UNL     1       1.822   9.712  18.712  0.00  0.00    +0.000 A 
ATOM     18  C   UNL     1       2.178   8.415  18.321  0.00  0.00    +0.000 A 
ATOM     19  C   UNL     1       1.962   7.411  19.265  0.00  0.00    +0.000 A 
ATOM     20  N   UNL     1       2.319   6.084  19.322  0.00  0.00    +0.000 N 
ATOM     21  H   UNL     1       2.878   5.590  18.639  0.00  0.00    +0.000 HD
ENDBRANCH   8  11
BRANCH   1  22
ATOM     22  C   UNL     1       6.835   4.430  18.286  0.00  0.00    +0.000 C 
BRANCH  22  23
ATOM     23  C   UNL     1       7.302   5.861  18.537  0.00  0.00    +0.000 C 
BRANCH  23  24
ATOM     24  C   UNL     1       7.467   6.624  17.229  0.00  0.00    +0.000 C 
BRANCH  24  30
ATOM     25  C   UNL     1       6.892   4.046  13.194  0.00  0.00    +0.000 C 
ATOM     26  C   UNL     1       6.580   4.853  14.387  0.00  0.00    +0.000 A 
ATOM     27  N   UNL     1       5.313   5.283  14.683  0.00  0.00    +0.000 NA
ATOM     28  C   UNL     1       5.475   5.976  15.792  0.00  0.00    +0.000 A 
ATOM     29  C   UNL     1       4.436   6.713  16.545  0.00  0.00    +0.000 C 
ATOM     30  N   UNL     1       6.800   5.945  16.139  0.00  0.00    +0.000 N 
ATOM     31  N   UNL     1       7.522   5.236  15.255  0.00  0.00    +0.000 NA
ENDBRANCH  24  30
ENDBRANCH  23  24
ENDBRANCH  22  23
ENDBRANCH   1  22
TORSDOF 5
ENDMDL
MODEL 5
REMARK VINA RESULT:      -8.2      2.557      4.012
REMARK  Name = 
REMARK  8 active torsions:
REMARK  status: ('A' for Active; 'I' for Inactive)
REMARK    1  A    between atoms: C_1  and  C_2
REMARK    2  A    between atoms: C_4  and  C_5
REMARK    3  A    between atoms: N_6  and  C_7
REMARK    4  A    between atoms: C_7  and  C_8
REMARK    5  A    between atoms: C_8  and  C_9
REMARK    6  A    between atoms: C_9  and  N_10
REMARK    7  A    between atoms: C_17  and  C_18
REMARK    8  A    between atoms: C_21  and  C_22
REMARK                            x       y       z     vdW  Elec       q    Type
REMARK                         _______ _______ _______ _____ _____    ______ ____
ROOT
ATOM      1  N   UNL     1       6.930   6.930  17.903  0.00  0.00    +0.000 N 
ATOM      2  C   UNL     1       6.268   6.024  17.118  0.00  0.00    +0.000 C 
ATOM      3  O   UNL     1       6.424   5.985  15.894  0.00  0.00    +0.000 OA
ATOM      4  N   UNL     1       5.365   5.209  17.771  0.00  0.00    +0.000 N 
ATOM      5  C   UNL     1       4.704   4.151  17.000  0.00  0.00    +0.000 C 
ATOM      6  C   UNL     1       3.205   4.108  17.272  0.00  0.00    +0.000 C 
ATOM      7  C   UNL     1       2.920   4.001  18.769  0.00  0.00    +0.000 C 
ATOM      8  C   UNL     1       3.635   5.102  19.557  0.00  0.00    +0.000 C 
ATOM      9  C   UNL     1       5.125   5.173  19.217  0.00  0.00    +0.000 C 
ATOM     10  H   UNL     1       7.216   6.573  18.802  0.00  0.00    +0.000 HD
ENDROOT
BRANCH   8  11
ATOM     11  C   UNL     1       2.906   6.404  19.402  0.00  0.00    +0.000 A 
ATOM     12  N   UNL     1       2.080   6.868  20.313  0.00  0.00    +0.000 NA
ATOM     13  C   UNL     1       1.649   8.078  19.841  0.00  0.00    +0.000 A 
ATOM     14  C   UNL     1       0.839   9.028  20.486  0.00  0.00    +0.000 A 
ATOM     15  C   UNL     1       0.171   8.750  21.795  0.00  0.00    +0.000 C 
ATOM     16  C   UNL     1       0.674  10.262  19.836  0.00  0.00    +0.000 A 
ATOM     17  C   UNL     1       1.120  10.456  18.524  0.00  0.00    +0.000 A 
ATOM     18  C   UNL     1       1.838   9.470  17.837  0.00  0.00    +0.000 A 
ATOM     19  C   UNL     1       2.150   8.322  18.568  0.00  0.00    +0.000 A 
ATOM     20  N   UNL     1       2.955   7.238  18.311  0.00  0.00    +0.000 N 
ATOM     21  H   UNL     1       3.529   7.105  17.488  0.00  0.00    +0.000 HD
ENDBRANCH   8  11
BRANCH   1  22
ATOM     22  C   UNL     1       7.854   7.876  17.303  0.00  0.00    +0.000 C 
BRANCH  22  23
ATOM     23  C   UNL     1       8.402   8.873  18.321  0.00  0.00    +0.000 C 
BRANCH  23  24
ATOM     24  C   UNL     1       8.073  10.305  17.920  0.00  0.00    +0.000 C 
BRANCH  24  30
ATOM     25  C   UNL     1      12.224  11.851  19.825  0.00  0.00    +0.000 C 
ATOM     26  C   UNL     1      10.917  11.857  19.146  0.00  0.00    +0.000 A 
ATOM     27  N   UNL     1      10.290  13.009  18.749  0.00  0.00    +0.000 NA
ATOM     28  C   UNL     1       9.163  12.580  18.219  0.00  0.00    +0.000 A 
ATOM     29  C   UNL     1       8.067  13.402  17.659  0.00  0.00    +0.000 C 
ATOM     30  N   UNL     1       9.135  11.212  18.297  0.00  0.00    +0.000 N 
ATOM     31  N   UNL     1      10.242  10.732  18.887  0.00  0.00    +0.000 NA
ENDBRANCH  24  30
ENDBRANCH  23  24
ENDBRANCH  22  23
ENDBRANCH   1  22
TORSDOF 5
ENDMDL
MODEL 6
REMARK VINA RESULT:      -8.2      1.118      1.504
REMARK  Name = 
REMARK  8 active torsions:
REMARK  status: ('A' for Active; 'I' for Inactive)
REMARK    1  A    between atoms: C_1  and  C_2
REMARK    2  A    between atoms: C_4  and  C_5
REMARK    3  A    between atoms: N_6  and  C_7
REMARK    4  A    between atoms: C_7  and  C_8
REMARK    5  A    between atoms: C_8  and  C_9
REMARK    6  A    between atoms: C_9  and  N_10
REMARK    7  A    between atoms: C_17  and  C_18
REMARK    8  A    between atoms: C_21  and  C_22
REMARK                            x       y       z     vdW  Elec       q    Type
REMARK                         _______ _______ _______ _____ _____    ______ ____
ROOT
ATOM      1  N   UNL     1       4.236   3.728  16.893  0.00  0.00    +0.000 N 
ATOM      2  C   UNL     1       3.086   3.105  17.301  0.00  0.00    +0.000 C 
ATOM      3  O   UNL     1       2.318   2.566  16.500  0.00  0.00    +0.000 OA
ATOM      4  N   UNL     1       2.806   3.182  18.650  0.00  0.00    +0.000 N 
ATOM      5  C   UNL     1       1.645   2.447  19.160  0.00  0.00    +0.000 C 
ATOM      6  C   UNL     1       0.801   3.305  20.096  0.00  0.00    +0.000 C 
ATOM      7  C   UNL     1       1.653   3.895  21.219  0.00  0.00    +0.000 C 
ATOM      8  C   UNL     1       2.871   4.641  20.667  0.00  0.00    +0.000 C 
ATOM      9  C   UNL     1       3.663   3.787  19.676  0.00  0.00    +0.000 C 
ATOM     10  H   UNL     1       5.017   3.613  17.521  0.00  0.00    +0.000 HD
ENDROOT
BRANCH   8  11
ATOM     11  C   UNL     1       2.456   5.980  20.131  0.00  0.00    +0.000 A 
ATOM     12  N   UNL     1       1.665   6.794  20.792  0.00  0.00    +0.000 NA
ATOM     13  C   UNL     1       1.551   7.914  20.013  0.00  0.00    +0.000 A 
ATOM     14  C   UNL     1       0.904   9.124  20.315  0.00  0.00    +0.000 A 
ATOM     15  C   UNL     1       0.070   9.299  21.542  0.00  0.00    +0.000 C 
ATOM     16  C   UNL     1       1.072  10.175  19.397  0.00  0.00    +0.000 A 
ATOM     17  C   UNL     1       1.673   9.961  18.152  0.00  0.00    +0.000 A 
ATOM     18  C   UNL     1       2.226   8.722  17.805  0.00  0.00    +0.000 A 
ATOM     19  C   UNL     1       2.213   7.747  18.803  0.00  0.00    +0.000 A 
ATOM     20  N   UNL     1       2.789   6.502  18.905  0.00  0.00    +0.000 N 
ATOM     21  H   UNL     1       3.397   6.071  18.221  0.00  0.00    +0.000 HD
ENDBRANCH   8  11
BRANCH   1  22
ATOM     22  C   UNL     1       4.588   3.759  15.485  0.00  0.00    +0.000 C 
BRANCH  22  23
ATOM     23  C   UNL     1       6.076   3.505  15.256  0.00  0.00    +0.000 C 
BRANCH  23  24
ATOM     24  C   UNL     1       6.849   4.814  15.170  0.00  0.00    +0.000 C 
BRANCH  24  30
ATOM     25  C   UNL     1       8.144   5.652  19.740  0.00  0.00    +0.000 C 
ATOM     26  C   UNL     1       7.475   5.793  18.434  0.00  0.00    +0.000 A 
ATOM     27  N   UNL     1       6.503   6.728  18.193  0.00  0.00    +0.000 NA
ATOM     28  C   UNL     1       6.163   6.502  16.941  0.00  0.00    +0.000 A 
ATOM     29  C   UNL     1       5.116   7.198  16.159  0.00  0.00    +0.000 C 
ATOM     30  N   UNL     1       6.921   5.467  16.460  0.00  0.00    +0.000 N 
ATOM     31  N   UNL     1       7.762   4.999  17.397  0.00  0.00    +0.000 NA
ENDBRANCH  24  30
ENDBRANCH  23  24
ENDBRANCH  22  23
ENDBRANCH   1  22
TORSDOF 5
ENDMDL
MODEL 7
REMARK VINA RESULT:      -8.1      3.513      5.675
REMARK  Name = 
REMARK  8 active torsions:
REMARK  status: ('A' for Active; 'I' for Inactive)
REMARK    1  A    between atoms: C_1  and  C_2
REMARK    2  A    between atoms: C_4  and  C_5
REMARK    3  A    between atoms: N_6  and  C_7
REMARK    4  A    between atoms: C_7  and  C_8
REMARK    5  A    between atoms: C_8  and  C_9
REMARK    6  A    between atoms: C_9  and  N_10
REMARK    7  A    between atoms: C_17  and  C_18
REMARK    8  A    between atoms: C_21  and  C_22
REMARK                            x       y       z     vdW  Elec       q    Type
REMARK                         _______ _______ _______ _____ _____    ______ ____
ROOT
ATOM      1  N   UNL     1       2.062   8.135  19.198  0.00  0.00    +0.000 N 
ATOM      2  C   UNL     1       1.463   8.162  20.430  0.00  0.00    +0.000 C 
ATOM      3  O   UNL     1       1.176   7.127  21.037  0.00  0.00    +0.000 OA
ATOM      4  N   UNL     1       1.135   9.413  20.912  0.00  0.00    +0.000 N 
ATOM      5  C   UNL     1       0.587   9.510  22.269  0.00  0.00    +0.000 C 
ATOM      6  C   UNL     1      -0.633  10.423  22.320  0.00  0.00    +0.000 C 
ATOM      7  C   UNL     1      -0.321  11.793  21.719  0.00  0.00    +0.000 C 
ATOM      8  C   UNL     1       0.269  11.669  20.312  0.00  0.00    +0.000 C 
ATOM      9  C   UNL     1       1.448  10.694  20.270  0.00  0.00    +0.000 C 
ATOM     10  H   UNL     1       2.741   8.866  19.049  0.00  0.00    +0.000 HD
ENDROOT
BRANCH   8  11
ATOM     11  C   UNL     1      -0.817  11.363  19.323  0.00  0.00    +0.000 A 
ATOM     12  N   UNL     1      -2.064  11.738  19.501  0.00  0.00    +0.000 NA
ATOM     13  C   UNL     1      -2.739  11.320  18.386  0.00  0.00    +0.000 A 
ATOM     14  C   UNL     1      -4.076  11.567  18.032  0.00  0.00    +0.000 A 
ATOM     15  C   UNL     1      -5.040  12.228  18.965  0.00  0.00    +0.000 C 
ATOM     16  C   UNL     1      -4.477  11.153  16.751  0.00  0.00    +0.000 A 
ATOM     17  C   UNL     1      -3.649  10.353  15.955  0.00  0.00    +0.000 A 
ATOM     18  C   UNL     1      -2.349  10.015  16.353  0.00  0.00    +0.000 A 
ATOM     19  C   UNL     1      -1.907  10.591  17.545  0.00  0.00    +0.000 A 
ATOM     20  N   UNL     1      -0.680  10.637  18.165  0.00  0.00    +0.000 N 
ATOM     21  H   UNL     1       0.183  10.253  17.803  0.00  0.00    +0.000 HD
ENDBRANCH   8  11
BRANCH   1  22
ATOM     22  C   UNL     1       2.389   6.865  18.574  0.00  0.00    +0.000 C 
BRANCH  22  23
ATOM     23  C   UNL     1       3.764   6.885  17.913  0.00  0.00    +0.000 C 
BRANCH  23  24
ATOM     24  C   UNL     1       4.605   5.696  18.359  0.00  0.00    +0.000 C 
BRANCH  24  30
ATOM     25  C   UNL     1       6.367   3.961  14.218  0.00  0.00    +0.000 C 
ATOM     26  C   UNL     1       6.307   4.554  15.566  0.00  0.00    +0.000 A 
ATOM     27  N   UNL     1       7.426   4.832  16.306  0.00  0.00    +0.000 NA
ATOM     28  C   UNL     1       6.939   5.317  17.430  0.00  0.00    +0.000 A 
ATOM     29  C   UNL     1       7.703   5.750  18.622  0.00  0.00    +0.000 C 
ATOM     30  N   UNL     1       5.572   5.328  17.347  0.00  0.00    +0.000 N 
ATOM     31  N   UNL     1       5.149   4.844  16.167  0.00  0.00    +0.000 NA
ENDBRANCH  24  30
ENDBRANCH  23  24
ENDBRANCH  22  23
ENDBRANCH   1  22
TORSDOF 5
ENDMDL
MODEL 8
REMARK VINA RESULT:      -8.0      2.168      3.799
REMARK  Name = 
REMARK  8 active torsions:
REMARK  status: ('A' for Active; 'I' for Inactive)
REMARK    1  A    between atoms: C_1  and  C_2
REMARK    2  A    between atoms: C_4  and  C_5
REMARK    3  A    between atoms: N_6  and  C_7
REMARK    4  A    between atoms: C_7  and  C_8
REMARK    5  A    between atoms: C_8  and  C_9
REMARK    6  A    between atoms: C_9  and  N_10
REMARK    7  A    between atoms: C_17  and  C_18
REMARK    8  A    between atoms: C_21  and  C_22
REMARK                            x       y       z     vdW  Elec       q    Type
REMARK                         _______ _______ _______ _____ _____    ______ ____
ROOT
ATOM      1  N   UNL     1       4.900   3.390  17.835  0.00  0.00    +0.000 N 
ATOM      2  C   UNL     1       3.675   2.778  17.862  0.00  0.00    +0.000 C 
ATOM      3  O   UNL     1       3.157   2.312  16.843  0.00  0.00    +0.000 OA
ATOM      4  N   UNL     1       3.028   2.780  19.081  0.00  0.00    +0.000 N 
ATOM      5  C   UNL     1       1.761   2.051  19.194  0.00  0.00    +0.000 C 
ATOM      6  C   UNL     1       0.698   2.874  19.912  0.00  0.00    +0.000 C 
ATOM      7  C   UNL     1       1.206   3.369  21.265  0.00  0.00    +0.000 C 
ATOM      8  C   UNL     1       2.539   4.111  21.128  0.00  0.00    +0.000 C 
ATOM      9  C   UNL     1       3.568   3.295  20.343  0.00  0.00    +0.000 C 
ATOM     10  H   UNL     1       5.472   3.213  18.648  0.00  0.00    +0.000 HD
ENDROOT
BRANCH   8  11
ATOM     11  C   UNL     1       2.307   5.491  20.588  0.00  0.00    +0.000 A 
ATOM     12  N   UNL     1       2.868   5.923  19.481  0.00  0.00    +0.000 NA
ATOM     13  C   UNL     1       2.392   7.193  19.294  0.00  0.00    +0.000 A 
ATOM     14  C   UNL     1       2.600   8.050  18.201  0.00  0.00    +0.000 A 
ATOM     15  C   UNL     1       3.558   7.724  17.101  0.00  0.00    +0.000 C 
ATOM     16  C   UNL     1       1.864   9.247  18.190  0.00  0.00    +0.000 A 
ATOM     17  C   UNL     1       1.128   9.656  19.307  0.00  0.00    +0.000 A 
ATOM     18  C   UNL     1       1.006   8.848  20.445  0.00  0.00    +0.000 A 
ATOM     19  C   UNL     1       1.591   7.584  20.361  0.00  0.00    +0.000 A 
ATOM     20  N   UNL     1       1.549   6.476  21.173  0.00  0.00    +0.000 N 
ATOM     21  H   UNL     1       1.008   6.382  22.023  0.00  0.00    +0.000 HD
ENDBRANCH   8  11
BRANCH   1  22
ATOM     22  C   UNL     1       5.635   3.496  16.587  0.00  0.00    +0.000 C 
BRANCH  22  23
ATOM     23  C   UNL     1       5.295   4.774  15.824  0.00  0.00    +0.000 C 
BRANCH  23  24
ATOM     24  C   UNL     1       6.495   5.276  15.032  0.00  0.00    +0.000 C 
BRANCH  24  30
ATOM     25  C   UNL     1       5.505   2.213  11.440  0.00  0.00    +0.000 C 
ATOM     26  C   UNL     1       6.137   3.300  12.209  0.00  0.00    +0.000 A 
ATOM     27  N   UNL     1       7.222   4.000  11.751  0.00  0.00    +0.000 NA
ATOM     28  C   UNL     1       7.480   4.843  12.731  0.00  0.00    +0.000 A 
ATOM     29  C   UNL     1       8.586   5.826  12.798  0.00  0.00    +0.000 C 
ATOM     30  N   UNL     1       6.565   4.646  13.731  0.00  0.00    +0.000 N 
ATOM     31  N   UNL     1       5.702   3.665  13.419  0.00  0.00    +0.000 NA
ENDBRANCH  24  30
ENDBRANCH  23  24
ENDBRANCH  22  23
ENDBRANCH   1  22
TORSDOF 5
ENDMDL
MODEL 9
REMARK VINA RESULT:      -8.0      2.093      3.395
REMARK  Name = 
REMARK  8 active torsions:
REMARK  status: ('A' for Active; 'I' for Inactive)
REMARK    1  A    between atoms: C_1  and  C_2
REMARK    2  A    between atoms: C_4  and  C_5
REMARK    3  A    between atoms: N_6  and  C_7
REMARK    4  A    between atoms: C_7  and  C_8
REMARK    5  A    between atoms: C_8  and  C_9
REMARK    6  A    between atoms: C_9  and  N_10
REMARK    7  A    between atoms: C_17  and  C_18
REMARK    8  A    between atoms: C_21  and  C_22
REMARK                            x       y       z     vdW  Elec       q    Type
REMARK                         _______ _______ _______ _____ _____    ______ ____
ROOT
ATOM      1  N   UNL     1       5.524   4.056  18.429  0.00  0.00    +0.000 N 
ATOM      2  C   UNL     1       4.400   3.319  18.169  0.00  0.00    +0.000 C 
ATOM      3  O   UNL     1       4.220   2.769  17.079  0.00  0.00    +0.000 OA
ATOM      4  N   UNL     1       3.453   3.291  19.172  0.00  0.00    +0.000 N 
ATOM      5  C   UNL     1       2.277   2.435  18.991  0.00  0.00    +0.000 C 
ATOM      6  C   UNL     1       0.988   3.162  19.354  0.00  0.00    +0.000 C 
ATOM      7  C   UNL     1       1.066   3.751  20.762  0.00  0.00    +0.000 C 
ATOM      8  C   UNL     1       2.311   4.626  20.937  0.00  0.00    +0.000 C 
ATOM      9  C   UNL     1       3.585   3.900  20.500  0.00  0.00    +0.000 C 
ATOM     10  H   UNL     1       5.872   3.968  19.372  0.00  0.00    +0.000 HD
ENDROOT
BRANCH   8  11
ATOM     11  C   UNL     1       2.104   5.956  20.275  0.00  0.00    +0.000 A 
ATOM     12  N   UNL     1       1.387   6.914  20.819  0.00  0.00    +0.000 NA
ATOM     13  C   UNL     1       1.463   7.971  19.952  0.00  0.00    +0.000 A 
ATOM     14  C   UNL     1       0.961   9.273  20.118  0.00  0.00    +0.000 A 
ATOM     15  C   UNL     1       0.086   9.650  21.270  0.00  0.00    +0.000 C 
ATOM     16  C   UNL     1       1.315  10.215  19.138  0.00  0.00    +0.000 A 
ATOM     17  C   UNL     1       1.955   9.826  17.956  0.00  0.00    +0.000 A 
ATOM     18  C   UNL     1       2.363   8.504  17.741  0.00  0.00    +0.000 A 
ATOM     19  C   UNL     1       2.168   7.624  18.806  0.00  0.00    +0.000 A 
ATOM     20  N   UNL     1       2.571   6.330  19.039  0.00  0.00    +0.000 N 
ATOM     21  H   UNL     1       3.158   5.772  18.432  0.00  0.00    +0.000 HD
ENDBRANCH   8  11
BRANCH   1  22
ATOM     22  C   UNL     1       6.553   4.201  17.414  0.00  0.00    +0.000 C 
BRANCH  22  23
ATOM     23  C   UNL     1       6.063   4.991  16.204  0.00  0.00    +0.000 C 
BRANCH  23  24
ATOM     24  C   UNL     1       7.212   5.321  15.260  0.00  0.00    +0.000 C 
BRANCH  24  30
ATOM     25  C   UNL     1       5.409   2.484  11.802  0.00  0.00    +0.000 C 
ATOM     26  C   UNL     1       6.207   3.525  12.473  0.00  0.00    +0.000 A 
ATOM     27  N   UNL     1       7.163   4.262  11.826  0.00  0.00    +0.000 NA
ATOM     28  C   UNL     1       7.643   5.043  12.772  0.00  0.00    +0.000 A 
ATOM     29  C   UNL     1       8.741   6.029  12.648  0.00  0.00    +0.000 C 
ATOM     30  N   UNL     1       6.980   4.775  13.940  0.00  0.00    +0.000 N 
ATOM     31  N   UNL     1       6.062   3.809  13.772  0.00  0.00    +0.000 NA
ENDBRANCH  24  30
ENDBRANCH  23  24
ENDBRANCH  22  23
ENDBRANCH   1  22
TORSDOF 5
ENDMDL
