MODEL 1
REMARK VINA RESULT:      -8.7      0.000      0.000
REMARK  Name = 
REMARK  13 active torsions:
REMARK  status: ('A' for Active; 'I' for Inactive)
REMARK    1  A    between atoms: C_2  and  O_3
REMARK    2  A    between atoms: C_2  and  C_4
REMARK    3  A    between atoms: C_4  and  C_5
REMARK    4  A    between atoms: C_5  and  C_6
REMARK    5  A    between atoms: C_6  and  N_7
REMARK    6  A    between atoms: C_6  and  P_18
REMARK    7  A    between atoms: C_8  and  O_10
REMARK    8  A    between atoms: O_10  and  C_11
REMARK    9  A    between atoms: C_11  and  C_12
REMARK   10  A    between atoms: P_18  and  O_20
REMARK   11  A    between atoms: P_18  and  O_27
REMARK   12  A    between atoms: O_20  and  C_21
REMARK   13  A    between atoms: O_27  and  C_28
REMARK                            x       y       z     vdW  Elec       q    Type
REMARK                         _______ _______ _______ _____ _____    ______ ____
ROOT
ATOM      1  C   UNL     1       5.775   6.098  17.240  0.00  0.00    +0.000 C 
ENDROOT
BRANCH   1   2
ATOM      2  N   UNL     1       6.538   7.353  17.237  0.00  0.00    +0.000 N 
ATOM      3  C   UNL     1       7.711   7.464  17.937  0.00  0.00    +0.000 C 
ATOM      4  O   UNL     1       8.037   6.729  18.856  0.00  0.00    +0.000 OA
ATOM      5  H   UNL     1       6.513   7.950  16.421  0.00  0.00    +0.000 HD
BRANCH   3   6
ATOM      6  O   UNL     1       8.457   8.483  17.452  0.00  0.00    +0.000 OA
BRANCH   6   7
ATOM      7  C   UNL     1       8.089   9.806  17.899  0.00  0.00    +0.000 C 
BRANCH   7   8
ATOM      8  C   UNL     1       9.214  10.595  18.534  0.00  0.00    +0.000 A 
ATOM      9  C   UNL     1       9.347  10.675  19.930  0.00  0.00    +0.000 A 
ATOM     10  C   UNL     1      10.439  11.332  20.511  0.00  0.00    +0.000 A 
ATOM     11  C   UNL     1      11.411  11.921  19.705  0.00  0.00    +0.000 A 
ATOM     12  C   UNL     1      11.292  11.852  18.318  0.00  0.00    +0.000 A 
ATOM     13  C   UNL     1      10.199  11.196  17.737  0.00  0.00    +0.000 A 
ENDBRANCH   7   8
ENDBRANCH   6   7
ENDBRANCH   3   6
ENDBRANCH   1   2
BRANCH   1  14
ATOM     14  P   UNL     1       4.138   6.071  18.070  0.00  0.00    +0.000 P 
ATOM     15  O   UNL     1       4.333   5.836  19.546  0.00  0.00    +0.000 OA
BRANCH  14  16
ATOM     16  O   UNL     1       3.404   7.469  17.735  0.00  0.00    +0.000 OA
BRANCH  16  17
ATOM     17  C   UNL     1       2.462   8.065  18.534  0.00  0.00    +0.000 A 
ATOM     18  C   UNL     1       2.138   7.645  19.823  0.00  0.00    +0.000 A 
ATOM     19  C   UNL     1       1.203   8.354  20.585  0.00  0.00    +0.000 A 
ATOM     20  C   UNL     1       0.577   9.478  20.055  0.00  0.00    +0.000 A 
ATOM     21  C   UNL     1       0.885   9.897  18.765  0.00  0.00    +0.000 A 
ATOM     22  C   UNL     1       1.831   9.189  18.003  0.00  0.00    +0.000 A 
ENDBRANCH  16  17
ENDBRANCH  14  16
BRANCH  14  23
ATOM     23  O   UNL     1       3.233   4.987  17.278  0.00  0.00    +0.000 OA
BRANCH  23  24
ATOM     24  C   UNL     1       2.653   3.855  17.785  0.00  0.00    +0.000 A 
ATOM     25  C   UNL     1       1.326   3.758  18.199  0.00  0.00    +0.000 A 
ATOM     26  C   UNL     1       0.852   2.588  18.793  0.00  0.00    +0.000 A 
ATOM     27  C   UNL     1       1.693   1.489  18.942  0.00  0.00    +0.000 A 
ATOM     28  C   UNL     1       3.007   1.560  18.482  0.00  0.00    +0.000 A 
ATOM     29  C   UNL     1       3.485   2.740  17.903  0.00  0.00    +0.000 A 
ENDBRANCH  23  24
ENDBRANCH  14  23
ENDBRANCH   1  14
BRANCH   1  30
ATOM     30  C   UNL     1       5.723   5.460  15.834  0.00  0.00    +0.000 C 
BRANCH  30  31
ATOM     31  C   UNL     1       7.036   4.890  15.295  0.00  0.00    +0.000 C 
BRANCH  31  33
ATOM     32  O   UNL     1       6.244   3.917  13.221  0.00  0.00    +0.000 OA
ATOM     33  C   UNL     1       6.974   4.714  13.791  0.00  0.00    +0.000 C 
BRANCH  33  34
ATOM     34  O   UNL     1       7.846   5.499  13.123  0.00  0.00    +0.000 OA
ATOM     35  H   UNL     1       8.784   5.373  13.365  0.00  0.00    +0.000 HD
ENDBRANCH  33  34
ENDBRANCH  31  33
ENDBRANCH  30  31
ENDBRANCH   1  30
TORSDOF 13
ENDMDL
MODEL 2
REMARK VINA RESULT:      -8.5      0.886      1.517
REMARK  Name = 
REMARK  13 active torsions:
REMARK  status: ('A' for Active; 'I' for Inactive)
REMARK    1  A    between atoms: C_2  and  O_3
REMARK    2  A    between atoms: C_2  and  C_4
REMARK    3  A    between atoms: C_4  and  C_5
REMARK    4  A    between atoms: C_5  and  C_6
REMARK    5  A    between atoms: C_6  and  N_7
REMARK    6  A    between atoms: C_6  and  P_18
REMARK    7  A    between atoms: C_8  and  O_10
REMARK    8  A    between atoms: O_10  and  C_11
REMARK    9  A    between atoms: C_11  and  C_12
REMARK   10  A    between atoms: P_18  and  O_20
REMARK   11  A    between atoms: P_18  and  O_27
REMARK   12  A    between atoms: O_20  and  C_21
REMARK   13  A    between atoms: O_27  and  C_28
REMARK                            x       y       z     vdW  Elec       q    Type
REMARK                         _______ _______ _______ _____ _____    ______ ____
ROOT
ATOM      1  C   UNL     1       5.998   5.884  17.037  0.00  0.00    +0.000 C 
ENDROOT
BRANCH   1   2
ATOM      2  N   UNL     1       6.612   7.217  17.015  0.00  0.00    +0.000 N 
ATOM      3  C   UNL     1       7.734   7.486  17.755  0.00  0.00    +0.000 C 
ATOM      4  O   UNL     1       8.102   6.825  18.713  0.00  0.00    +0.000 OA
ATOM      5  H   UNL     1       6.554   7.779  16.176  0.00  0.00    +0.000 HD
BRANCH   3   6
ATOM      6  O   UNL     1       8.379   8.567  17.259  0.00  0.00    +0.000 OA
BRANCH   6   7
ATOM      7  C   UNL     1       8.077   9.829  17.892  0.00  0.00    +0.000 C 
BRANCH   7   8
ATOM      8  C   UNL     1       9.266  10.524  18.520  0.00  0.00    +0.000 A 
ATOM      9  C   UNL     1      10.266  11.110  17.729  0.00  0.00    +0.000 A 
ATOM     10  C   UNL     1      11.316  11.828  18.314  0.00  0.00    +0.000 A 
ATOM     11  C   UNL     1      11.383  11.968  19.699  0.00  0.00    +0.000 A 
ATOM     12  C   UNL     1      10.398  11.390  20.498  0.00  0.00    +0.000 A 
ATOM     13  C   UNL     1       9.348  10.671  19.913  0.00  0.00    +0.000 A 
ENDBRANCH   7   8
ENDBRANCH   6   7
ENDBRANCH   3   6
ENDBRANCH   1   2
BRANCH   1  14
ATOM     14  P   UNL     1       4.639   5.565  18.230  0.00  0.00    +0.000 P 
ATOM     15  O   UNL     1       5.076   5.996  19.607  0.00  0.00    +0.000 OA
BRANCH  14  16
ATOM     16  O   UNL     1       3.334   6.351  17.696  0.00  0.00    +0.000 OA
BRANCH  16  17
ATOM     17  C   UNL     1       2.644   7.294  18.415  0.00  0.00    +0.000 A 
ATOM     18  C   UNL     1       2.256   8.538  17.921  0.00  0.00    +0.000 A 
ATOM     19  C   UNL     1       1.503   9.412  18.713  0.00  0.00    +0.000 A 
ATOM     20  C   UNL     1       1.147   9.049  20.008  0.00  0.00    +0.000 A 
ATOM     21  C   UNL     1       1.539   7.814  20.514  0.00  0.00    +0.000 A 
ATOM     22  C   UNL     1       2.289   6.934  19.714  0.00  0.00    +0.000 A 
ENDBRANCH  16  17
ENDBRANCH  14  16
BRANCH  14  23
ATOM     23  O   UNL     1       4.223   4.011  18.058  0.00  0.00    +0.000 OA
BRANCH  23  24
ATOM     24  C   UNL     1       3.155   3.366  18.621  0.00  0.00    +0.000 A 
ATOM     25  C   UNL     1       2.061   2.869  17.914  0.00  0.00    +0.000 A 
ATOM     26  C   UNL     1       0.974   2.311  18.588  0.00  0.00    +0.000 A 
ATOM     27  C   UNL     1       0.990   2.210  19.976  0.00  0.00    +0.000 A 
ATOM     28  C   UNL     1       2.102   2.656  20.687  0.00  0.00    +0.000 A 
ATOM     29  C   UNL     1       3.183   3.230  20.011  0.00  0.00    +0.000 A 
ENDBRANCH  23  24
ENDBRANCH  14  23
ENDBRANCH   1  14
BRANCH   1  30
ATOM     30  C   UNL     1       5.645   5.396  15.614  0.00  0.00    +0.000 C 
BRANCH  30  31
ATOM     31  C   UNL     1       6.810   4.903  14.754  0.00  0.00    +0.000 C 
BRANCH  31  33
ATOM     32  O   UNL     1       5.203   3.757  13.347  0.00  0.00    +0.000 OA
ATOM     33  C   UNL     1       6.307   4.263  13.475  0.00  0.00    +0.000 C 
BRANCH  33  34
ATOM     34  O   UNL     1       7.223   4.260  12.482  0.00  0.00    +0.000 OA
ATOM     35  H   UNL     1       8.004   3.696  12.643  0.00  0.00    +0.000 HD
ENDBRANCH  33  34
ENDBRANCH  31  33
ENDBRANCH  30  31
ENDBRANCH   1  30
TORSDOF 13
ENDMDL
MODEL 3
REMARK VINA RESULT:      -8.5      1.142      1.677
REMARK  Name = 
REMARK  13 active torsions:
REMARK  status: ('A' for Active; 'I' for Inactive)
REMARK    1  A    between atoms: C_2  and  O_3
REMARK    2  A    between atoms: C_2  and  C_4
REMARK    3  A    between atoms: C_4  and  C_5
REMARK    4  A    between atoms: C_5  and  C_6
REMARK    5  A    between atoms: C_6  and  N_7
REMARK    6  A    between atoms: C_6  and  P_18
REMARK    7  A    between atoms: C_8  and  O_10
REMARK    8  A    between atoms: O_10  and  C_11
REMARK    9  A    between atoms: C_11  and  C_12
REMARK   10  A    between atoms: P_18  and  O_20
REMARK   11  A    between atoms: P_18  and  O_27
REMARK   12  A    between atoms: O_20  and  C_21
REMARK   13  A    between atoms: O_27  and  C_28
REMARK                            x       y       z     vdW  Elec       q    Type
REMARK                         _______ _______ _______ _____ _____    ______ ____
ROOT
ATOM      1  C   UNL     1       5.706   6.501  16.860  0.00  0.00    +0.000 C 
ENDROOT
BRANCH   1   2
ATOM      2  N   UNL     1       6.455   7.740  17.106  0.00  0.00    +0.000 N 
ATOM      3  C   UNL     1       7.642   7.718  17.791  0.00  0.00    +0.000 C 
ATOM      4  O   UNL     1       7.996   6.812  18.528  0.00  0.00    +0.000 OA
ATOM      5  H   UNL     1       6.405   8.495  16.435  0.00  0.00    +0.000 HD
BRANCH   3   6
ATOM      6  O   UNL     1       8.366   8.828  17.516  0.00  0.00    +0.000 OA
BRANCH   6   7
ATOM      7  C   UNL     1       8.793   9.603  18.657  0.00  0.00    +0.000 C 
BRANCH   7   8
ATOM      8  C   UNL     1       9.459  10.919  18.316  0.00  0.00    +0.000 A 
ATOM      9  C   UNL     1      10.857  11.045  18.308  0.00  0.00    +0.000 A 
ATOM     10  C   UNL     1      11.469  12.238  17.905  0.00  0.00    +0.000 A 
ATOM     11  C   UNL     1      10.691  13.325  17.509  0.00  0.00    +0.000 A 
ATOM     12  C   UNL     1       9.302  13.216  17.514  0.00  0.00    +0.000 A 
ATOM     13  C   UNL     1       8.690  12.022  17.918  0.00  0.00    +0.000 A 
ENDBRANCH   7   8
ENDBRANCH   6   7
ENDBRANCH   3   6
ENDBRANCH   1   2
BRANCH   1  14
ATOM     14  P   UNL     1       4.212   6.166  17.872  0.00  0.00    +0.000 P 
ATOM     15  O   UNL     1       4.593   6.149  19.330  0.00  0.00    +0.000 OA
BRANCH  14  16
ATOM     16  O   UNL     1       3.119   7.297  17.508  0.00  0.00    +0.000 OA
BRANCH  16  17
ATOM     17  C   UNL     1       2.365   7.977  18.431  0.00  0.00    +0.000 A 
ATOM     18  C   UNL     1       2.123   7.540  19.732  0.00  0.00    +0.000 A 
ATOM     19  C   UNL     1       1.389   8.333  20.621  0.00  0.00    +0.000 A 
ATOM     20  C   UNL     1       0.882   9.560  20.207  0.00  0.00    +0.000 A 
ATOM     21  C   UNL     1       1.108   9.999  18.907  0.00  0.00    +0.000 A 
ATOM     22  C   UNL     1       1.853   9.206  18.017  0.00  0.00    +0.000 A 
ENDBRANCH  16  17
ENDBRANCH  14  16
BRANCH  14  23
ATOM     23  O   UNL     1       3.544   4.814  17.284  0.00  0.00    +0.000 OA
BRANCH  23  24
ATOM     24  C   UNL     1       2.759   3.912  17.950  0.00  0.00    +0.000 A 
ATOM     25  C   UNL     1       2.730   2.541  17.697  0.00  0.00    +0.000 A 
ATOM     26  C   UNL     1       1.825   1.716  18.364  0.00  0.00    +0.000 A 
ATOM     27  C   UNL     1       0.967   2.249  19.320  0.00  0.00    +0.000 A 
ATOM     28  C   UNL     1       1.026   3.609  19.619  0.00  0.00    +0.000 A 
ATOM     29  C   UNL     1       1.922   4.438  18.936  0.00  0.00    +0.000 A 
ENDBRANCH  23  24
ENDBRANCH  14  23
ENDBRANCH   1  14
BRANCH   1  30
ATOM     30  C   UNL     1       5.445   6.284  15.352  0.00  0.00    +0.000 C 
BRANCH  30  31
ATOM     31  C   UNL     1       6.089   5.049  14.720  0.00  0.00    +0.000 C 
BRANCH  31  33
ATOM     32  O   UNL     1       7.858   4.345  16.220  0.00  0.00    +0.000 OA
ATOM     33  C   UNL     1       6.734   4.173  15.776  0.00  0.00    +0.000 C 
BRANCH  33  34
ATOM     34  O   UNL     1       5.957   3.136  16.158  0.00  0.00    +0.000 OA
ATOM     35  H   UNL     1       6.116   2.814  17.067  0.00  0.00    +0.000 HD
ENDBRANCH  33  34
ENDBRANCH  31  33
ENDBRANCH  30  31
ENDBRANCH   1  30
TORSDOF 13
ENDMDL
MODEL 4
REMARK VINA RESULT:      -8.5      0.779      1.448
REMARK  Name = 
REMARK  13 active torsions:
REMARK  status: ('A' for Active; 'I' for Inactive)
REMARK    1  A    between atoms: C_2  and  O_3
REMARK    2  A    between atoms: C_2  and  C_4
REMARK    3  A    between atoms: C_4  and  C_5
REMARK    4  A    between atoms: C_5  and  C_6
REMARK    5  A    between atoms: C_6  and  N_7
REMARK    6  A    between atoms: C_6  and  P_18
REMARK    7  A    between atoms: C_8  and  O_10
REMARK    8  A    between atoms: O_10  and  C_11
REMARK    9  A    between atoms: C_11  and  C_12
REMARK   10  A    between atoms: P_18  and  O_20
REMARK   11  A    between atoms: P_18  and  O_27
REMARK   12  A    between atoms: O_20  and  C_21
REMARK   13  A    between atoms: O_27  and  C_28
REMARK                            x       y       z     vdW  Elec       q    Type
REMARK                         _______ _______ _______ _____ _____    ______ ____
ROOT
ATOM      1  C   UNL     1       5.893   6.324  16.926  0.00  0.00    +0.000 C 
ENDROOT
BRANCH   1   2
ATOM      2  N   UNL     1       6.578   7.613  17.085  0.00  0.00    +0.000 N 
ATOM      3  C   UNL     1       7.718   7.714  17.838  0.00  0.00    +0.000 C 
ATOM      4  O   UNL     1       8.059   6.905  18.685  0.00  0.00    +0.000 OA
ATOM      5  H   UNL     1       6.542   8.292  16.337  0.00  0.00    +0.000 HD
BRANCH   3   6
ATOM      6  O   UNL     1       8.416   8.820  17.492  0.00  0.00    +0.000 OA
BRANCH   6   7
ATOM      7  C   UNL     1       8.871   9.649  18.584  0.00  0.00    +0.000 C 
BRANCH   7   8
ATOM      8  C   UNL     1       9.424  10.996  18.169  0.00  0.00    +0.000 A 
ATOM      9  C   UNL     1       8.572  12.055  17.820  0.00  0.00    +0.000 A 
ATOM     10  C   UNL     1       9.086  13.323  17.524  0.00  0.00    +0.000 A 
ATOM     11  C   UNL     1      10.460  13.550  17.570  0.00  0.00    +0.000 A 
ATOM     12  C   UNL     1      11.319  12.508  17.912  0.00  0.00    +0.000 A 
ATOM     13  C   UNL     1      10.805  11.239  18.207  0.00  0.00    +0.000 A 
ENDBRANCH   7   8
ENDBRANCH   6   7
ENDBRANCH   3   6
ENDBRANCH   1   2
BRANCH   1  14
ATOM     14  P   UNL     1       4.321   6.049  17.834  0.00  0.00    +0.000 P 
ATOM     15  O   UNL     1       4.614   5.918  19.306  0.00  0.00    +0.000 OA
BRANCH  14  16
ATOM     16  O   UNL     1       3.340   7.282  17.482  0.00  0.00    +0.000 OA
BRANCH  16  17
ATOM     17  C   UNL     1       2.541   7.926  18.393  0.00  0.00    +0.000 A 
ATOM     18  C   UNL     1       1.913   9.150  18.168  0.00  0.00    +0.000 A 
ATOM     19  C   UNL     1       1.070   9.702  19.138  0.00  0.00    +0.000 A 
ATOM     20  C   UNL     1       0.862   9.039  20.343  0.00  0.00    +0.000 A 
ATOM     21  C   UNL     1       1.495   7.823  20.582  0.00  0.00    +0.000 A 
ATOM     22  C   UNL     1       2.336   7.265  19.603  0.00  0.00    +0.000 A 
ENDBRANCH  16  17
ENDBRANCH  14  16
BRANCH  14  23
ATOM     23  O   UNL     1       3.589   4.790  17.127  0.00  0.00    +0.000 OA
BRANCH  23  24
ATOM     24  C   UNL     1       2.825   3.826  17.726  0.00  0.00    +0.000 A 
ATOM     25  C   UNL     1       1.467   3.953  18.017  0.00  0.00    +0.000 A 
ATOM     26  C   UNL     1       0.795   2.951  18.718  0.00  0.00    +0.000 A 
ATOM     27  C   UNL     1       1.467   1.795  19.101  0.00  0.00    +0.000 A 
ATOM     28  C   UNL     1       2.811   1.636  18.768  0.00  0.00    +0.000 A 
ATOM     29  C   UNL     1       3.487   2.649  18.080  0.00  0.00    +0.000 A 
ENDBRANCH  23  24
ENDBRANCH  14  23
ENDBRANCH   1  14
BRANCH   1  30
ATOM     30  C   UNL     1       5.782   5.917  15.440  0.00  0.00    +0.000 C 
BRANCH  30  31
ATOM     31  C   UNL     1       6.286   4.520  15.075  0.00  0.00    +0.000 C 
BRANCH  31  33
ATOM     32  O   UNL     1       7.710   5.380  13.312  0.00  0.00    +0.000 OA
ATOM     33  C   UNL     1       6.939   4.519  13.707  0.00  0.00    +0.000 C 
BRANCH  33  34
ATOM     34  O   UNL     1       6.552   3.484  12.930  0.00  0.00    +0.000 OA
ATOM     35  H   UNL     1       5.711   3.063  13.192  0.00  0.00    +0.000 HD
ENDBRANCH  33  34
ENDBRANCH  31  33
ENDBRANCH  30  31
ENDBRANCH   1  30
TORSDOF 13
ENDMDL
MODEL 5
REMARK VINA RESULT:      -8.2      1.415      3.993
REMARK  Name = 
REMARK  13 active torsions:
REMARK  status: ('A' for Active; 'I' for Inactive)
REMARK    1  A    between atoms: C_2  and  O_3
REMARK    2  A    between atoms: C_2  and  C_4
REMARK    3  A    between atoms: C_4  and  C_5
REMARK    4  A    between atoms: C_5  and  C_6
REMARK    5  A    between atoms: C_6  and  N_7
REMARK    6  A    between atoms: C_6  and  P_18
REMARK    7  A    between atoms: C_8  and  O_10
REMARK    8  A    between atoms: O_10  and  C_11
REMARK    9  A    between atoms: C_11  and  C_12
REMARK   10  A    between atoms: P_18  and  O_20
REMARK   11  A    between atoms: P_18  and  O_27
REMARK   12  A    between atoms: O_20  and  C_21
REMARK   13  A    between atoms: O_27  and  C_28
REMARK                            x       y       z     vdW  Elec       q    Type
REMARK                         _______ _______ _______ _____ _____    ______ ____
ROOT
ATOM      1  C   UNL     1       5.692   5.314  18.314  0.00  0.00    +0.000 C 
ENDROOT
BRANCH   1   2
ATOM      2  N   UNL     1       6.608   6.449  18.481  0.00  0.00    +0.000 N 
ATOM      3  C   UNL     1       7.797   6.300  19.146  0.00  0.00    +0.000 C 
ATOM      4  O   UNL     1       8.042   5.391  19.923  0.00  0.00    +0.000 OA
ATOM      5  H   UNL     1       6.645   7.169  17.772  0.00  0.00    +0.000 HD
BRANCH   3   6
ATOM      6  O   UNL     1       8.658   7.284  18.800  0.00  0.00    +0.000 OA
BRANCH   6   7
ATOM      7  C   UNL     1       8.113   8.345  17.987  0.00  0.00    +0.000 C 
BRANCH   7   8
ATOM      8  C   UNL     1       8.573   9.737  18.369  0.00  0.00    +0.000 A 
ATOM      9  C   UNL     1       9.359   9.953  19.511  0.00  0.00    +0.000 A 
ATOM     10  C   UNL     1       9.856  11.228  19.810  0.00  0.00    +0.000 A 
ATOM     11  C   UNL     1       9.569  12.305  18.973  0.00  0.00    +0.000 A 
ATOM     12  C   UNL     1       8.788  12.106  17.837  0.00  0.00    +0.000 A 
ATOM     13  C   UNL     1       8.290  10.831  17.538  0.00  0.00    +0.000 A 
ENDBRANCH   7   8
ENDBRANCH   6   7
ENDBRANCH   3   6
ENDBRANCH   1   2
BRANCH   1  14
ATOM     14  P   UNL     1       3.938   5.658  17.895  0.00  0.00    +0.000 P 
ATOM     15  O   UNL     1       3.873   6.342  16.553  0.00  0.00    +0.000 OA
BRANCH  14  16
ATOM     16  O   UNL     1       3.147   4.252  17.936  0.00  0.00    +0.000 OA
BRANCH  16  17
ATOM     17  C   UNL     1       2.620   3.688  19.071  0.00  0.00    +0.000 A 
ATOM     18  C   UNL     1       3.375   3.113  20.092  0.00  0.00    +0.000 A 
ATOM     19  C   UNL     1       2.750   2.613  21.240  0.00  0.00    +0.000 A 
ATOM     20  C   UNL     1       1.366   2.675  21.364  0.00  0.00    +0.000 A 
ATOM     21  C   UNL     1       0.603   3.236  20.345  0.00  0.00    +0.000 A 
ATOM     22  C   UNL     1       1.233   3.745  19.196  0.00  0.00    +0.000 A 
ENDBRANCH  16  17
ENDBRANCH  14  16
BRANCH  14  23
ATOM     23  O   UNL     1       3.309   6.466  19.149  0.00  0.00    +0.000 OA
BRANCH  23  24
ATOM     24  C   UNL     1       2.431   7.515  19.111  0.00  0.00    +0.000 A 
ATOM     25  C   UNL     1       2.118   8.249  17.968  0.00  0.00    +0.000 A 
ATOM     26  C   UNL     1       1.283   9.364  18.048  0.00  0.00    +0.000 A 
ATOM     27  C   UNL     1       0.722   9.731  19.267  0.00  0.00    +0.000 A 
ATOM     28  C   UNL     1       0.987   8.971  20.404  0.00  0.00    +0.000 A 
ATOM     29  C   UNL     1       1.838   7.864  20.325  0.00  0.00    +0.000 A 
ENDBRANCH  23  24
ENDBRANCH  14  23
ENDBRANCH   1  14
BRANCH   1  30
ATOM     30  C   UNL     1       6.300   4.220  17.407  0.00  0.00    +0.000 C 
BRANCH  30  31
ATOM     31  C   UNL     1       7.218   4.700  16.282  0.00  0.00    +0.000 C 
BRANCH  31  33
ATOM     32  O   UNL     1       6.461   3.757  14.182  0.00  0.00    +0.000 OA
ATOM     33  C   UNL     1       6.491   4.704  14.953  0.00  0.00    +0.000 C 
BRANCH  33  34
ATOM     34  O   UNL     1       5.903   5.886  14.667  0.00  0.00    +0.000 OA
ATOM     35  H   UNL     1       5.537   5.958  13.765  0.00  0.00    +0.000 HD
ENDBRANCH  33  34
ENDBRANCH  31  33
ENDBRANCH  30  31
ENDBRANCH   1  30
TORSDOF 13
ENDMDL
MODEL 6
REMARK VINA RESULT:      -8.2      1.293      1.728
REMARK  Name = 
REMARK  13 active torsions:
REMARK  status: ('A' for Active; 'I' for Inactive)
REMARK    1  A    between atoms: C_2  and  O_3
REMARK    2  A    between atoms: C_2  and  C_4
REMARK    3  A    between atoms: C_4  and  C_5
REMARK    4  A    between atoms: C_5  and  C_6
REMARK    5  A    between atoms: C_6  and  N_7
REMARK    6  A    between atoms: C_6  and  P_18
REMARK    7  A    between atoms: C_8  and  O_10
REMARK    8  A    between atoms: O_10  and  C_11
REMARK    9  A    between atoms: C_11  and  C_12
REMARK   10  A    between atoms: P_18  and  O_20
REMARK   11  A    between atoms: P_18  and  O_27
REMARK   12  A    between atoms: O_20  and  C_21
REMARK   13  A    between atoms: O_27  and  C_28
REMARK                            x       y       z     vdW  Elec       q    Type
REMARK                         _______ _______ _______ _____ _____    ______ ____
ROOT
ATOM      1  C   UNL     1       6.868   4.683  17.659  0.00  0.00    +0.000 C 
ENDROOT
BRANCH   1   2
ATOM      2  N   UNL     1       7.843   5.781  17.708  0.00  0.00    +0.000 N 
ATOM      3  C   UNL     1       7.438   7.085  17.595  0.00  0.00    +0.000 C 
ATOM      4  O   UNL     1       6.373   7.437  17.115  0.00  0.00    +0.000 OA
ATOM      5  H   UNL     1       8.681   5.678  18.264  0.00  0.00    +0.000 HD
BRANCH   3   6
ATOM      6  O   UNL     1       8.374   7.916  18.109  0.00  0.00    +0.000 OA
BRANCH   6   7
ATOM      7  C   UNL     1       8.171   9.325  17.867  0.00  0.00    +0.000 C 
BRANCH   7   8
ATOM      8  C   UNL     1       9.164  10.237  18.556  0.00  0.00    +0.000 A 
ATOM      9  C   UNL     1      10.039  11.047  17.816  0.00  0.00    +0.000 A 
ATOM     10  C   UNL     1      10.893  11.953  18.457  0.00  0.00    +0.000 A 
ATOM     11  C   UNL     1      10.886  12.059  19.847  0.00  0.00    +0.000 A 
ATOM     12  C   UNL     1      10.024  11.260  20.594  0.00  0.00    +0.000 A 
ATOM     13  C   UNL     1       9.170  10.352  19.953  0.00  0.00    +0.000 A 
ENDBRANCH   7   8
ENDBRANCH   6   7
ENDBRANCH   3   6
ENDBRANCH   1   2
BRANCH   1  14
ATOM     14  P   UNL     1       5.310   4.853  18.615  0.00  0.00    +0.000 P 
ATOM     15  O   UNL     1       5.612   5.485  19.949  0.00  0.00    +0.000 OA
BRANCH  14  16
ATOM     16  O   UNL     1       4.283   5.715  17.715  0.00  0.00    +0.000 OA
BRANCH  16  17
ATOM     17  C   UNL     1       3.387   6.626  18.213  0.00  0.00    +0.000 A 
ATOM     18  C   UNL     1       2.759   6.522  19.454  0.00  0.00    +0.000 A 
ATOM     19  C   UNL     1       1.902   7.534  19.901  0.00  0.00    +0.000 A 
ATOM     20  C   UNL     1       1.658   8.647  19.103  0.00  0.00    +0.000 A 
ATOM     21  C   UNL     1       2.271   8.753  17.858  0.00  0.00    +0.000 A 
ATOM     22  C   UNL     1       3.138   7.740  17.413  0.00  0.00    +0.000 A 
ENDBRANCH  16  17
ENDBRANCH  14  16
BRANCH  14  23
ATOM     23  O   UNL     1       4.622   3.388  18.648  0.00  0.00    +0.000 OA
BRANCH  23  24
ATOM     24  C   UNL     1       3.343   3.076  19.024  0.00  0.00    +0.000 A 
ATOM     25  C   UNL     1       2.287   2.848  18.143  0.00  0.00    +0.000 A 
ATOM     26  C   UNL     1       0.996   2.630  18.624  0.00  0.00    +0.000 A 
ATOM     27  C   UNL     1       0.757   2.599  19.994  0.00  0.00    +0.000 A 
ATOM     28  C   UNL     1       1.816   2.773  20.883  0.00  0.00    +0.000 A 
ATOM     29  C   UNL     1       3.106   3.009  20.398  0.00  0.00    +0.000 A 
ENDBRANCH  23  24
ENDBRANCH  14  23
ENDBRANCH   1  14
BRANCH   1  30
ATOM     30  C   UNL     1       6.610   4.215  16.209  0.00  0.00    +0.000 C 
BRANCH  30  31
ATOM     31  C   UNL     1       6.407   5.313  15.164  0.00  0.00    +0.000 C 
BRANCH  31  33
ATOM     32  O   UNL     1       6.627   4.028  13.122  0.00  0.00    +0.000 OA
ATOM     33  C   UNL     1       7.036   4.926  13.841  0.00  0.00    +0.000 C 
BRANCH  33  34
ATOM     34  O   UNL     1       8.140   5.646  13.541  0.00  0.00    +0.000 OA
ATOM     35  H   UNL     1       8.683   5.908  14.309  0.00  0.00    +0.000 HD
ENDBRANCH  33  34
ENDBRANCH  31  33
ENDBRANCH  30  31
ENDBRANCH   1  30
TORSDOF 13
ENDMDL
MODEL 7
REMARK VINA RESULT:      -8.1      1.373      4.093
REMARK  Name = 
REMARK  13 active torsions:
REMARK  status: ('A' for Active; 'I' for Inactive)
REMARK    1  A    between atoms: C_2  and  O_3
REMARK    2  A    between atoms: C_2  and  C_4
REMARK    3  A    between atoms: C_4  and  C_5
REMARK    4  A    between atoms: C_5  and  C_6
REMARK    5  A    between atoms: C_6  and  N_7
REMARK    6  A    between atoms: C_6  and  P_18
REMARK    7  A    between atoms: C_8  and  O_10
REMARK    8  A    between atoms: O_10  and  C_11
REMARK    9  A    between atoms: C_11  and  C_12
REMARK   10  A    between atoms: P_18  and  O_20
REMARK   11  A    between atoms: P_18  and  O_27
REMARK   12  A    between atoms: O_20  and  C_21
REMARK   13  A    between atoms: O_27  and  C_28
REMARK                            x       y       z     vdW  Elec       q    Type
REMARK                         _______ _______ _______ _____ _____    ______ ____
ROOT
ATOM      1  C   UNL     1       5.839   5.222  18.137  0.00  0.00    +0.000 C 
ENDROOT
BRANCH   1   2
ATOM      2  N   UNL     1       6.652   6.349  18.611  0.00  0.00    +0.000 N 
ATOM      3  C   UNL     1       7.913   6.146  19.108  0.00  0.00    +0.000 C 
ATOM      4  O   UNL     1       8.326   5.074  19.522  0.00  0.00    +0.000 OA
ATOM      5  H   UNL     1       6.544   7.258  18.181  0.00  0.00    +0.000 HD
BRANCH   3   6
ATOM      6  O   UNL     1       8.633   7.290  19.053  0.00  0.00    +0.000 OA
BRANCH   6   7
ATOM      7  C   UNL     1       8.166   8.287  18.119  0.00  0.00    +0.000 C 
BRANCH   7   8
ATOM      8  C   UNL     1       8.671   9.690  18.383  0.00  0.00    +0.000 A 
ATOM      9  C   UNL     1       8.345  10.752  17.526  0.00  0.00    +0.000 A 
ATOM     10  C   UNL     1       8.740  12.062  17.823  0.00  0.00    +0.000 A 
ATOM     11  C   UNL     1       9.471  12.327  18.980  0.00  0.00    +0.000 A 
ATOM     12  C   UNL     1       9.804  11.283  19.839  0.00  0.00    +0.000 A 
ATOM     13  C   UNL     1       9.410   9.972  19.541  0.00  0.00    +0.000 A 
ENDBRANCH   7   8
ENDBRANCH   6   7
ENDBRANCH   3   6
ENDBRANCH   1   2
BRANCH   1  14
ATOM     14  P   UNL     1       4.056   5.507  17.804  0.00  0.00    +0.000 P 
ATOM     15  O   UNL     1       3.899   6.130  16.441  0.00  0.00    +0.000 OA
BRANCH  14  16
ATOM     16  O   UNL     1       3.305   4.086  17.950  0.00  0.00    +0.000 OA
BRANCH  16  17
ATOM     17  C   UNL     1       2.649   3.665  19.079  0.00  0.00    +0.000 A 
ATOM     18  C   UNL     1       1.270   3.745  19.269  0.00  0.00    +0.000 A 
ATOM     19  C   UNL     1       0.684   3.235  20.433  0.00  0.00    +0.000 A 
ATOM     20  C   UNL     1       1.478   2.655  21.418  0.00  0.00    +0.000 A 
ATOM     21  C   UNL     1       2.856   2.581  21.242  0.00  0.00    +0.000 A 
ATOM     22  C   UNL     1       3.442   3.087  20.069  0.00  0.00    +0.000 A 
ENDBRANCH  16  17
ENDBRANCH  14  16
BRANCH  14  23
ATOM     23  O   UNL     1       3.478   6.354  19.057  0.00  0.00    +0.000 OA
BRANCH  23  24
ATOM     24  C   UNL     1       2.607   7.409  19.020  0.00  0.00    +0.000 A 
ATOM     25  C   UNL     1       2.389   8.223  17.909  0.00  0.00    +0.000 A 
ATOM     26  C   UNL     1       1.552   9.335  17.998  0.00  0.00    +0.000 A 
ATOM     27  C   UNL     1       0.894   9.622  19.190  0.00  0.00    +0.000 A 
ATOM     28  C   UNL     1       1.065   8.783  20.290  0.00  0.00    +0.000 A 
ATOM     29  C   UNL     1       1.918   7.678  20.204  0.00  0.00    +0.000 A 
ENDBRANCH  23  24
ENDBRANCH  14  23
ENDBRANCH   1  14
BRANCH   1  30
ATOM     30  C   UNL     1       6.531   4.468  16.980  0.00  0.00    +0.000 C 
BRANCH  30  31
ATOM     31  C   UNL     1       7.189   5.330  15.901  0.00  0.00    +0.000 C 
BRANCH  31  33
ATOM     32  O   UNL     1       7.299   5.152  13.487  0.00  0.00    +0.000 OA
ATOM     33  C   UNL     1       6.685   4.952  14.523  0.00  0.00    +0.000 C 
BRANCH  33  34
ATOM     34  O   UNL     1       5.450   4.404  14.536  0.00  0.00    +0.000 OA
ATOM     35  H   UNL     1       5.405   3.481  14.217  0.00  0.00    +0.000 HD
ENDBRANCH  33  34
ENDBRANCH  31  33
ENDBRANCH  30  31
ENDBRANCH   1  30
TORSDOF 13
ENDMDL
MODEL 8
REMARK VINA RESULT:      -8.0      1.462      4.148
REMARK  Name = 
REMARK  13 active torsions:
REMARK  status: ('A' for Active; 'I' for Inactive)
REMARK    1  A    between atoms: C_2  and  O_3
REMARK    2  A    between atoms: C_2  and  C_4
REMARK    3  A    between atoms: C_4  and  C_5
REMARK    4  A    between atoms: C_5  and  C_6
REMARK    5  A    between atoms: C_6  and  N_7
REMARK    6  A    between atoms: C_6  and  P_18
REMARK    7  A    between atoms: C_8  and  O_10
REMARK    8  A    between atoms: O_10  and  C_11
REMARK    9  A    between atoms: C_11  and  C_12
REMARK   10  A    between atoms: P_18  and  O_20
REMARK   11  A    between atoms: P_18  and  O_27
REMARK   12  A    between atoms: O_20  and  C_21
REMARK   13  A    between atoms: O_27  and  C_28
REMARK                            x       y       z     vdW  Elec       q    Type
REMARK                         _______ _______ _______ _____ _____    ______ ____
ROOT
ATOM      1  C   UNL     1       5.172   5.317  17.708  0.00  0.00    +0.000 C 
ENDROOT
BRANCH   1   2
ATOM      2  N   UNL     1       6.188   6.366  17.862  0.00  0.00    +0.000 N 
ATOM      3  C   UNL     1       7.187   6.244  18.791  0.00  0.00    +0.000 C 
ATOM      4  O   UNL     1       7.142   5.502  19.759  0.00  0.00    +0.000 OA
ATOM      5  H   UNL     1       6.466   6.912  17.058  0.00  0.00    +0.000 HD
BRANCH   3   6
ATOM      6  O   UNL     1       8.231   7.044  18.470  0.00  0.00    +0.000 OA
BRANCH   6   7
ATOM      7  C   UNL     1       7.918   8.200  17.664  0.00  0.00    +0.000 C 
BRANCH   7   8
ATOM      8  C   UNL     1       8.439   9.513  18.209  0.00  0.00    +0.000 A 
ATOM      9  C   UNL     1       9.180   9.561  19.400  0.00  0.00    +0.000 A 
ATOM     10  C   UNL     1       9.736  10.764  19.852  0.00  0.00    +0.000 A 
ATOM     11  C   UNL     1       9.555  11.937  19.121  0.00  0.00    +0.000 A 
ATOM     12  C   UNL     1       8.820  11.905  17.938  0.00  0.00    +0.000 A 
ATOM     13  C   UNL     1       8.263  10.702  17.486  0.00  0.00    +0.000 A 
ENDBRANCH   7   8
ENDBRANCH   6   7
ENDBRANCH   3   6
ENDBRANCH   1   2
BRANCH   1  14
ATOM     14  P   UNL     1       3.430   5.716  18.131  0.00  0.00    +0.000 P 
ATOM     15  O   UNL     1       2.509   4.849  17.312  0.00  0.00    +0.000 OA
BRANCH  14  16
ATOM     16  O   UNL     1       3.260   5.509  19.722  0.00  0.00    +0.000 OA
BRANCH  16  17
ATOM     17  C   UNL     1       2.918   4.322  20.321  0.00  0.00    +0.000 A 
ATOM     18  C   UNL     1       3.763   3.218  20.427  0.00  0.00    +0.000 A 
ATOM     19  C   UNL     1       3.344   2.069  21.108  0.00  0.00    +0.000 A 
ATOM     20  C   UNL     1       2.074   2.016  21.673  0.00  0.00    +0.000 A 
ATOM     21  C   UNL     1       1.221   3.109  21.562  0.00  0.00    +0.000 A 
ATOM     22  C   UNL     1       1.645   4.265  20.885  0.00  0.00    +0.000 A 
ENDBRANCH  16  17
ENDBRANCH  14  16
BRANCH  14  23
ATOM     23  O   UNL     1       3.263   7.317  17.954  0.00  0.00    +0.000 OA
BRANCH  23  24
ATOM     24  C   UNL     1       2.275   8.114  18.464  0.00  0.00    +0.000 A 
ATOM     25  C   UNL     1       1.565   9.067  17.736  0.00  0.00    +0.000 A 
ATOM     26  C   UNL     1       0.642   9.900  18.368  0.00  0.00    +0.000 A 
ATOM     27  C   UNL     1       0.392   9.760  19.729  0.00  0.00    +0.000 A 
ATOM     28  C   UNL     1       1.057   8.774  20.455  0.00  0.00    +0.000 A 
ATOM     29  C   UNL     1       1.995   7.952  19.823  0.00  0.00    +0.000 A 
ENDBRANCH  23  24
ENDBRANCH  14  23
ENDBRANCH   1  14
BRANCH   1  30
ATOM     30  C   UNL     1       5.288   4.607  16.341  0.00  0.00    +0.000 C 
BRANCH  30  31
ATOM     31  C   UNL     1       5.678   5.483  15.149  0.00  0.00    +0.000 C 
BRANCH  31  33
ATOM     32  O   UNL     1       7.767   5.398  13.924  0.00  0.00    +0.000 OA
ATOM     33  C   UNL     1       6.766   4.825  14.325  0.00  0.00    +0.000 C 
BRANCH  33  34
ATOM     34  O   UNL     1       6.505   3.533  14.027  0.00  0.00    +0.000 OA
ATOM     35  H   UNL     1       5.610   3.364  13.674  0.00  0.00    +0.000 HD
ENDBRANCH  33  34
ENDBRANCH  31  33
ENDBRANCH  30  31
ENDBRANCH   1  30
TORSDOF 13
ENDMDL
MODEL 9
REMARK VINA RESULT:      -8.0      0.824      1.627
REMARK  Name = 
REMARK  13 active torsions:
REMARK  status: ('A' for Active; 'I' for Inactive)
REMARK    1  A    between atoms: C_2  and  O_3
REMARK    2  A    between atoms: C_2  and  C_4
REMARK    3  A    between atoms: C_4  and  C_5
REMARK    4  A    between atoms: C_5  and  C_6
REMARK    5  A    between atoms: C_6  and  N_7
REMARK    6  A    between atoms: C_6  and  P_18
REMARK    7  A    between atoms: C_8  and  O_10
REMARK    8  A    between atoms: O_10  and  C_11
REMARK    9  A    between atoms: C_11  and  C_12
REMARK   10  A    between atoms: P_18  and  O_20
REMARK   11  A    between atoms: P_18  and  O_27
REMARK   12  A    between atoms: O_20  and  C_21
REMARK   13  A    between atoms: O_27  and  C_28
REMARK                            x       y       z     vdW  Elec       q    Type
REMARK                         _______ _______ _______ _____ _____    ______ ____
ROOT
ATOM      1  C   UNL     1       5.446   6.214  17.449  0.00  0.00    +0.000 C 
ENDROOT
BRANCH   1   2
ATOM      2  N   UNL     1       6.445   7.185  17.913  0.00  0.00    +0.000 N 
ATOM      3  C   UNL     1       7.636   6.766  18.446  0.00  0.00    +0.000 C 
ATOM      4  O   UNL     1       7.834   5.650  18.897  0.00  0.00    +0.000 OA
ATOM      5  H   UNL     1       6.516   8.084  17.457  0.00  0.00    +0.000 HD
BRANCH   3   6
ATOM      6  O   UNL     1       8.557   7.755  18.378  0.00  0.00    +0.000 OA
BRANCH   6   7
ATOM      7  C   UNL     1       8.121   8.986  17.762  0.00  0.00    +0.000 C 
BRANCH   7   8
ATOM      8  C   UNL     1       8.741  10.239  18.342  0.00  0.00    +0.000 A 
ATOM      9  C   UNL     1       8.581  11.485  17.714  0.00  0.00    +0.000 A 
ATOM     10  C   UNL     1       9.081  12.654  18.301  0.00  0.00    +0.000 A 
ATOM     11  C   UNL     1       9.751  12.594  19.522  0.00  0.00    +0.000 A 
ATOM     12  C   UNL     1       9.919  11.365  20.156  0.00  0.00    +0.000 A 
ATOM     13  C   UNL     1       9.420  10.194  19.568  0.00  0.00    +0.000 A 
ENDBRANCH   7   8
ENDBRANCH   6   7
ENDBRANCH   3   6
ENDBRANCH   1   2
BRANCH   1  14
ATOM     14  P   UNL     1       3.753   6.294  18.155  0.00  0.00    +0.000 P 
ATOM     15  O   UNL     1       3.839   6.230  19.659  0.00  0.00    +0.000 OA
BRANCH  14  16
ATOM     16  O   UNL     1       3.066   7.650  17.610  0.00  0.00    +0.000 OA
BRANCH  16  17
ATOM     17  C   UNL     1       2.240   8.457  18.350  0.00  0.00    +0.000 A 
ATOM     18  C   UNL     1       1.694   9.658  17.898  0.00  0.00    +0.000 A 
ATOM     19  C   UNL     1       0.814  10.384  18.708  0.00  0.00    +0.000 A 
ATOM     20  C   UNL     1       0.486   9.919  19.977  0.00  0.00    +0.000 A 
ATOM     21  C   UNL     1       1.035   8.728  20.441  0.00  0.00    +0.000 A 
ATOM     22  C   UNL     1       1.914   7.995  19.624  0.00  0.00    +0.000 A 
ENDBRANCH  16  17
ENDBRANCH  14  16
BRANCH  14  23
ATOM     23  O   UNL     1       2.890   5.133  17.429  0.00  0.00    +0.000 OA
BRANCH  23  24
ATOM     24  C   UNL     1       2.567   3.899  17.926  0.00  0.00    +0.000 A 
ATOM     25  C   UNL     1       3.434   2.809  17.974  0.00  0.00    +0.000 A 
ATOM     26  C   UNL     1       2.984   1.563  18.410  0.00  0.00    +0.000 A 
ATOM     27  C   UNL     1       1.670   1.406  18.840  0.00  0.00    +0.000 A 
ATOM     28  C   UNL     1       0.811   2.503  18.845  0.00  0.00    +0.000 A 
ATOM     29  C   UNL     1       1.260   3.747  18.391  0.00  0.00    +0.000 A 
ENDBRANCH  23  24
ENDBRANCH  14  23
ENDBRANCH   1  14
BRANCH   1  30
ATOM     30  C   UNL     1       5.426   6.111  15.907  0.00  0.00    +0.000 C 
BRANCH  30  31
ATOM     31  C   UNL     1       5.533   4.704  15.317  0.00  0.00    +0.000 C 
BRANCH  31  33
ATOM     32  O   UNL     1       6.521   3.972  13.229  0.00  0.00    +0.000 OA
ATOM     33  C   UNL     1       6.602   4.646  14.244  0.00  0.00    +0.000 C 
BRANCH  33  34
ATOM     34  O   UNL     1       7.694   5.385  14.536  0.00  0.00    +0.000 OA
ATOM     35  H   UNL     1       7.559   6.070  15.218  0.00  0.00    +0.000 HD
ENDBRANCH  33  34
ENDBRANCH  31  33
ENDBRANCH  30  31
ENDBRANCH   1  30
TORSDOF 13
ENDMDL
