MODEL 1
REMARK VINA RESULT:      -7.7      0.000      0.000
REMARK  Name = 
REMARK  6 active torsions:
REMARK  status: ('A' for Active; 'I' for Inactive)
REMARK    1  A    between atoms: C_1  and  C_2
REMARK    2  A    between atoms: C_5  and  C_6
REMARK    3  A    between atoms: N_12  and  C_13
REMARK    4  A    between atoms: C_13  and  C_14
REMARK    5  A    between atoms: C_14  and  C_15
REMARK    6  A    between atoms: C_17  and  O_18
REMARK                            x       y       z     vdW  Elec       q    Type
REMARK                         _______ _______ _______ _____ _____    ______ ____
ROOT
ATOM      1  C   UNL     1       0.972   4.113  20.352  0.00  0.00    +0.000 C 
ATOM      2  C   UNL     1       1.938   3.687  19.303  0.00  0.00    +0.000 A 
ATOM      3  C   UNL     1       1.953   2.491  18.622  0.00  0.00    +0.000 A 
ATOM      4  C   UNL     1       3.066   2.504  17.765  0.00  0.00    +0.000 A 
ATOM      5  C   UNL     1       3.745   3.706  17.925  0.00  0.00    +0.000 A 
ATOM      6  N   UNL     1       3.005   4.453  18.844  0.00  0.00    +0.000 N 
ENDROOT
BRANCH   5   7
ATOM      7  C   UNL     1       4.976   4.107  17.217  0.00  0.00    +0.000 A 
ATOM      8  C   UNL     1       4.940   4.285  15.821  0.00  0.00    +0.000 A 
ATOM      9  C   UNL     1       6.086   4.637  15.105  0.00  0.00    +0.000 A 
ATOM     10  C   UNL     1       7.288   4.845  15.775  0.00  0.00    +0.000 A 
ATOM     11  C   UNL     1       7.347   4.676  17.154  0.00  0.00    +0.000 A 
ATOM     12  C   UNL     1       6.206   4.283  17.862  0.00  0.00    +0.000 A 
ENDBRANCH   5   7
BRANCH   6  13
ATOM     13  C   UNL     1       3.292   5.814  19.296  0.00  0.00    +0.000 C 
BRANCH  13  14
ATOM     14  C   UNL     1       3.121   6.884  18.212  0.00  0.00    +0.000 C 
BRANCH  14  15
ATOM     15  C   UNL     1       1.934   7.819  18.479  0.00  0.00    +0.000 C 
ATOM     16  C   UNL     1       2.199   9.195  17.889  0.00  0.00    +0.000 C 
ATOM     17  C   UNL     1       1.079  10.136  18.277  0.00  0.00    +0.000 C 
ATOM     18  C   UNL     1       0.955  10.229  19.783  0.00  0.00    +0.000 C 
ATOM     19  C   UNL     1       1.048   8.908  20.502  0.00  0.00    +0.000 C 
ATOM     20  O   UNL     1       0.622   8.784  21.648  0.00  0.00    +0.000 OA
ATOM     21  O   UNL     1       1.710   7.894  19.906  0.00  0.00    +0.000 OA
BRANCH  17  22
ATOM     22  O   UNL     1      -0.146   9.737  17.667  0.00  0.00    +0.000 OA
ATOM     23  H   UNL     1       0.017   9.397  16.770  0.00  0.00    +0.000 HD
ENDBRANCH  17  22
ENDBRANCH  14  15
ENDBRANCH  13  14
ENDBRANCH   6  13
TORSDOF 5
ENDMDL
MODEL 2
REMARK VINA RESULT:      -7.7      3.686      5.097
REMARK  Name = 
REMARK  6 active torsions:
REMARK  status: ('A' for Active; 'I' for Inactive)
REMARK    1  A    between atoms: C_1  and  C_2
REMARK    2  A    between atoms: C_5  and  C_6
REMARK    3  A    between atoms: N_12  and  C_13
REMARK    4  A    between atoms: C_13  and  C_14
REMARK    5  A    between atoms: C_14  and  C_15
REMARK    6  A    between atoms: C_17  and  O_18
REMARK                            x       y       z     vdW  Elec       q    Type
REMARK                         _______ _______ _______ _____ _____    ______ ____
ROOT
ATOM      1  C   UNL     1       4.787   5.641  19.411  0.00  0.00    +0.000 C 
ATOM      2  C   UNL     1       5.670   5.645  18.214  0.00  0.00    +0.000 A 
ATOM      3  C   UNL     1       6.865   6.310  18.063  0.00  0.00    +0.000 A 
ATOM      4  C   UNL     1       7.325   6.068  16.758  0.00  0.00    +0.000 A 
ATOM      5  C   UNL     1       6.407   5.261  16.098  0.00  0.00    +0.000 A 
ATOM      6  N   UNL     1       5.410   4.962  17.030  0.00  0.00    +0.000 N 
ENDROOT
BRANCH   5   7
ATOM      7  C   UNL     1       6.512   4.789  14.703  0.00  0.00    +0.000 A 
ATOM      8  C   UNL     1       7.538   5.293  13.882  0.00  0.00    +0.000 A 
ATOM      9  C   UNL     1       7.660   4.897  12.549  0.00  0.00    +0.000 A 
ATOM     10  C   UNL     1       6.773   3.967  12.016  0.00  0.00    +0.000 A 
ATOM     11  C   UNL     1       5.752   3.455  12.809  0.00  0.00    +0.000 A 
ATOM     12  C   UNL     1       5.608   3.886  14.133  0.00  0.00    +0.000 A 
ENDBRANCH   5   7
BRANCH   6  13
ATOM     13  C   UNL     1       4.250   4.097  16.818  0.00  0.00    +0.000 C 
BRANCH  13  14
ATOM     14  C   UNL     1       4.308   2.771  17.585  0.00  0.00    +0.000 C 
BRANCH  14  15
ATOM     15  C   UNL     1       3.051   2.512  18.427  0.00  0.00    +0.000 C 
ATOM     16  C   UNL     1       1.988   3.558  18.127  0.00  0.00    +0.000 C 
ATOM     17  C   UNL     1       0.812   3.364  19.059  0.00  0.00    +0.000 C 
ATOM     18  C   UNL     1       1.252   3.465  20.504  0.00  0.00    +0.000 C 
ATOM     19  C   UNL     1       2.532   2.737  20.822  0.00  0.00    +0.000 C 
ATOM     20  O   UNL     1       2.814   2.438  21.981  0.00  0.00    +0.000 OA
ATOM     21  O   UNL     1       3.415   2.519  19.826  0.00  0.00    +0.000 OA
BRANCH  17  22
ATOM     22  O   UNL     1       0.155   2.128  18.789  0.00  0.00    +0.000 OA
ATOM     23  H   UNL     1       0.573   1.681  18.033  0.00  0.00    +0.000 HD
ENDBRANCH  17  22
ENDBRANCH  14  15
ENDBRANCH  13  14
ENDBRANCH   6  13
TORSDOF 5
ENDMDL
MODEL 3
REMARK VINA RESULT:      -7.6      0.232      1.051
REMARK  Name = 
REMARK  6 active torsions:
REMARK  status: ('A' for Active; 'I' for Inactive)
REMARK    1  A    between atoms: C_1  and  C_2
REMARK    2  A    between atoms: C_5  and  C_6
REMARK    3  A    between atoms: N_12  and  C_13
REMARK    4  A    between atoms: C_13  and  C_14
REMARK    5  A    between atoms: C_14  and  C_15
REMARK    6  A    between atoms: C_17  and  O_18
REMARK                            x       y       z     vdW  Elec       q    Type
REMARK                         _______ _______ _______ _____ _____    ______ ____
ROOT
ATOM      1  C   UNL     1       1.177   4.153  20.361  0.00  0.00    +0.000 C 
ATOM      2  C   UNL     1       2.034   3.714  19.227  0.00  0.00    +0.000 A 
ATOM      3  C   UNL     1       1.949   2.530  18.529  0.00  0.00    +0.000 A 
ATOM      4  C   UNL     1       2.984   2.521  17.579  0.00  0.00    +0.000 A 
ATOM      5  C   UNL     1       3.716   3.696  17.698  0.00  0.00    +0.000 A 
ATOM      6  N   UNL     1       3.084   4.451  18.689  0.00  0.00    +0.000 N 
ENDROOT
BRANCH   5   7
ATOM      7  C   UNL     1       4.895   4.068  16.892  0.00  0.00    +0.000 A 
ATOM      8  C   UNL     1       6.131   4.270  17.534  0.00  0.00    +0.000 A 
ATOM      9  C   UNL     1       7.267   4.650  16.817  0.00  0.00    +0.000 A 
ATOM     10  C   UNL     1       7.197   4.811  15.437  0.00  0.00    +0.000 A 
ATOM     11  C   UNL     1       5.986   4.617  14.781  0.00  0.00    +0.000 A 
ATOM     12  C   UNL     1       4.840   4.276  15.509  0.00  0.00    +0.000 A 
ENDBRANCH   5   7
BRANCH   6  13
ATOM     13  C   UNL     1       3.457   5.793  19.134  0.00  0.00    +0.000 C 
BRANCH  13  14
ATOM     14  C   UNL     1       3.236   6.887  18.084  0.00  0.00    +0.000 C 
BRANCH  14  15
ATOM     15  C   UNL     1       2.039   7.792  18.407  0.00  0.00    +0.000 C 
ATOM     16  C   UNL     1       2.293   9.206  17.908  0.00  0.00    +0.000 C 
ATOM     17  C   UNL     1       1.162  10.108  18.352  0.00  0.00    +0.000 C 
ATOM     18  C   UNL     1       1.033  10.102  19.860  0.00  0.00    +0.000 C 
ATOM     19  C   UNL     1       1.137   8.739  20.493  0.00  0.00    +0.000 C 
ATOM     20  O   UNL     1       0.709   8.537  21.627  0.00  0.00    +0.000 OA
ATOM     21  O   UNL     1       1.810   7.772  19.834  0.00  0.00    +0.000 OA
BRANCH  17  22
ATOM     22  O   UNL     1      -0.058   9.738  17.713  0.00  0.00    +0.000 OA
ATOM     23  H   UNL     1      -0.139   8.769  17.673  0.00  0.00    +0.000 HD
ENDBRANCH  17  22
ENDBRANCH  14  15
ENDBRANCH  13  14
ENDBRANCH   6  13
TORSDOF 5
ENDMDL
MODEL 4
REMARK VINA RESULT:      -7.6      2.842      5.833
REMARK  Name = 
REMARK  6 active torsions:
REMARK  status: ('A' for Active; 'I' for Inactive)
REMARK    1  A    between atoms: C_1  and  C_2
REMARK    2  A    between atoms: C_5  and  C_6
REMARK    3  A    between atoms: N_12  and  C_13
REMARK    4  A    between atoms: C_13  and  C_14
REMARK    5  A    between atoms: C_14  and  C_15
REMARK    6  A    between atoms: C_17  and  O_18
REMARK                            x       y       z     vdW  Elec       q    Type
REMARK                         _______ _______ _______ _____ _____    ______ ____
ROOT
ATOM      1  C   UNL     1       6.768   3.896  15.393  0.00  0.00    +0.000 C 
ATOM      2  C   UNL     1       6.254   5.079  16.136  0.00  0.00    +0.000 A 
ATOM      3  C   UNL     1       6.908   6.269  16.360  0.00  0.00    +0.000 A 
ATOM      4  C   UNL     1       6.066   7.075  17.143  0.00  0.00    +0.000 A 
ATOM      5  C   UNL     1       4.895   6.378  17.413  0.00  0.00    +0.000 A 
ATOM      6  N   UNL     1       5.003   5.160  16.737  0.00  0.00    +0.000 N 
ENDROOT
BRANCH   5   7
ATOM      7  C   UNL     1       3.758   6.869  18.217  0.00  0.00    +0.000 A 
ATOM      8  C   UNL     1       3.421   6.202  19.409  0.00  0.00    +0.000 A 
ATOM      9  C   UNL     1       2.337   6.613  20.188  0.00  0.00    +0.000 A 
ATOM     10  C   UNL     1       1.583   7.717  19.803  0.00  0.00    +0.000 A 
ATOM     11  C   UNL     1       1.899   8.391  18.628  0.00  0.00    +0.000 A 
ATOM     12  C   UNL     1       2.960   7.952  17.830  0.00  0.00    +0.000 A 
ENDBRANCH   5   7
BRANCH   6  13
ATOM     13  C   UNL     1       3.992   4.105  16.675  0.00  0.00    +0.000 C 
BRANCH  13  14
ATOM     14  C   UNL     1       4.260   2.923  17.614  0.00  0.00    +0.000 C 
BRANCH  14  15
ATOM     15  C   UNL     1       3.027   2.521  18.435  0.00  0.00    +0.000 C 
ATOM     16  C   UNL     1       1.837   3.393  18.065  0.00  0.00    +0.000 C 
ATOM     17  C   UNL     1       0.672   3.070  18.976  0.00  0.00    +0.000 C 
ATOM     18  C   UNL     1       1.050   3.289  20.426  0.00  0.00    +0.000 C 
ATOM     19  C   UNL     1       2.409   2.762  20.805  0.00  0.00    +0.000 C 
ATOM     20  O   UNL     1       2.696   2.551  21.982  0.00  0.00    +0.000 OA
ATOM     21  O   UNL     1       3.344   2.634  19.841  0.00  0.00    +0.000 OA
BRANCH  17  22
ATOM     22  O   UNL     1       0.205   1.744  18.743  0.00  0.00    +0.000 OA
ATOM     23  H   UNL     1       0.809   1.272  18.145  0.00  0.00    +0.000 HD
ENDBRANCH  17  22
ENDBRANCH  14  15
ENDBRANCH  13  14
ENDBRANCH   6  13
TORSDOF 5
ENDMDL
MODEL 5
REMARK VINA RESULT:      -7.6      2.779      5.731
REMARK  Name = 
REMARK  6 active torsions:
REMARK  status: ('A' for Active; 'I' for Inactive)
REMARK    1  A    between atoms: C_1  and  C_2
REMARK    2  A    between atoms: C_5  and  C_6
REMARK    3  A    between atoms: N_12  and  C_13
REMARK    4  A    between atoms: C_13  and  C_14
REMARK    5  A    between atoms: C_14  and  C_15
REMARK    6  A    between atoms: C_17  and  O_18
REMARK                            x       y       z     vdW  Elec       q    Type
REMARK                         _______ _______ _______ _____ _____    ______ ____
ROOT
ATOM      1  C   UNL     1       6.843   3.882  15.568  0.00  0.00    +0.000 C 
ATOM      2  C   UNL     1       6.314   5.081  16.273  0.00  0.00    +0.000 A 
ATOM      3  C   UNL     1       6.979   6.259  16.527  0.00  0.00    +0.000 A 
ATOM      4  C   UNL     1       6.112   7.088  17.257  0.00  0.00    +0.000 A 
ATOM      5  C   UNL     1       4.914   6.418  17.463  0.00  0.00    +0.000 A 
ATOM      6  N   UNL     1       5.032   5.193  16.803  0.00  0.00    +0.000 N 
ENDROOT
BRANCH   5   7
ATOM      7  C   UNL     1       3.744   6.939  18.199  0.00  0.00    +0.000 A 
ATOM      8  C   UNL     1       3.065   8.067  17.702  0.00  0.00    +0.000 A 
ATOM      9  C   UNL     1       1.972   8.611  18.378  0.00  0.00    +0.000 A 
ATOM     10  C   UNL     1       1.517   8.022  19.553  0.00  0.00    +0.000 A 
ATOM     11  C   UNL     1       2.172   6.906  20.063  0.00  0.00    +0.000 A 
ATOM     12  C   UNL     1       3.293   6.388  19.404  0.00  0.00    +0.000 A 
ENDBRANCH   5   7
BRANCH   6  13
ATOM     13  C   UNL     1       4.004   4.159  16.690  0.00  0.00    +0.000 C 
BRANCH  13  14
ATOM     14  C   UNL     1       4.228   2.949  17.603  0.00  0.00    +0.000 C 
BRANCH  14  15
ATOM     15  C   UNL     1       2.995   2.605  18.451  0.00  0.00    +0.000 C 
ATOM     16  C   UNL     1       1.839   3.530  18.105  0.00  0.00    +0.000 C 
ATOM     17  C   UNL     1       0.681   3.262  19.041  0.00  0.00    +0.000 C 
ATOM     18  C   UNL     1       1.099   3.464  20.482  0.00  0.00    +0.000 C 
ATOM     19  C   UNL     1       2.440   2.876  20.834  0.00  0.00    +0.000 C 
ATOM     20  O   UNL     1       2.742   2.653  22.004  0.00  0.00    +0.000 OA
ATOM     21  O   UNL     1       3.347   2.704  19.850  0.00  0.00    +0.000 OA
BRANCH  17  22
ATOM     22  O   UNL     1       0.148   1.958  18.820  0.00  0.00    +0.000 OA
ATOM     23  H   UNL     1       0.202   1.427  19.634  0.00  0.00    +0.000 HD
ENDBRANCH  17  22
ENDBRANCH  14  15
ENDBRANCH  13  14
ENDBRANCH   6  13
TORSDOF 5
ENDMDL
MODEL 6
REMARK VINA RESULT:      -7.6      0.998      1.902
REMARK  Name = 
REMARK  6 active torsions:
REMARK  status: ('A' for Active; 'I' for Inactive)
REMARK    1  A    between atoms: C_1  and  C_2
REMARK    2  A    between atoms: C_5  and  C_6
REMARK    3  A    between atoms: N_12  and  C_13
REMARK    4  A    between atoms: C_13  and  C_14
REMARK    5  A    between atoms: C_14  and  C_15
REMARK    6  A    between atoms: C_17  and  O_18
REMARK                            x       y       z     vdW  Elec       q    Type
REMARK                         _______ _______ _______ _____ _____    ______ ____
ROOT
ATOM      1  C   UNL     1       1.287   3.494  20.921  0.00  0.00    +0.000 C 
ATOM      2  C   UNL     1       2.180   3.223  19.762  0.00  0.00    +0.000 A 
ATOM      3  C   UNL     1       2.256   2.065  19.023  0.00  0.00    +0.000 A 
ATOM      4  C   UNL     1       3.267   2.239  18.063  0.00  0.00    +0.000 A 
ATOM      5  C   UNL     1       3.822   3.502  18.216  0.00  0.00    +0.000 A 
ATOM      6  N   UNL     1       3.104   4.123  19.240  0.00  0.00    +0.000 N 
ENDROOT
BRANCH   5   7
ATOM      7  C   UNL     1       4.923   4.069  17.411  0.00  0.00    +0.000 A 
ATOM      8  C   UNL     1       4.694   4.386  16.060  0.00  0.00    +0.000 A 
ATOM      9  C   UNL     1       5.711   4.898  15.252  0.00  0.00    +0.000 A 
ATOM     10  C   UNL     1       6.974   5.129  15.788  0.00  0.00    +0.000 A 
ATOM     11  C   UNL     1       7.223   4.825  17.122  0.00  0.00    +0.000 A 
ATOM     12  C   UNL     1       6.212   4.274  17.917  0.00  0.00    +0.000 A 
ENDBRANCH   5   7
BRANCH   6  13
ATOM     13  C   UNL     1       3.286   5.489  19.730  0.00  0.00    +0.000 C 
BRANCH  13  14
ATOM     14  C   UNL     1       2.432   6.535  19.003  0.00  0.00    +0.000 C 
BRANCH  14  15
ATOM     15  C   UNL     1       2.146   7.774  19.864  0.00  0.00    +0.000 C 
ATOM     16  C   UNL     1       1.186   7.427  20.991  0.00  0.00    +0.000 C 
ATOM     17  C   UNL     1       0.815   8.686  21.744  0.00  0.00    +0.000 C 
ATOM     18  C   UNL     1       0.185   9.700  20.814  0.00  0.00    +0.000 C 
ATOM     19  C   UNL     1       0.881   9.851  19.486  0.00  0.00    +0.000 C 
ATOM     20  O   UNL     1       0.708  10.854  18.796  0.00  0.00    +0.000 OA
ATOM     21  O   UNL     1       1.609   8.816  19.018  0.00  0.00    +0.000 OA
BRANCH  17  22
ATOM     22  O   UNL     1       1.951   9.220  22.420  0.00  0.00    +0.000 OA
ATOM     23  H   UNL     1       2.772   8.874  22.028  0.00  0.00    +0.000 HD
ENDBRANCH  17  22
ENDBRANCH  14  15
ENDBRANCH  13  14
ENDBRANCH   6  13
TORSDOF 5
ENDMDL
MODEL 7
REMARK VINA RESULT:      -7.5      0.997      2.161
REMARK  Name = 
REMARK  6 active torsions:
REMARK  status: ('A' for Active; 'I' for Inactive)
REMARK    1  A    between atoms: C_1  and  C_2
REMARK    2  A    between atoms: C_5  and  C_6
REMARK    3  A    between atoms: N_12  and  C_13
REMARK    4  A    between atoms: C_13  and  C_14
REMARK    5  A    between atoms: C_14  and  C_15
REMARK    6  A    between atoms: C_17  and  O_18
REMARK                            x       y       z     vdW  Elec       q    Type
REMARK                         _______ _______ _______ _____ _____    ______ ____
ROOT
ATOM      1  C   UNL     1       1.424   3.522  21.037  0.00  0.00    +0.000 C 
ATOM      2  C   UNL     1       2.267   3.223  19.848  0.00  0.00    +0.000 A 
ATOM      3  C   UNL     1       2.314   2.046  19.136  0.00  0.00    +0.000 A 
ATOM      4  C   UNL     1       3.282   2.197  18.129  0.00  0.00    +0.000 A 
ATOM      5  C   UNL     1       3.841   3.465  18.226  0.00  0.00    +0.000 A 
ATOM      6  N   UNL     1       3.165   4.111  19.264  0.00  0.00    +0.000 N 
ENDROOT
BRANCH   5   7
ATOM      7  C   UNL     1       4.904   4.014  17.361  0.00  0.00    +0.000 A 
ATOM      8  C   UNL     1       6.176   4.263  17.908  0.00  0.00    +0.000 A 
ATOM      9  C   UNL     1       7.203   4.807  17.135  0.00  0.00    +0.000 A 
ATOM     10  C   UNL     1       6.987   5.089  15.790  0.00  0.00    +0.000 A 
ATOM     11  C   UNL     1       5.739   4.849  15.228  0.00  0.00    +0.000 A 
ATOM     12  C   UNL     1       4.699   4.342  16.015  0.00  0.00    +0.000 A 
ENDBRANCH   5   7
BRANCH   6  13
ATOM     13  C   UNL     1       3.364   5.489  19.711  0.00  0.00    +0.000 C 
BRANCH  13  14
ATOM     14  C   UNL     1       2.488   6.517  18.984  0.00  0.00    +0.000 C 
BRANCH  14  15
ATOM     15  C   UNL     1       2.172   7.747  19.846  0.00  0.00    +0.000 C 
ATOM     16  C   UNL     1       1.220   7.375  20.973  0.00  0.00    +0.000 C 
ATOM     17  C   UNL     1       0.820   8.624  21.727  0.00  0.00    +0.000 C 
ATOM     18  C   UNL     1       0.165   9.625  20.799  0.00  0.00    +0.000 C 
ATOM     19  C   UNL     1       0.858   9.794  19.472  0.00  0.00    +0.000 C 
ATOM     20  O   UNL     1       0.661  10.793  18.782  0.00  0.00    +0.000 OA
ATOM     21  O   UNL     1       1.610   8.778  19.002  0.00  0.00    +0.000 OA
BRANCH  17  22
ATOM     22  O   UNL     1       1.943   9.184  22.405  0.00  0.00    +0.000 OA
ATOM     23  H   UNL     1       1.650   9.844  23.057  0.00  0.00    +0.000 HD
ENDBRANCH  17  22
ENDBRANCH  14  15
ENDBRANCH  13  14
ENDBRANCH   6  13
TORSDOF 5
ENDMDL
MODEL 8
REMARK VINA RESULT:      -7.5      1.539      4.170
REMARK  Name = 
REMARK  6 active torsions:
REMARK  status: ('A' for Active; 'I' for Inactive)
REMARK    1  A    between atoms: C_1  and  C_2
REMARK    2  A    between atoms: C_5  and  C_6
REMARK    3  A    between atoms: N_12  and  C_13
REMARK    4  A    between atoms: C_13  and  C_14
REMARK    5  A    between atoms: C_14  and  C_15
REMARK    6  A    between atoms: C_17  and  O_18
REMARK                            x       y       z     vdW  Elec       q    Type
REMARK                         _______ _______ _______ _____ _____    ______ ____
ROOT
ATOM      1  C   UNL     1       5.302   6.539  15.843  0.00  0.00    +0.000 C 
ATOM      2  C   UNL     1       4.764   5.335  16.534  0.00  0.00    +0.000 A 
ATOM      3  C   UNL     1       4.837   4.029  16.108  0.00  0.00    +0.000 A 
ATOM      4  C   UNL     1       4.156   3.237  17.047  0.00  0.00    +0.000 A 
ATOM      5  C   UNL     1       3.652   4.057  18.048  0.00  0.00    +0.000 A 
ATOM      6  N   UNL     1       4.081   5.351  17.746  0.00  0.00    +0.000 N 
ENDROOT
BRANCH   5   7
ATOM      7  C   UNL     1       2.862   3.615  19.215  0.00  0.00    +0.000 A 
ATOM      8  C   UNL     1       1.465   3.784  19.204  0.00  0.00    +0.000 A 
ATOM      9  C   UNL     1       0.681   3.407  20.295  0.00  0.00    +0.000 A 
ATOM     10  C   UNL     1       1.275   2.830  21.413  0.00  0.00    +0.000 A 
ATOM     11  C   UNL     1       2.654   2.653  21.446  0.00  0.00    +0.000 A 
ATOM     12  C   UNL     1       3.441   3.069  20.367  0.00  0.00    +0.000 A 
ENDBRANCH   5   7
BRANCH   6  13
ATOM     13  C   UNL     1       3.845   6.556  18.539  0.00  0.00    +0.000 C 
BRANCH  13  14
ATOM     14  C   UNL     1       2.463   7.186  18.328  0.00  0.00    +0.000 C 
BRANCH  14  15
ATOM     15  C   UNL     1       2.060   8.137  19.464  0.00  0.00    +0.000 C 
ATOM     16  C   UNL     1       1.399   7.363  20.594  0.00  0.00    +0.000 C 
ATOM     17  C   UNL     1       0.893   8.333  21.640  0.00  0.00    +0.000 C 
ATOM     18  C   UNL     1      -0.089   9.312  21.033  0.00  0.00    +0.000 C 
ATOM     19  C   UNL     1       0.328   9.870  19.697  0.00  0.00    +0.000 C 
ATOM     20  O   UNL     1      -0.171  10.907  19.265  0.00  0.00    +0.000 OA
ATOM     21  O   UNL     1       1.176   9.150  18.934  0.00  0.00    +0.000 OA
BRANCH  17  22
ATOM     22  O   UNL     1       1.982   8.998  22.277  0.00  0.00    +0.000 OA
ATOM     23  H   UNL     1       2.144   8.616  23.157  0.00  0.00    +0.000 HD
ENDBRANCH  17  22
ENDBRANCH  14  15
ENDBRANCH  13  14
ENDBRANCH   6  13
TORSDOF 5
ENDMDL
MODEL 9
REMARK VINA RESULT:      -7.5      1.554      4.285
REMARK  Name = 
REMARK  6 active torsions:
REMARK  status: ('A' for Active; 'I' for Inactive)
REMARK    1  A    between atoms: C_1  and  C_2
REMARK    2  A    between atoms: C_5  and  C_6
REMARK    3  A    between atoms: N_12  and  C_13
REMARK    4  A    between atoms: C_13  and  C_14
REMARK    5  A    between atoms: C_14  and  C_15
REMARK    6  A    between atoms: C_17  and  O_18
REMARK                            x       y       z     vdW  Elec       q    Type
REMARK                         _______ _______ _______ _____ _____    ______ ____
ROOT
ATOM      1  C   UNL     1       5.269   6.718  15.957  0.00  0.00    +0.000 C 
ATOM      2  C   UNL     1       4.724   5.500  16.616  0.00  0.00    +0.000 A 
ATOM      3  C   UNL     1       4.809   4.202  16.166  0.00  0.00    +0.000 A 
ATOM      4  C   UNL     1       4.115   3.390  17.078  0.00  0.00    +0.000 A 
ATOM      5  C   UNL     1       3.591   4.188  18.086  0.00  0.00    +0.000 A 
ATOM      6  N   UNL     1       4.021   5.490  17.816  0.00  0.00    +0.000 N 
ENDROOT
BRANCH   5   7
ATOM      7  C   UNL     1       2.784   3.722  19.231  0.00  0.00    +0.000 A 
ATOM      8  C   UNL     1       3.428   3.117  20.326  0.00  0.00    +0.000 A 
ATOM      9  C   UNL     1       2.704   2.636  21.418  0.00  0.00    +0.000 A 
ATOM     10  C   UNL     1       1.320   2.774  21.450  0.00  0.00    +0.000 A 
ATOM     11  C   UNL     1       0.662   3.370  20.380  0.00  0.00    +0.000 A 
ATOM     12  C   UNL     1       1.388   3.814  19.269  0.00  0.00    +0.000 A 
ENDBRANCH   5   7
BRANCH   6  13
ATOM     13  C   UNL     1       3.767   6.679  18.629  0.00  0.00    +0.000 C 
BRANCH  13  14
ATOM     14  C   UNL     1       2.398   7.325  18.386  0.00  0.00    +0.000 C 
BRANCH  14  15
ATOM     15  C   UNL     1       1.988   8.293  19.503  0.00  0.00    +0.000 C 
ATOM     16  C   UNL     1       1.438   7.525  20.695  0.00  0.00    +0.000 C 
ATOM     17  C   UNL     1       0.920   8.502  21.729  0.00  0.00    +0.000 C 
ATOM     18  C   UNL     1      -0.156   9.387  21.137  0.00  0.00    +0.000 C 
ATOM     19  C   UNL     1       0.155   9.916  19.761  0.00  0.00    +0.000 C 
ATOM     20  O   UNL     1      -0.435  10.898  19.316  0.00  0.00    +0.000 OA
ATOM     21  O   UNL     1       1.011   9.223  18.982  0.00  0.00    +0.000 OA
BRANCH  17  22
ATOM     22  O   UNL     1       1.990   9.264  22.282  0.00  0.00    +0.000 OA
ATOM     23  H   UNL     1       2.698   8.675  22.597  0.00  0.00    +0.000 HD
ENDBRANCH  17  22
ENDBRANCH  14  15
ENDBRANCH  13  14
ENDBRANCH   6  13
TORSDOF 5
ENDMDL
