MODEL 1
REMARK VINA RESULT:      -7.1      0.000      0.000
REMARK  Name = 
REMARK  2 active torsions:
REMARK  status: ('A' for Active; 'I' for Inactive)
REMARK    1  A    between atoms: C_2  and  C_3
REMARK    2  A    between atoms: C_15  and  C_16
REMARK                            x       y       z     vdW  Elec       q    Type
REMARK                         _______ _______ _______ _____ _____    ______ ____
ROOT
ATOM      1  O   UNL     1      -5.773  12.372  24.223  0.00  0.00    +0.000 OA
ATOM      2  C   UNL     1      -5.305  13.138  23.383  0.00  0.00    +0.000 C 
ATOM      3  N   UNL     1      -5.878  13.265  22.109  0.00  0.00    +0.000 N 
ATOM      4  C   UNL     1      -5.367  13.999  20.948  0.00  0.00    +0.000 C 
ATOM      5  C   UNL     1      -4.767  12.999  19.952  0.00  0.00    +0.000 C 
ATOM      6  N   UNL     1      -5.656  11.871  19.738  0.00  0.00    +0.000 N 
ATOM      7  C   UNL     1      -5.578  10.895  18.767  0.00  0.00    +0.000 A 
ATOM      8  C   UNL     1      -6.747  10.174  18.963  0.00  0.00    +0.000 A 
ATOM      9  N   UNL     1      -7.452  10.618  20.054  0.00  0.00    +0.000 NA
ATOM     10  C   UNL     1      -6.744  11.610  20.548  0.00  0.00    +0.000 A 
ATOM     11  C   UNL     1      -7.033  12.417  21.780  0.00  0.00    +0.000 C 
ENDROOT
BRANCH   2  12
ATOM     12  C   UNL     1      -4.096  13.927  23.776  0.00  0.00    +0.000 A 
ATOM     13  C   UNL     1      -4.239  15.212  24.321  0.00  0.00    +0.000 A 
ATOM     14  C   UNL     1      -3.138  15.935  24.782  0.00  0.00    +0.000 A 
ATOM     15  C   UNL     1      -1.860  15.423  24.610  0.00  0.00    +0.000 A 
ATOM     16 CL   UNL     1      -0.505  16.307  25.189  0.00  0.00    +0.000 Cl
ATOM     17  C   UNL     1      -1.679  14.205  23.962  0.00  0.00    +0.000 A 
ATOM     18  C   UNL     1      -2.791  13.452  23.551  0.00  0.00    +0.000 A 
ATOM     19 CL   UNL     1      -2.439  11.938  22.791  0.00  0.00    +0.000 Cl
ENDBRANCH   2  12
BRANCH   7  20
ATOM     20  C   UNL     1      -4.516  10.721  17.771  0.00  0.00    +0.000 A 
ATOM     21  C   UNL     1      -3.393   9.921  18.031  0.00  0.00    +0.000 A 
ATOM     22  C   UNL     1      -2.367   9.787  17.090  0.00  0.00    +0.000 A 
ATOM     23  C   UNL     1      -2.468  10.419  15.856  0.00  0.00    +0.000 A 
ATOM     24  C   UNL     1      -3.604  11.168  15.557  0.00  0.00    +0.000 A 
ATOM     25  C   UNL     1      -4.617  11.322  16.509  0.00  0.00    +0.000 A 
ENDBRANCH   7  20
TORSDOF 2
ENDMDL
MODEL 2
REMARK VINA RESULT:      -6.9      1.075      1.758
REMARK  Name = 
REMARK  2 active torsions:
REMARK  status: ('A' for Active; 'I' for Inactive)
REMARK    1  A    between atoms: C_2  and  C_3
REMARK    2  A    between atoms: C_15  and  C_16
REMARK                            x       y       z     vdW  Elec       q    Type
REMARK                         _______ _______ _______ _____ _____    ______ ____
ROOT
ATOM      1  O   UNL     1      -5.624  12.399  24.196  0.00  0.00    +0.000 OA
ATOM      2  C   UNL     1      -5.196  13.165  23.335  0.00  0.00    +0.000 C 
ATOM      3  N   UNL     1      -5.810  13.271  22.078  0.00  0.00    +0.000 N 
ATOM      4  C   UNL     1      -5.348  14.002  20.895  0.00  0.00    +0.000 C 
ATOM      5  C   UNL     1      -4.763  13.002  19.890  0.00  0.00    +0.000 C 
ATOM      6  N   UNL     1      -5.639  11.857  19.714  0.00  0.00    +0.000 N 
ATOM      7  C   UNL     1      -5.575  10.874  18.749  0.00  0.00    +0.000 A 
ATOM      8  C   UNL     1      -6.725  10.135  18.989  0.00  0.00    +0.000 A 
ATOM      9  N   UNL     1      -7.403  10.578  20.097  0.00  0.00    +0.000 NA
ATOM     10  C   UNL     1      -6.696  11.587  20.560  0.00  0.00    +0.000 A 
ATOM     11  C   UNL     1      -6.960  12.401  21.793  0.00  0.00    +0.000 C 
ENDROOT
BRANCH   2  12
ATOM     12  C   UNL     1      -3.988  13.978  23.682  0.00  0.00    +0.000 A 
ATOM     13  C   UNL     1      -2.711  13.399  23.631  0.00  0.00    +0.000 A 
ATOM     14  C   UNL     1      -1.559  14.154  23.859  0.00  0.00    +0.000 A 
ATOM     15  C   UNL     1      -1.675  15.481  24.244  0.00  0.00    +0.000 A 
ATOM     16 CL   UNL     1      -0.257  16.415  24.512  0.00  0.00    +0.000 Cl
ATOM     17  C   UNL     1      -2.932  16.050  24.421  0.00  0.00    +0.000 A 
ATOM     18  C   UNL     1      -4.089  15.306  24.135  0.00  0.00    +0.000 A 
ATOM     19 CL   UNL     1      -5.593  16.132  24.357  0.00  0.00    +0.000 Cl
ENDBRANCH   2  12
BRANCH   7  20
ATOM     20  C   UNL     1      -4.541  10.707  17.723  0.00  0.00    +0.000 A 
ATOM     21  C   UNL     1      -4.630  11.355  16.482  0.00  0.00    +0.000 A 
ATOM     22  C   UNL     1      -3.658  11.165  15.495  0.00  0.00    +0.000 A 
ATOM     23  C   UNL     1      -2.559  10.352  15.749  0.00  0.00    +0.000 A 
ATOM     24  C   UNL     1      -2.423   9.748  16.997  0.00  0.00    +0.000 A 
ATOM     25  C   UNL     1      -3.409   9.920  17.975  0.00  0.00    +0.000 A 
ENDBRANCH   7  20
TORSDOF 2
ENDMDL
MODEL 3
REMARK VINA RESULT:      -6.6      5.208      6.278
REMARK  Name = 
REMARK  2 active torsions:
REMARK  status: ('A' for Active; 'I' for Inactive)
REMARK    1  A    between atoms: C_2  and  C_3
REMARK    2  A    between atoms: C_15  and  C_16
REMARK                            x       y       z     vdW  Elec       q    Type
REMARK                         _______ _______ _______ _____ _____    ______ ____
ROOT
ATOM      1  O   UNL     1      -0.252  15.206  22.588  0.00  0.00    +0.000 OA
ATOM      2  C   UNL     1      -0.668  14.760  21.521  0.00  0.00    +0.000 C 
ATOM      3  N   UNL     1      -1.249  13.486  21.436  0.00  0.00    +0.000 N 
ATOM      4  C   UNL     1      -1.647  12.742  20.238  0.00  0.00    +0.000 C 
ATOM      5  C   UNL     1      -0.601  11.656  19.957  0.00  0.00    +0.000 C 
ATOM      6  N   UNL     1      -0.266  10.922  21.164  0.00  0.00    +0.000 N 
ATOM      7  C   UNL     1       0.449   9.749  21.277  0.00  0.00    +0.000 A 
ATOM      8  C   UNL     1       0.339   9.452  22.629  0.00  0.00    +0.000 A 
ATOM      9  N   UNL     1      -0.320  10.438  23.322  0.00  0.00    +0.000 NA
ATOM     10  C   UNL     1      -0.627  11.351  22.426  0.00  0.00    +0.000 A 
ATOM     11  C   UNL     1      -1.308  12.668  22.657  0.00  0.00    +0.000 C 
ENDROOT
BRANCH   2  12
ATOM     12  C   UNL     1      -0.523  15.632  20.313  0.00  0.00    +0.000 A 
ATOM     13  C   UNL     1      -1.553  16.513  19.954  0.00  0.00    +0.000 A 
ATOM     14  C   UNL     1      -1.411  17.405  18.888  0.00  0.00    +0.000 A 
ATOM     15  C   UNL     1      -0.270  17.354  18.100  0.00  0.00    +0.000 A 
ATOM     16 CL   UNL     1      -0.089  18.459  16.797  0.00  0.00    +0.000 Cl
ATOM     17  C   UNL     1       0.715  16.407  18.359  0.00  0.00    +0.000 A 
ATOM     18  C   UNL     1       0.597  15.550  19.466  0.00  0.00    +0.000 A 
ATOM     19 CL   UNL     1       1.903  14.441  19.706  0.00  0.00    +0.000 Cl
ENDBRANCH   2  12
BRANCH   7  20
ATOM     20  C   UNL     1       1.120   9.013  20.201  0.00  0.00    +0.000 A 
ATOM     21  C   UNL     1       1.202   9.532  18.900  0.00  0.00    +0.000 A 
ATOM     22  C   UNL     1       1.813   8.810  17.870  0.00  0.00    +0.000 A 
ATOM     23  C   UNL     1       2.389   7.572  18.135  0.00  0.00    +0.000 A 
ATOM     24  C   UNL     1       2.371   7.068  19.434  0.00  0.00    +0.000 A 
ATOM     25  C   UNL     1       1.736   7.780  20.458  0.00  0.00    +0.000 A 
ENDBRANCH   7  20
TORSDOF 2
ENDMDL
MODEL 4
REMARK VINA RESULT:      -6.4      5.027      6.110
REMARK  Name = 
REMARK  2 active torsions:
REMARK  status: ('A' for Active; 'I' for Inactive)
REMARK    1  A    between atoms: C_2  and  C_3
REMARK    2  A    between atoms: C_15  and  C_16
REMARK                            x       y       z     vdW  Elec       q    Type
REMARK                         _______ _______ _______ _____ _____    ______ ____
ROOT
ATOM      1  O   UNL     1      -0.426  15.030  22.901  0.00  0.00    +0.000 OA
ATOM      2  C   UNL     1      -0.846  14.613  21.824  0.00  0.00    +0.000 C 
ATOM      3  N   UNL     1      -1.381  13.322  21.697  0.00  0.00    +0.000 N 
ATOM      4  C   UNL     1      -1.775  12.614  20.476  0.00  0.00    +0.000 C 
ATOM      5  C   UNL     1      -0.694  11.581  20.130  0.00  0.00    +0.000 C 
ATOM      6  N   UNL     1      -0.307  10.812  21.299  0.00  0.00    +0.000 N 
ATOM      7  C   UNL     1       0.454   9.663  21.350  0.00  0.00    +0.000 A 
ATOM      8  C   UNL     1       0.382   9.307  22.690  0.00  0.00    +0.000 A 
ATOM      9  N   UNL     1      -0.300  10.237  23.436  0.00  0.00    +0.000 NA
ATOM     10  C   UNL     1      -0.658  11.173  22.584  0.00  0.00    +0.000 A 
ATOM     11  C   UNL     1      -1.384  12.453  22.883  0.00  0.00    +0.000 C 
ENDROOT
BRANCH   2  12
ATOM     12  C   UNL     1      -0.759  15.538  20.651  0.00  0.00    +0.000 A 
ATOM     13  C   UNL     1       0.383  15.536  19.836  0.00  0.00    +0.000 A 
ATOM     14  C   UNL     1       0.456  16.320  18.683  0.00  0.00    +0.000 A 
ATOM     15  C   UNL     1      -0.576  17.198  18.384  0.00  0.00    +0.000 A 
ATOM     16 CL   UNL     1      -0.492  18.153  16.958  0.00  0.00    +0.000 Cl
ATOM     17  C   UNL     1      -1.666  17.310  19.240  0.00  0.00    +0.000 A 
ATOM     18  C   UNL     1      -1.766  16.479  20.369  0.00  0.00    +0.000 A 
ATOM     19 CL   UNL     1      -3.185  16.685  21.336  0.00  0.00    +0.000 Cl
ENDBRANCH   2  12
BRANCH   7  20
ATOM     20  C   UNL     1       1.130   8.998  20.231  0.00  0.00    +0.000 A 
ATOM     21  C   UNL     1       1.740   7.745  20.385  0.00  0.00    +0.000 A 
ATOM     22  C   UNL     1       2.412   7.133  19.322  0.00  0.00    +0.000 A 
ATOM     23  C   UNL     1       2.451   7.748  18.076  0.00  0.00    +0.000 A 
ATOM     24  C   UNL     1       1.799   8.965  17.889  0.00  0.00    +0.000 A 
ATOM     25  C   UNL     1       1.149   9.588  18.960  0.00  0.00    +0.000 A 
ENDBRANCH   7  20
TORSDOF 2
ENDMDL
MODEL 5
REMARK VINA RESULT:      -6.4      4.937      6.096
REMARK  Name = 
REMARK  2 active torsions:
REMARK  status: ('A' for Active; 'I' for Inactive)
REMARK    1  A    between atoms: C_2  and  C_3
REMARK    2  A    between atoms: C_15  and  C_16
REMARK                            x       y       z     vdW  Elec       q    Type
REMARK                         _______ _______ _______ _____ _____    ______ ____
ROOT
ATOM      1  O   UNL     1      -0.412  14.796  23.163  0.00  0.00    +0.000 OA
ATOM      2  C   UNL     1      -0.870  14.413  22.088  0.00  0.00    +0.000 C 
ATOM      3  N   UNL     1      -1.371  13.112  21.927  0.00  0.00    +0.000 N 
ATOM      4  C   UNL     1      -1.801  12.446  20.694  0.00  0.00    +0.000 C 
ATOM      5  C   UNL     1      -0.707  11.466  20.251  0.00  0.00    +0.000 C 
ATOM      6  N   UNL     1      -0.240  10.658  21.365  0.00  0.00    +0.000 N 
ATOM      7  C   UNL     1       0.557   9.534  21.327  0.00  0.00    +0.000 A 
ATOM      8  C   UNL     1       0.560   9.117  22.651  0.00  0.00    +0.000 A 
ATOM      9  N   UNL     1      -0.113   9.990  23.470  0.00  0.00    +0.000 NA
ATOM     10  C   UNL     1      -0.541  10.951  22.680  0.00  0.00    +0.000 A 
ATOM     11  C   UNL     1      -1.290  12.192  23.071  0.00  0.00    +0.000 C 
ENDROOT
BRANCH   2  12
ATOM     12  C   UNL     1      -0.868  15.392  20.956  0.00  0.00    +0.000 A 
ATOM     13  C   UNL     1       0.225  15.451  20.078  0.00  0.00    +0.000 A 
ATOM     14  C   UNL     1       0.217  16.287  18.960  0.00  0.00    +0.000 A 
ATOM     15  C   UNL     1      -0.846  17.156  18.761  0.00  0.00    +0.000 A 
ATOM     16 CL   UNL     1      -0.862  18.176  17.379  0.00  0.00    +0.000 Cl
ATOM     17  C   UNL     1      -1.887  17.206  19.682  0.00  0.00    +0.000 A 
ATOM     18  C   UNL     1      -1.907  16.323  20.775  0.00  0.00    +0.000 A 
ATOM     19 CL   UNL     1      -3.271  16.456  21.830  0.00  0.00    +0.000 Cl
ENDBRANCH   2  12
BRANCH   7  20
ATOM     20  C   UNL     1       1.199   8.943  20.149  0.00  0.00    +0.000 A 
ATOM     21  C   UNL     1       1.240   9.619  18.921  0.00  0.00    +0.000 A 
ATOM     22  C   UNL     1       1.824   9.035  17.792  0.00  0.00    +0.000 A 
ATOM     23  C   UNL     1       2.412   7.778  17.885  0.00  0.00    +0.000 A 
ATOM     24  C   UNL     1       2.434   7.118  19.111  0.00  0.00    +0.000 A 
ATOM     25  C   UNL     1       1.827   7.692  20.233  0.00  0.00    +0.000 A 
ENDBRANCH   7  20
TORSDOF 2
ENDMDL
MODEL 6
REMARK VINA RESULT:      -6.3      9.571     12.843
REMARK  Name = 
REMARK  2 active torsions:
REMARK  status: ('A' for Active; 'I' for Inactive)
REMARK    1  A    between atoms: C_2  and  C_3
REMARK    2  A    between atoms: C_15  and  C_16
REMARK                            x       y       z     vdW  Elec       q    Type
REMARK                         _______ _______ _______ _____ _____    ______ ____
ROOT
ATOM      1  O   UNL     1       4.160   2.501  17.294  0.00  0.00    +0.000 OA
ATOM      2  C   UNL     1       4.786   3.556  17.380  0.00  0.00    +0.000 C 
ATOM      3  N   UNL     1       4.763   4.328  18.551  0.00  0.00    +0.000 N 
ATOM      4  C   UNL     1       5.312   5.668  18.771  0.00  0.00    +0.000 C 
ATOM      5  C   UNL     1       4.162   6.684  18.760  0.00  0.00    +0.000 C 
ATOM      6  N   UNL     1       3.052   6.232  19.581  0.00  0.00    +0.000 N 
ATOM      7  C   UNL     1       1.952   6.952  19.998  0.00  0.00    +0.000 A 
ATOM      8  C   UNL     1       1.311   6.064  20.850  0.00  0.00    +0.000 A 
ATOM      9  N   UNL     1       1.927   4.837  20.877  0.00  0.00    +0.000 NA
ATOM     10  C   UNL     1       2.948   4.940  20.053  0.00  0.00    +0.000 A 
ATOM     11  C   UNL     1       3.925   3.867  19.668  0.00  0.00    +0.000 C 
ENDROOT
BRANCH   2  12
ATOM     12  C   UNL     1       5.572   3.984  16.180  0.00  0.00    +0.000 A 
ATOM     13  C   UNL     1       4.992   3.934  14.904  0.00  0.00    +0.000 A 
ATOM     14  C   UNL     1       5.665   4.413  13.779  0.00  0.00    +0.000 A 
ATOM     15  C   UNL     1       6.974   4.855  13.900  0.00  0.00    +0.000 A 
ATOM     16 CL   UNL     1       7.799   5.456  12.517  0.00  0.00    +0.000 Cl
ATOM     17  C   UNL     1       7.617   4.802  15.132  0.00  0.00    +0.000 A 
ATOM     18  C   UNL     1       6.920   4.375  16.274  0.00  0.00    +0.000 A 
ATOM     19 CL   UNL     1       7.814   4.389  17.755  0.00  0.00    +0.000 Cl
ENDBRANCH   2  12
BRANCH   7  20
ATOM     20  C   UNL     1       1.602   8.327  19.628  0.00  0.00    +0.000 A 
ATOM     21  C   UNL     1       1.778   8.802  18.320  0.00  0.00    +0.000 A 
ATOM     22  C   UNL     1       1.474  10.124  17.984  0.00  0.00    +0.000 A 
ATOM     23  C   UNL     1       0.950  10.983  18.943  0.00  0.00    +0.000 A 
ATOM     24  C   UNL     1       0.711  10.513  20.232  0.00  0.00    +0.000 A 
ATOM     25  C   UNL     1       1.040   9.196  20.574  0.00  0.00    +0.000 A 
ENDBRANCH   7  20
TORSDOF 2
ENDMDL
MODEL 7
REMARK VINA RESULT:      -6.3      6.789      9.129
REMARK  Name = 
REMARK  2 active torsions:
REMARK  status: ('A' for Active; 'I' for Inactive)
REMARK    1  A    between atoms: C_2  and  C_3
REMARK    2  A    between atoms: C_15  and  C_16
REMARK                            x       y       z     vdW  Elec       q    Type
REMARK                         _______ _______ _______ _____ _____    ______ ____
ROOT
ATOM      1  O   UNL     1      -0.877  11.123  18.182  0.00  0.00    +0.000 OA
ATOM      2  C   UNL     1       0.028  11.100  19.015  0.00  0.00    +0.000 C 
ATOM      3  N   UNL     1       0.352  12.233  19.775  0.00  0.00    +0.000 N 
ATOM      4  C   UNL     1       1.484  12.429  20.684  0.00  0.00    +0.000 C 
ATOM      5  C   UNL     1       2.536  13.302  19.986  0.00  0.00    +0.000 C 
ATOM      6  N   UNL     1       1.926  14.461  19.358  0.00  0.00    +0.000 N 
ATOM      7  C   UNL     1       2.549  15.576  18.838  0.00  0.00    +0.000 A 
ATOM      8  C   UNL     1       1.480  16.395  18.503  0.00  0.00    +0.000 A 
ATOM      9  N   UNL     1       0.271  15.779  18.712  0.00  0.00    +0.000 NA
ATOM     10  C   UNL     1       0.563  14.583  19.175  0.00  0.00    +0.000 A 
ATOM     11  C   UNL     1      -0.391  13.476  19.519  0.00  0.00    +0.000 C 
ENDROOT
BRANCH   2  12
ATOM     12  C   UNL     1       0.773   9.812  19.179  0.00  0.00    +0.000 A 
ATOM     13  C   UNL     1       1.517   9.288  18.112  0.00  0.00    +0.000 A 
ATOM     14  C   UNL     1       2.296   8.140  18.262  0.00  0.00    +0.000 A 
ATOM     15  C   UNL     1       2.261   7.439  19.458  0.00  0.00    +0.000 A 
ATOM     16 CL   UNL     1       3.230   6.032  19.648  0.00  0.00    +0.000 Cl
ATOM     17  C   UNL     1       1.438   7.868  20.494  0.00  0.00    +0.000 A 
ATOM     18  C   UNL     1       0.699   9.055  20.363  0.00  0.00    +0.000 A 
ATOM     19 CL   UNL     1      -0.259   9.505  21.731  0.00  0.00    +0.000 Cl
ENDBRANCH   2  12
BRANCH   7  20
ATOM     20  C   UNL     1       3.991  15.808  18.717  0.00  0.00    +0.000 A 
ATOM     21  C   UNL     1       4.803  14.976  17.932  0.00  0.00    +0.000 A 
ATOM     22  C   UNL     1       6.184  15.183  17.848  0.00  0.00    +0.000 A 
ATOM     23  C   UNL     1       6.769  16.251  18.518  0.00  0.00    +0.000 A 
ATOM     24  C   UNL     1       5.970  17.123  19.253  0.00  0.00    +0.000 A 
ATOM     25  C   UNL     1       4.593  16.900  19.357  0.00  0.00    +0.000 A 
ENDBRANCH   7  20
TORSDOF 2
ENDMDL
MODEL 8
REMARK VINA RESULT:      -6.2     10.683     12.637
REMARK  Name = 
REMARK  2 active torsions:
REMARK  status: ('A' for Active; 'I' for Inactive)
REMARK    1  A    between atoms: C_2  and  C_3
REMARK    2  A    between atoms: C_15  and  C_16
REMARK                            x       y       z     vdW  Elec       q    Type
REMARK                         _______ _______ _______ _____ _____    ______ ____
ROOT
ATOM      1  O   UNL     1       4.054  16.995  17.871  0.00  0.00    +0.000 OA
ATOM      2  C   UNL     1       4.311  16.213  18.783  0.00  0.00    +0.000 C 
ATOM      3  N   UNL     1       5.470  16.350  19.561  0.00  0.00    +0.000 N 
ATOM      4  C   UNL     1       6.007  15.432  20.569  0.00  0.00    +0.000 C 
ATOM      5  C   UNL     1       7.193  14.669  19.965  0.00  0.00    +0.000 C 
ATOM      6  N   UNL     1       8.101  15.568  19.274  0.00  0.00    +0.000 N 
ATOM      7  C   UNL     1       9.370  15.303  18.804  0.00  0.00    +0.000 A 
ATOM      8  C   UNL     1       9.799  16.547  18.365  0.00  0.00    +0.000 A 
ATOM      9  N   UNL     1       8.815  17.499  18.466  0.00  0.00    +0.000 NA
ATOM     10  C   UNL     1       7.772  16.872  18.964  0.00  0.00    +0.000 A 
ATOM     11  C   UNL     1       6.405  17.435  19.227  0.00  0.00    +0.000 C 
ENDROOT
BRANCH   2  12
ATOM     12  C   UNL     1       3.337  15.103  19.027  0.00  0.00    +0.000 A 
ATOM     13  C   UNL     1       3.367  13.952  18.226  0.00  0.00    +0.000 A 
ATOM     14  C   UNL     1       2.534  12.861  18.486  0.00  0.00    +0.000 A 
ATOM     15  C   UNL     1       1.584  12.949  19.494  0.00  0.00    +0.000 A 
ATOM     16 CL   UNL     1       0.568  11.603  19.823  0.00  0.00    +0.000 Cl
ATOM     17  C   UNL     1       1.450  14.125  20.225  0.00  0.00    +0.000 A 
ATOM     18  C   UNL     1       2.326  15.200  20.001  0.00  0.00    +0.000 A 
ATOM     19 CL   UNL     1       2.085  16.593  20.998  0.00  0.00    +0.000 Cl
ENDBRANCH   2  12
BRANCH   7  20
ATOM     20  C   UNL     1      10.066  14.012  18.815  0.00  0.00    +0.000 A 
ATOM     21  C   UNL     1      10.008  13.140  17.719  0.00  0.00    +0.000 A 
ATOM     22  C   UNL     1      10.647  11.896  17.750  0.00  0.00    +0.000 A 
ATOM     23  C   UNL     1      11.388  11.522  18.865  0.00  0.00    +0.000 A 
ATOM     24  C   UNL     1      11.506  12.401  19.939  0.00  0.00    +0.000 A 
ATOM     25  C   UNL     1      10.846  13.634  19.917  0.00  0.00    +0.000 A 
ENDBRANCH   7  20
TORSDOF 2
ENDMDL
MODEL 9
REMARK VINA RESULT:      -6.2      4.437      7.760
REMARK  Name = 
REMARK  2 active torsions:
REMARK  status: ('A' for Active; 'I' for Inactive)
REMARK    1  A    between atoms: C_2  and  C_3
REMARK    2  A    between atoms: C_15  and  C_16
REMARK                            x       y       z     vdW  Elec       q    Type
REMARK                         _______ _______ _______ _____ _____    ______ ____
ROOT
ATOM      1  O   UNL     1       2.261  12.577  19.034  0.00  0.00    +0.000 OA
ATOM      2  C   UNL     1       1.265  11.865  18.921  0.00  0.00    +0.000 C 
ATOM      3  N   UNL     1      -0.007  12.416  18.704  0.00  0.00    +0.000 N 
ATOM      4  C   UNL     1      -1.307  11.739  18.704  0.00  0.00    +0.000 C 
ATOM      5  C   UNL     1      -2.027  12.044  20.023  0.00  0.00    +0.000 C 
ATOM      6  N   UNL     1      -1.969  13.461  20.339  0.00  0.00    +0.000 N 
ATOM      7  C   UNL     1      -2.676  14.149  21.302  0.00  0.00    +0.000 A 
ATOM      8  C   UNL     1      -2.321  15.468  21.058  0.00  0.00    +0.000 A 
ATOM      9  N   UNL     1      -1.375  15.575  20.069  0.00  0.00    +0.000 NA
ATOM     10  C   UNL     1      -1.129  14.340  19.686  0.00  0.00    +0.000 A 
ATOM     11  C   UNL     1      -0.131  13.880  18.663  0.00  0.00    +0.000 C 
ENDROOT
BRANCH   2  12
ATOM     12  C   UNL     1       1.465  10.386  19.028  0.00  0.00    +0.000 A 
ATOM     13  C   UNL     1       1.869   9.647  17.906  0.00  0.00    +0.000 A 
ATOM     14  C   UNL     1       2.154   8.283  17.995  0.00  0.00    +0.000 A 
ATOM     15  C   UNL     1       1.938   7.615  19.192  0.00  0.00    +0.000 A 
ATOM     16 CL   UNL     1       2.300   5.939  19.306  0.00  0.00    +0.000 Cl
ATOM     17  C   UNL     1       1.422   8.297  20.288  0.00  0.00    +0.000 A 
ATOM     18  C   UNL     1       1.191   9.681  20.214  0.00  0.00    +0.000 A 
ATOM     19 CL   UNL     1       0.583  10.425  21.653  0.00  0.00    +0.000 Cl
ENDBRANCH   2  12
BRANCH   7  20
ATOM     20  C   UNL     1      -3.591  13.586  22.301  0.00  0.00    +0.000 A 
ATOM     21  C   UNL     1      -4.977  13.553  22.087  0.00  0.00    +0.000 A 
ATOM     22  C   UNL     1      -5.846  13.046  23.058  0.00  0.00    +0.000 A 
ATOM     23  C   UNL     1      -5.339  12.526  24.243  0.00  0.00    +0.000 A 
ATOM     24  C   UNL     1      -3.961  12.495  24.447  0.00  0.00    +0.000 A 
ATOM     25  C   UNL     1      -3.094  13.026  23.486  0.00  0.00    +0.000 A 
ENDBRANCH   7  20
TORSDOF 2
ENDMDL
