MODEL 1
REMARK VINA RESULT:      -7.7      0.000      0.000
REMARK  Name = 
REMARK  6 active torsions:
REMARK  status: ('A' for Active; 'I' for Inactive)
REMARK    1  A    between atoms: C_2  and  C_18
REMARK    2  A    between atoms: N_3  and  C_4
REMARK    3  A    between atoms: C_7  and  O_8
REMARK    4  A    between atoms: O_8  and  C_9
REMARK    5  A    between atoms: C_12  and  O_13
REMARK    6  A    between atoms: C_23  and  N_24
REMARK                            x       y       z     vdW  Elec       q    Type
REMARK                         _______ _______ _______ _____ _____    ______ ____
ROOT
ATOM      1  C   UNL     1       1.433   7.910  20.179  0.00  0.00    +0.000 A 
ATOM      2  C   UNL     1       1.395   6.735  20.936  0.00  0.00    +0.000 A 
ATOM      3  C   UNL     1       2.074   5.591  20.525  0.00  0.00    +0.000 A 
ATOM      4  C   UNL     1       2.800   5.606  19.338  0.00  0.00    +0.000 A 
ATOM      5  C   UNL     1       2.879   6.783  18.589  0.00  0.00    +0.000 A 
ATOM      6  C   UNL     1       2.169   7.919  18.990  0.00  0.00    +0.000 A 
ENDROOT
BRANCH   1   9
ATOM      7  O   UNL     1       1.704   9.477  22.642  0.00  0.00    +0.000 OA
ATOM      8  C   UNL     1       0.907   9.755  21.755  0.00  0.00    +0.000 C 
ATOM      9  N   UNL     1       0.758   9.094  20.549  0.00  0.00    +0.000 N 
ATOM     10  H   UNL     1       0.183   9.519  19.833  0.00  0.00    +0.000 HD
BRANCH   8  11
ATOM     11  C   UNL     1      -0.006  10.893  22.010  0.00  0.00    +0.000 A 
ATOM     12  C   UNL     1      -1.112  10.736  22.861  0.00  0.00    +0.000 A 
ATOM     13  C   UNL     1      -1.870  11.850  23.243  0.00  0.00    +0.000 A 
ATOM     14  C   UNL     1      -1.528  13.128  22.795  0.00  0.00    +0.000 A 
ATOM     15  C   UNL     1      -0.438  13.300  21.945  0.00  0.00    +0.000 A 
ATOM     16  C   UNL     1       0.308  12.181  21.558  0.00  0.00    +0.000 A 
BRANCH  16  17
ATOM     17  N   UNL     1       1.387  12.398  20.613  0.00  0.00    +0.000 N 
ATOM     18  O   UNL     1       1.160  12.091  19.434  0.00  0.00    +0.000 OA
ATOM     19  O   UNL     1       2.395  12.981  21.034  0.00  0.00    +0.000 OA
ENDBRANCH  16  17
ENDBRANCH   8  11
ENDBRANCH   1   9
BRANCH   4  20
ATOM     20  O   UNL     1       3.447   4.437  19.017  0.00  0.00    +0.000 OA
BRANCH  20  21
ATOM     21  C   UNL     1       4.494   4.464  18.127  0.00  0.00    +0.000 A 
ATOM     22  C   UNL     1       5.744   4.771  18.675  0.00  0.00    +0.000 A 
ATOM     23  C   UNL     1       6.874   4.831  17.859  0.00  0.00    +0.000 A 
ATOM     24  C   UNL     1       6.741   4.582  16.498  0.00  0.00    +0.000 A 
ATOM     25  C   UNL     1       5.512   4.246  15.946  0.00  0.00    +0.000 A 
ATOM     26  C   UNL     1       4.391   4.154  16.768  0.00  0.00    +0.000 A 
BRANCH  24  27
ATOM     27  O   UNL     1       7.812   4.647  15.656  0.00  0.00    +0.000 OA
ATOM     28  H   UNL     1       7.640   5.335  14.992  0.00  0.00    +0.000 HD
ENDBRANCH  24  27
ENDBRANCH  20  21
ENDBRANCH   4  20
TORSDOF 6
ENDMDL
MODEL 2
REMARK VINA RESULT:      -7.7      0.619      1.268
REMARK  Name = 
REMARK  6 active torsions:
REMARK  status: ('A' for Active; 'I' for Inactive)
REMARK    1  A    between atoms: C_2  and  C_18
REMARK    2  A    between atoms: N_3  and  C_4
REMARK    3  A    between atoms: C_7  and  O_8
REMARK    4  A    between atoms: O_8  and  C_9
REMARK    5  A    between atoms: C_12  and  O_13
REMARK    6  A    between atoms: C_23  and  N_24
REMARK                            x       y       z     vdW  Elec       q    Type
REMARK                         _______ _______ _______ _____ _____    ______ ____
ROOT
ATOM      1  C   UNL     1       1.560   8.097  19.911  0.00  0.00    +0.000 A 
ATOM      2  C   UNL     1       1.695   6.904  20.629  0.00  0.00    +0.000 A 
ATOM      3  C   UNL     1       2.432   5.838  20.121  0.00  0.00    +0.000 A 
ATOM      4  C   UNL     1       3.042   5.949  18.875  0.00  0.00    +0.000 A 
ATOM      5  C   UNL     1       2.948   7.147  18.162  0.00  0.00    +0.000 A 
ATOM      6  C   UNL     1       2.181   8.203  18.662  0.00  0.00    +0.000 A 
ENDROOT
BRANCH   1   9
ATOM      7  O   UNL     1       1.761   9.471  22.493  0.00  0.00    +0.000 OA
ATOM      8  C   UNL     1       0.941   9.773  21.635  0.00  0.00    +0.000 C 
ATOM      9  N   UNL     1       0.821   9.205  20.379  0.00  0.00    +0.000 N 
ATOM     10  H   UNL     1       0.216   9.653  19.703  0.00  0.00    +0.000 HD
BRANCH   8  11
ATOM     11  C   UNL     1      -0.034  10.831  21.986  0.00  0.00    +0.000 A 
ATOM     12  C   UNL     1      -1.096  10.553  22.862  0.00  0.00    +0.000 A 
ATOM     13  C   UNL     1      -1.911  11.590  23.333  0.00  0.00    +0.000 A 
ATOM     14  C   UNL     1      -1.669  12.911  22.950  0.00  0.00    +0.000 A 
ATOM     15  C   UNL     1      -0.625  13.204  22.075  0.00  0.00    +0.000 A 
ATOM     16  C   UNL     1       0.178  12.160  21.600  0.00  0.00    +0.000 A 
BRANCH  16  17
ATOM     17  N   UNL     1       1.205  12.502  20.633  0.00  0.00    +0.000 N 
ATOM     18  O   UNL     1       2.258  12.970  21.087  0.00  0.00    +0.000 OA
ATOM     19  O   UNL     1       0.993  12.190  19.453  0.00  0.00    +0.000 OA
ENDBRANCH  16  17
ENDBRANCH   8  11
ENDBRANCH   1   9
BRANCH   4  20
ATOM     20  O   UNL     1       3.756   4.851  18.458  0.00  0.00    +0.000 OA
BRANCH  20  21
ATOM     21  C   UNL     1       4.804   5.016  17.584  0.00  0.00    +0.000 A 
ATOM     22  C   UNL     1       4.646   4.412  16.332  0.00  0.00    +0.000 A 
ATOM     23  C   UNL     1       5.653   4.512  15.371  0.00  0.00    +0.000 A 
ATOM     24  C   UNL     1       6.811   5.218  15.674  0.00  0.00    +0.000 A 
ATOM     25  C   UNL     1       6.968   5.847  16.902  0.00  0.00    +0.000 A 
ATOM     26  C   UNL     1       5.948   5.775  17.848  0.00  0.00    +0.000 A 
BRANCH  24  27
ATOM     27  O   UNL     1       7.832   5.328  14.776  0.00  0.00    +0.000 OA
ATOM     28  H   UNL     1       8.596   4.834  15.115  0.00  0.00    +0.000 HD
ENDBRANCH  24  27
ENDBRANCH  20  21
ENDBRANCH   4  20
TORSDOF 6
ENDMDL
MODEL 3
REMARK VINA RESULT:      -7.5      2.076      2.846
REMARK  Name = 
REMARK  6 active torsions:
REMARK  status: ('A' for Active; 'I' for Inactive)
REMARK    1  A    between atoms: C_2  and  C_18
REMARK    2  A    between atoms: N_3  and  C_4
REMARK    3  A    between atoms: C_7  and  O_8
REMARK    4  A    between atoms: O_8  and  C_9
REMARK    5  A    between atoms: C_12  and  O_13
REMARK    6  A    between atoms: C_23  and  N_24
REMARK                            x       y       z     vdW  Elec       q    Type
REMARK                         _______ _______ _______ _____ _____    ______ ____
ROOT
ATOM      1  C   UNL     1       0.772   9.221  19.594  0.00  0.00    +0.000 A 
ATOM      2  C   UNL     1       1.286   9.319  18.297  0.00  0.00    +0.000 A 
ATOM      3  C   UNL     1       2.263   8.438  17.842  0.00  0.00    +0.000 A 
ATOM      4  C   UNL     1       2.747   7.444  18.687  0.00  0.00    +0.000 A 
ATOM      5  C   UNL     1       2.218   7.310  19.973  0.00  0.00    +0.000 A 
ATOM      6  C   UNL     1       1.260   8.217  20.436  0.00  0.00    +0.000 A 
ENDROOT
BRANCH   1   9
ATOM      7  O   UNL     1       1.095  11.446  21.476  0.00  0.00    +0.000 OA
ATOM      8  C   UNL     1       0.008  11.097  21.030  0.00  0.00    +0.000 C 
ATOM      9  N   UNL     1      -0.215  10.093  20.105  0.00  0.00    +0.000 N 
ATOM     10  H   UNL     1      -1.135  10.012  19.694  0.00  0.00    +0.000 HD
BRANCH   8  11
ATOM     11  C   UNL     1      -1.185  11.799  21.556  0.00  0.00    +0.000 A 
ATOM     12  C   UNL     1      -1.620  11.570  22.871  0.00  0.00    +0.000 A 
ATOM     13  C   UNL     1      -2.635  12.360  23.425  0.00  0.00    +0.000 A 
ATOM     14  C   UNL     1      -3.215  13.392  22.683  0.00  0.00    +0.000 A 
ATOM     15  C   UNL     1      -2.801  13.627  21.374  0.00  0.00    +0.000 A 
ATOM     16  C   UNL     1      -1.794  12.826  20.823  0.00  0.00    +0.000 A 
BRANCH  16  17
ATOM     17  N   UNL     1      -1.449  13.058  19.434  0.00  0.00    +0.000 N 
ATOM     18  O   UNL     1      -0.639  13.969  19.209  0.00  0.00    +0.000 OA
ATOM     19  O   UNL     1      -1.895  12.257  18.602  0.00  0.00    +0.000 OA
ENDBRANCH  16  17
ENDBRANCH   8  11
ENDBRANCH   1   9
BRANCH   4  20
ATOM     20  O   UNL     1       3.702   6.615  18.150  0.00  0.00    +0.000 OA
BRANCH  20  21
ATOM     21  C   UNL     1       3.519   5.253  18.192  0.00  0.00    +0.000 A 
ATOM     22  C   UNL     1       4.478   4.536  18.916  0.00  0.00    +0.000 A 
ATOM     23  C   UNL     1       4.390   3.148  19.017  0.00  0.00    +0.000 A 
ATOM     24  C   UNL     1       3.340   2.488  18.390  0.00  0.00    +0.000 A 
ATOM     25  C   UNL     1       2.365   3.190  17.693  0.00  0.00    +0.000 A 
ATOM     26  C   UNL     1       2.436   4.579  17.621  0.00  0.00    +0.000 A 
BRANCH  24  27
ATOM     27  O   UNL     1       3.220   1.130  18.443  0.00  0.00    +0.000 OA
ATOM     28  H   UNL     1       2.647   0.900  19.193  0.00  0.00    +0.000 HD
ENDBRANCH  24  27
ENDBRANCH  20  21
ENDBRANCH   4  20
TORSDOF 6
ENDMDL
MODEL 4
REMARK VINA RESULT:      -7.5      2.089      2.716
REMARK  Name = 
REMARK  6 active torsions:
REMARK  status: ('A' for Active; 'I' for Inactive)
REMARK    1  A    between atoms: C_2  and  C_18
REMARK    2  A    between atoms: N_3  and  C_4
REMARK    3  A    between atoms: C_7  and  O_8
REMARK    4  A    between atoms: O_8  and  C_9
REMARK    5  A    between atoms: C_12  and  O_13
REMARK    6  A    between atoms: C_23  and  N_24
REMARK                            x       y       z     vdW  Elec       q    Type
REMARK                         _______ _______ _______ _____ _____    ______ ____
ROOT
ATOM      1  C   UNL     1       0.704   9.288  19.703  0.00  0.00    +0.000 A 
ATOM      2  C   UNL     1       1.278   8.253  20.446  0.00  0.00    +0.000 A 
ATOM      3  C   UNL     1       2.230   7.405  19.885  0.00  0.00    +0.000 A 
ATOM      4  C   UNL     1       2.618   7.581  18.561  0.00  0.00    +0.000 A 
ATOM      5  C   UNL     1       2.082   8.634  17.815  0.00  0.00    +0.000 A 
ATOM      6  C   UNL     1       1.103   9.462  18.373  0.00  0.00    +0.000 A 
ENDROOT
BRANCH   1   9
ATOM      7  O   UNL     1       1.081  11.567  21.509  0.00  0.00    +0.000 OA
ATOM      8  C   UNL     1      -0.018  11.201  21.111  0.00  0.00    +0.000 C 
ATOM      9  N   UNL     1      -0.268  10.170  20.223  0.00  0.00    +0.000 N 
ATOM     10  H   UNL     1      -1.202  10.075  19.846  0.00  0.00    +0.000 HD
BRANCH   8  11
ATOM     11  C   UNL     1      -1.196  11.914  21.657  0.00  0.00    +0.000 A 
ATOM     12  C   UNL     1      -1.704  11.579  22.922  0.00  0.00    +0.000 A 
ATOM     13  C   UNL     1      -2.700  12.366  23.513  0.00  0.00    +0.000 A 
ATOM     14  C   UNL     1      -3.190  13.498  22.859  0.00  0.00    +0.000 A 
ATOM     15  C   UNL     1      -2.703  13.841  21.599  0.00  0.00    +0.000 A 
ATOM     16  C   UNL     1      -1.715  13.043  21.010  0.00  0.00    +0.000 A 
BRANCH  16  17
ATOM     17  N   UNL     1      -1.293  13.395  19.668  0.00  0.00    +0.000 N 
ATOM     18  O   UNL     1      -1.600  12.603  18.765  0.00  0.00    +0.000 OA
ATOM     19  O   UNL     1      -0.770  14.508  19.516  0.00  0.00    +0.000 OA
ENDBRANCH  16  17
ENDBRANCH   8  11
ENDBRANCH   1   9
BRANCH   4  20
ATOM     20  O   UNL     1       3.569   6.706  18.094  0.00  0.00    +0.000 OA
BRANCH  20  21
ATOM     21  C   UNL     1       3.339   5.353  18.162  0.00  0.00    +0.000 A 
ATOM     22  C   UNL     1       4.360   4.594  18.742  0.00  0.00    +0.000 A 
ATOM     23  C   UNL     1       4.230   3.210  18.854  0.00  0.00    +0.000 A 
ATOM     24  C   UNL     1       3.076   2.597  18.383  0.00  0.00    +0.000 A 
ATOM     25  C   UNL     1       2.042   3.341  17.831  0.00  0.00    +0.000 A 
ATOM     26  C   UNL     1       2.158   4.727  17.750  0.00  0.00    +0.000 A 
BRANCH  24  27
ATOM     27  O   UNL     1       2.910   1.245  18.452  0.00  0.00    +0.000 OA
ATOM     28  H   UNL     1       3.461   0.903  19.175  0.00  0.00    +0.000 HD
ENDBRANCH  24  27
ENDBRANCH  20  21
ENDBRANCH   4  20
TORSDOF 6
ENDMDL
MODEL 5
REMARK VINA RESULT:      -7.5      1.808      3.125
REMARK  Name = 
REMARK  6 active torsions:
REMARK  status: ('A' for Active; 'I' for Inactive)
REMARK    1  A    between atoms: C_2  and  C_18
REMARK    2  A    between atoms: N_3  and  C_4
REMARK    3  A    between atoms: C_7  and  O_8
REMARK    4  A    between atoms: O_8  and  C_9
REMARK    5  A    between atoms: C_12  and  O_13
REMARK    6  A    between atoms: C_23  and  N_24
REMARK                            x       y       z     vdW  Elec       q    Type
REMARK                         _______ _______ _______ _____ _____    ______ ____
ROOT
ATOM      1  C   UNL     1       1.157   8.863  19.633  0.00  0.00    +0.000 A 
ATOM      2  C   UNL     1       1.583   9.084  18.320  0.00  0.00    +0.000 A 
ATOM      3  C   UNL     1       2.456   8.203  17.687  0.00  0.00    +0.000 A 
ATOM      4  C   UNL     1       2.923   7.083  18.368  0.00  0.00    +0.000 A 
ATOM      5  C   UNL     1       2.478   6.828  19.668  0.00  0.00    +0.000 A 
ATOM      6  C   UNL     1       1.627   7.732  20.310  0.00  0.00    +0.000 A 
ENDROOT
BRANCH   1   9
ATOM      7  O   UNL     1       1.623  11.620  20.514  0.00  0.00    +0.000 OA
ATOM      8  C   UNL     1       0.587  11.008  20.745  0.00  0.00    +0.000 C 
ATOM      9  N   UNL     1       0.278   9.728  20.320  0.00  0.00    +0.000 N 
ATOM     10  H   UNL     1      -0.671   9.399  20.434  0.00  0.00    +0.000 HD
BRANCH   8  11
ATOM     11  C   UNL     1      -0.421  11.695  21.585  0.00  0.00    +0.000 A 
ATOM     12  C   UNL     1      -0.918  12.954  21.208  0.00  0.00    +0.000 A 
ATOM     13  C   UNL     1      -1.994  13.522  21.901  0.00  0.00    +0.000 A 
ATOM     14  C   UNL     1      -2.594  12.840  22.962  0.00  0.00    +0.000 A 
ATOM     15  C   UNL     1      -2.108  11.593  23.354  0.00  0.00    +0.000 A 
ATOM     16  C   UNL     1      -1.025  11.037  22.663  0.00  0.00    +0.000 A 
BRANCH  16  17
ATOM     17  N   UNL     1      -0.506   9.774  23.153  0.00  0.00    +0.000 N 
ATOM     18  O   UNL     1      -1.026   8.747  22.696  0.00  0.00    +0.000 OA
ATOM     19  O   UNL     1       0.486   9.823  23.893  0.00  0.00    +0.000 OA
ENDBRANCH  16  17
ENDBRANCH   8  11
ENDBRANCH   1   9
BRANCH   4  20
ATOM     20  O   UNL     1       3.771   6.264  17.663  0.00  0.00    +0.000 OA
BRANCH  20  21
ATOM     21  C   UNL     1       3.781   4.914  17.921  0.00  0.00    +0.000 A 
ATOM     22  C   UNL     1       2.777   4.171  17.291  0.00  0.00    +0.000 A 
ATOM     23  C   UNL     1       2.693   2.793  17.490  0.00  0.00    +0.000 A 
ATOM     24  C   UNL     1       3.616   2.170  18.321  0.00  0.00    +0.000 A 
ATOM     25  C   UNL     1       4.635   2.891  18.930  0.00  0.00    +0.000 A 
ATOM     26  C   UNL     1       4.738   4.261  18.704  0.00  0.00    +0.000 A 
BRANCH  24  27
ATOM     27  O   UNL     1       3.563   0.829  18.563  0.00  0.00    +0.000 OA
ATOM     28  H   UNL     1       3.894   0.361  17.778  0.00  0.00    +0.000 HD
ENDBRANCH  24  27
ENDBRANCH  20  21
ENDBRANCH   4  20
TORSDOF 6
ENDMDL
MODEL 6
REMARK VINA RESULT:      -7.4      2.121      2.960
REMARK  Name = 
REMARK  6 active torsions:
REMARK  status: ('A' for Active; 'I' for Inactive)
REMARK    1  A    between atoms: C_2  and  C_18
REMARK    2  A    between atoms: N_3  and  C_4
REMARK    3  A    between atoms: C_7  and  O_8
REMARK    4  A    between atoms: O_8  and  C_9
REMARK    5  A    between atoms: C_12  and  O_13
REMARK    6  A    between atoms: C_23  and  N_24
REMARK                            x       y       z     vdW  Elec       q    Type
REMARK                         _______ _______ _______ _____ _____    ______ ____
ROOT
ATOM      1  C   UNL     1       0.705   9.243  19.710  0.00  0.00    +0.000 A 
ATOM      2  C   UNL     1       1.278   8.217  20.467  0.00  0.00    +0.000 A 
ATOM      3  C   UNL     1       2.253   7.382  19.929  0.00  0.00    +0.000 A 
ATOM      4  C   UNL     1       2.668   7.560  18.613  0.00  0.00    +0.000 A 
ATOM      5  C   UNL     1       2.133   8.604  17.853  0.00  0.00    +0.000 A 
ATOM      6  C   UNL     1       1.130   9.419  18.388  0.00  0.00    +0.000 A 
ENDROOT
BRANCH   1   9
ATOM      7  O   UNL     1       0.996  11.472  21.591  0.00  0.00    +0.000 OA
ATOM      8  C   UNL     1      -0.083  11.118  21.132  0.00  0.00    +0.000 C 
ATOM      9  N   UNL     1      -0.291  10.112  20.206  0.00  0.00    +0.000 N 
ATOM     10  H   UNL     1      -1.205  10.027  19.783  0.00  0.00    +0.000 HD
BRANCH   8  11
ATOM     11  C   UNL     1      -1.286  11.818  21.640  0.00  0.00    +0.000 A 
ATOM     12  C   UNL     1      -1.729  11.601  22.955  0.00  0.00    +0.000 A 
ATOM     13  C   UNL     1      -2.753  12.391  23.492  0.00  0.00    +0.000 A 
ATOM     14  C   UNL     1      -3.336  13.409  22.733  0.00  0.00    +0.000 A 
ATOM     15  C   UNL     1      -2.914  13.632  21.424  0.00  0.00    +0.000 A 
ATOM     16  C   UNL     1      -1.896  12.831  20.891  0.00  0.00    +0.000 A 
BRANCH  16  17
ATOM     17  N   UNL     1      -1.543  13.050  19.501  0.00  0.00    +0.000 N 
ATOM     18  O   UNL     1      -0.720  13.948  19.274  0.00  0.00    +0.000 OA
ATOM     19  O   UNL     1      -1.996  12.248  18.672  0.00  0.00    +0.000 OA
ENDBRANCH  16  17
ENDBRANCH   8  11
ENDBRANCH   1   9
BRANCH   4  20
ATOM     20  O   UNL     1       3.641   6.698  18.169  0.00  0.00    +0.000 OA
BRANCH  20  21
ATOM     21  C   UNL     1       3.456   5.342  18.296  0.00  0.00    +0.000 A 
ATOM     22  C   UNL     1       2.296   4.833  17.704  0.00  0.00    +0.000 A 
ATOM     23  C   UNL     1       2.009   3.470  17.779  0.00  0.00    +0.000 A 
ATOM     24  C   UNL     1       2.887   2.628  18.449  0.00  0.00    +0.000 A 
ATOM     25  C   UNL     1       4.057   3.116  19.017  0.00  0.00    +0.000 A 
ATOM     26  C   UNL     1       4.360   4.471  18.912  0.00  0.00    +0.000 A 
BRANCH  24  27
ATOM     27  O   UNL     1       2.641   1.291  18.567  0.00  0.00    +0.000 OA
ATOM     28  H   UNL     1       3.062   0.833  17.821  0.00  0.00    +0.000 HD
ENDBRANCH  24  27
ENDBRANCH  20  21
ENDBRANCH   4  20
TORSDOF 6
ENDMDL
MODEL 7
REMARK VINA RESULT:      -7.4      0.254      1.491
REMARK  Name = 
REMARK  6 active torsions:
REMARK  status: ('A' for Active; 'I' for Inactive)
REMARK    1  A    between atoms: C_2  and  C_18
REMARK    2  A    between atoms: N_3  and  C_4
REMARK    3  A    between atoms: C_7  and  O_8
REMARK    4  A    between atoms: O_8  and  C_9
REMARK    5  A    between atoms: C_12  and  O_13
REMARK    6  A    between atoms: C_23  and  N_24
REMARK                            x       y       z     vdW  Elec       q    Type
REMARK                         _______ _______ _______ _____ _____    ______ ____
ROOT
ATOM      1  C   UNL     1       1.570   7.794  20.102  0.00  0.00    +0.000 A 
ATOM      2  C   UNL     1       2.360   7.740  18.950  0.00  0.00    +0.000 A 
ATOM      3  C   UNL     1       3.055   6.583  18.607  0.00  0.00    +0.000 A 
ATOM      4  C   UNL     1       2.973   5.459  19.422  0.00  0.00    +0.000 A 
ATOM      5  C   UNL     1       2.159   5.484  20.558  0.00  0.00    +0.000 A 
ATOM      6  C   UNL     1       1.488   6.658  20.915  0.00  0.00    +0.000 A 
ENDROOT
BRANCH   1   9
ATOM      7  O   UNL     1       1.838   9.361  22.565  0.00  0.00    +0.000 OA
ATOM      8  C   UNL     1       1.003   9.606  21.702  0.00  0.00    +0.000 C 
ATOM      9  N   UNL     1       0.851   8.943  20.498  0.00  0.00    +0.000 N 
ATOM     10  H   UNL     1       0.237   9.344  19.801  0.00  0.00    +0.000 HD
BRANCH   8  11
ATOM     11  C   UNL     1       0.046  10.698  21.990  0.00  0.00    +0.000 A 
ATOM     12  C   UNL     1      -1.025  10.487  22.873  0.00  0.00    +0.000 A 
ATOM     13  C   UNL     1      -1.823  11.563  23.283  0.00  0.00    +0.000 A 
ATOM     14  C   UNL     1      -1.556  12.857  22.830  0.00  0.00    +0.000 A 
ATOM     15  C   UNL     1      -0.502  13.083  21.947  0.00  0.00    +0.000 A 
ATOM     16  C   UNL     1       0.285  12.001  21.534  0.00  0.00    +0.000 A 
BRANCH  16  17
ATOM     17  N   UNL     1       1.322  12.271  20.556  0.00  0.00    +0.000 N 
ATOM     18  O   UNL     1       2.359  12.798  20.982  0.00  0.00    +0.000 OA
ATOM     19  O   UNL     1       1.136  11.848  19.407  0.00  0.00    +0.000 OA
ENDBRANCH  16  17
ENDBRANCH   8  11
ENDBRANCH   1   9
BRANCH   4  20
ATOM     20  O   UNL     1       3.683   4.360  19.001  0.00  0.00    +0.000 OA
BRANCH  20  21
ATOM     21  C   UNL     1       4.734   4.524  18.131  0.00  0.00    +0.000 A 
ATOM     22  C   UNL     1       4.455   4.248  16.788  0.00  0.00    +0.000 A 
ATOM     23  C   UNL     1       5.453   4.377  15.822  0.00  0.00    +0.000 A 
ATOM     24  C   UNL     1       6.725   4.781  16.211  0.00  0.00    +0.000 A 
ATOM     25  C   UNL     1       7.007   5.087  17.536  0.00  0.00    +0.000 A 
ATOM     26  C   UNL     1       6.001   4.990  18.494  0.00  0.00    +0.000 A 
BRANCH  24  27
ATOM     27  O   UNL     1       7.739   4.903  15.307  0.00  0.00    +0.000 OA
ATOM     28  H   UNL     1       8.584   4.855  15.785  0.00  0.00    +0.000 HD
ENDBRANCH  24  27
ENDBRANCH  20  21
ENDBRANCH   4  20
TORSDOF 6
ENDMDL
MODEL 8
REMARK VINA RESULT:      -7.4      0.537      1.082
REMARK  Name = 
REMARK  6 active torsions:
REMARK  status: ('A' for Active; 'I' for Inactive)
REMARK    1  A    between atoms: C_2  and  C_18
REMARK    2  A    between atoms: N_3  and  C_4
REMARK    3  A    between atoms: C_7  and  O_8
REMARK    4  A    between atoms: O_8  and  C_9
REMARK    5  A    between atoms: C_12  and  O_13
REMARK    6  A    between atoms: C_23  and  N_24
REMARK                            x       y       z     vdW  Elec       q    Type
REMARK                         _______ _______ _______ _____ _____    ______ ____
ROOT
ATOM      1  C   UNL     1       1.697   7.554  20.155  0.00  0.00    +0.000 A 
ATOM      2  C   UNL     1       2.632   7.563  19.115  0.00  0.00    +0.000 A 
ATOM      3  C   UNL     1       3.379   6.429  18.809  0.00  0.00    +0.000 A 
ATOM      4  C   UNL     1       3.205   5.264  19.549  0.00  0.00    +0.000 A 
ATOM      5  C   UNL     1       2.249   5.227  20.568  0.00  0.00    +0.000 A 
ATOM      6  C   UNL     1       1.524   6.377  20.892  0.00  0.00    +0.000 A 
ENDROOT
BRANCH   1   9
ATOM      7  O   UNL     1       1.957   9.292  22.502  0.00  0.00    +0.000 OA
ATOM      8  C   UNL     1       1.074   9.425  21.662  0.00  0.00    +0.000 C 
ATOM      9  N   UNL     1       0.919   8.678  20.509  0.00  0.00    +0.000 N 
ATOM     10  H   UNL     1       0.252   8.992  19.817  0.00  0.00    +0.000 HD
BRANCH   8  11
ATOM     11  C   UNL     1       0.057  10.470  21.924  0.00  0.00    +0.000 A 
ATOM     12  C   UNL     1      -0.887  10.299  22.948  0.00  0.00    +0.000 A 
ATOM     13  C   UNL     1      -1.731  11.356  23.312  0.00  0.00    +0.000 A 
ATOM     14  C   UNL     1      -1.634  12.594  22.672  0.00  0.00    +0.000 A 
ATOM     15  C   UNL     1      -0.707  12.778  21.648  0.00  0.00    +0.000 A 
ATOM     16  C   UNL     1       0.125  11.713  21.282  0.00  0.00    +0.000 A 
BRANCH  16  17
ATOM     17  N   UNL     1       1.021  11.928  20.162  0.00  0.00    +0.000 N 
ATOM     18  O   UNL     1       0.645  11.500  19.062  0.00  0.00    +0.000 OA
ATOM     19  O   UNL     1       2.025  12.622  20.370  0.00  0.00    +0.000 OA
ENDBRANCH  16  17
ENDBRANCH   8  11
ENDBRANCH   1   9
BRANCH   4  20
ATOM     20  O   UNL     1       3.977   4.192  19.170  0.00  0.00    +0.000 OA
BRANCH  20  21
ATOM     21  C   UNL     1       4.835   4.317  18.104  0.00  0.00    +0.000 A 
ATOM     22  C   UNL     1       6.146   4.685  18.424  0.00  0.00    +0.000 A 
ATOM     23  C   UNL     1       7.097   4.846  17.416  0.00  0.00    +0.000 A 
ATOM     24  C   UNL     1       6.725   4.637  16.093  0.00  0.00    +0.000 A 
ATOM     25  C   UNL     1       5.434   4.243  15.764  0.00  0.00    +0.000 A 
ATOM     26  C   UNL     1       4.495   4.051  16.774  0.00  0.00    +0.000 A 
BRANCH  24  27
ATOM     27  O   UNL     1       7.612   4.800  15.071  0.00  0.00    +0.000 OA
ATOM     28  H   UNL     1       8.449   4.372  15.317  0.00  0.00    +0.000 HD
ENDBRANCH  24  27
ENDBRANCH  20  21
ENDBRANCH   4  20
TORSDOF 6
ENDMDL
MODEL 9
REMARK VINA RESULT:      -7.4      1.445      1.594
REMARK  Name = 
REMARK  6 active torsions:
REMARK  status: ('A' for Active; 'I' for Inactive)
REMARK    1  A    between atoms: C_2  and  C_18
REMARK    2  A    between atoms: N_3  and  C_4
REMARK    3  A    between atoms: C_7  and  O_8
REMARK    4  A    between atoms: O_8  and  C_9
REMARK    5  A    between atoms: C_12  and  O_13
REMARK    6  A    between atoms: C_23  and  N_24
REMARK                            x       y       z     vdW  Elec       q    Type
REMARK                         _______ _______ _______ _____ _____    ______ ____
ROOT
ATOM      1  C   UNL     1       1.762   7.942  19.929  0.00  0.00    +0.000 A 
ATOM      2  C   UNL     1       1.967   6.767  20.659  0.00  0.00    +0.000 A 
ATOM      3  C   UNL     1       2.626   5.677  20.099  0.00  0.00    +0.000 A 
ATOM      4  C   UNL     1       3.088   5.746  18.788  0.00  0.00    +0.000 A 
ATOM      5  C   UNL     1       2.925   6.926  18.057  0.00  0.00    +0.000 A 
ATOM      6  C   UNL     1       2.234   8.006  18.614  0.00  0.00    +0.000 A 
ENDROOT
BRANCH   1   9
ATOM      7  O   UNL     1      -0.688   8.040  21.536  0.00  0.00    +0.000 OA
ATOM      8  C   UNL     1      -0.089   9.043  21.164  0.00  0.00    +0.000 C 
ATOM      9  N   UNL     1       1.094   9.073  20.449  0.00  0.00    +0.000 N 
ATOM     10  H   UNL     1       1.574   9.957  20.347  0.00  0.00    +0.000 HD
BRANCH   8  11
ATOM     11  C   UNL     1      -0.708  10.349  21.488  0.00  0.00    +0.000 A 
ATOM     12  C   UNL     1      -0.879  10.740  22.825  0.00  0.00    +0.000 A 
ATOM     13  C   UNL     1      -1.297  12.041  23.131  0.00  0.00    +0.000 A 
ATOM     14  C   UNL     1      -1.536  12.967  22.112  0.00  0.00    +0.000 A 
ATOM     15  C   UNL     1      -1.378  12.593  20.779  0.00  0.00    +0.000 A 
ATOM     16  C   UNL     1      -0.970  11.287  20.482  0.00  0.00    +0.000 A 
BRANCH  16  17
ATOM     17  N   UNL     1      -0.893  10.921  19.080  0.00  0.00    +0.000 N 
ATOM     18  O   UNL     1      -1.941  10.520  18.554  0.00  0.00    +0.000 OA
ATOM     19  O   UNL     1       0.175  11.151  18.497  0.00  0.00    +0.000 OA
ENDBRANCH  16  17
ENDBRANCH   8  11
ENDBRANCH   1   9
BRANCH   4  20
ATOM     20  O   UNL     1       3.737   4.628  18.322  0.00  0.00    +0.000 OA
BRANCH  20  21
ATOM     21  C   UNL     1       4.716   4.760  17.367  0.00  0.00    +0.000 A 
ATOM     22  C   UNL     1       5.930   5.291  17.816  0.00  0.00    +0.000 A 
ATOM     23  C   UNL     1       6.989   5.473  16.927  0.00  0.00    +0.000 A 
ATOM     24  C   UNL     1       6.823   5.123  15.593  0.00  0.00    +0.000 A 
ATOM     25  C   UNL     1       5.633   4.567  15.140  0.00  0.00    +0.000 A 
ATOM     26  C   UNL     1       4.588   4.355  16.035  0.00  0.00    +0.000 A 
BRANCH  24  27
ATOM     27  O   UNL     1       7.822   5.299  14.681  0.00  0.00    +0.000 OA
ATOM     28  H   UNL     1       8.135   6.217  14.741  0.00  0.00    +0.000 HD
ENDBRANCH  24  27
ENDBRANCH  20  21
ENDBRANCH   4  20
TORSDOF 6
ENDMDL
