MODEL 1
REMARK VINA RESULT:      -7.5      0.000      0.000
REMARK  Name = 
REMARK  8 active torsions:
REMARK  status: ('A' for Active; 'I' for Inactive)
REMARK    1  A    between atoms: C_1  and  O_2
REMARK    2  A    between atoms: O_2  and  C_3
REMARK    3  A    between atoms: C_3  and  C_5
REMARK    4  A    between atoms: C_5  and  O_6
REMARK    5  A    between atoms: O_6  and  C_7
REMARK    6  A    between atoms: C_10  and  S_11
REMARK    7  A    between atoms: S_11  and  N_14
REMARK    8  A    between atoms: C_22  and  C_23
REMARK                            x       y       z     vdW  Elec       q    Type
REMARK                         _______ _______ _______ _____ _____    ______ ____
ROOT
ATOM      1  C   UNL     1       1.675   7.765  20.061  0.00  0.00    +0.000 A 
ATOM      2  C   UNL     1       1.643   6.599  20.844  0.00  0.00    +0.000 A 
ATOM      3  C   UNL     1       2.013   5.356  20.315  0.00  0.00    +0.000 A 
ATOM      4  C   UNL     1       2.451   5.284  18.996  0.00  0.00    +0.000 A 
ATOM      5  C   UNL     1       2.479   6.436  18.206  0.00  0.00    +0.000 A 
ATOM      6  C   UNL     1       2.116   7.692  18.726  0.00  0.00    +0.000 A 
ATOM      7  C   UNL     1       2.286   8.867  17.807  0.00  0.00    +0.000 C 
ENDROOT
BRANCH   4   8
ATOM      8  S   UNL     1       2.927   3.711  18.293  0.00  0.00    +0.000 S 
ATOM      9  O   UNL     1       2.969   2.750  19.386  0.00  0.00    +0.000 OA
ATOM     10  O   UNL     1       2.090   3.484  17.141  0.00  0.00    +0.000 OA
BRANCH   8  11
ATOM     11  N   UNL     1       4.543   3.975  17.761  0.00  0.00    +0.000 NA
ATOM     12  C   UNL     1       4.699   4.414  16.351  0.00  0.00    +0.000 C 
ATOM     13  C   UNL     1       5.943   3.838  15.677  0.00  0.00    +0.000 C 
ATOM     14  C   UNL     1       7.228   4.595  15.994  0.00  0.00    +0.000 C 
ATOM     15  C   UNL     1       7.618   4.564  17.464  0.00  0.00    +0.000 C 
ATOM     16  C   UNL     1       6.636   5.329  18.342  0.00  0.00    +0.000 C 
ATOM     17  C   UNL     1       5.460   4.488  18.811  0.00  0.00    +0.000 C 
ENDBRANCH   8  11
ENDBRANCH   4   8
BRANCH   1  18
ATOM     18  O   UNL     1       1.342   8.904  20.744  0.00  0.00    +0.000 OA
BRANCH  18  19
ATOM     19  C   UNL     1       0.238   8.825  21.639  0.00  0.00    +0.000 C 
BRANCH  19  20
ATOM     20  C   UNL     1       0.081  10.106  22.424  0.00  0.00    +0.000 C 
ATOM     21  O   UNL     1      -0.542  10.235  23.474  0.00  0.00    +0.000 OA
BRANCH  20  23
ATOM     22  C   UNL     1      -0.081  12.132  21.274  0.00  0.00    +0.000 C 
ATOM     23  O   UNL     1       0.764  11.111  21.803  0.00  0.00    +0.000 OA
ENDBRANCH  20  23
ENDBRANCH  19  20
ENDBRANCH  18  19
ENDBRANCH   1  18
TORSDOF 6
ENDMDL
MODEL 2
REMARK VINA RESULT:      -7.2      0.700      1.033
REMARK  Name = 
REMARK  8 active torsions:
REMARK  status: ('A' for Active; 'I' for Inactive)
REMARK    1  A    between atoms: C_1  and  O_2
REMARK    2  A    between atoms: O_2  and  C_3
REMARK    3  A    between atoms: C_3  and  C_5
REMARK    4  A    between atoms: C_5  and  O_6
REMARK    5  A    between atoms: O_6  and  C_7
REMARK    6  A    between atoms: C_10  and  S_11
REMARK    7  A    between atoms: S_11  and  N_14
REMARK    8  A    between atoms: C_22  and  C_23
REMARK                            x       y       z     vdW  Elec       q    Type
REMARK                         _______ _______ _______ _____ _____    ______ ____
ROOT
ATOM      1  C   UNL     1       1.642   8.067  19.999  0.00  0.00    +0.000 A 
ATOM      2  C   UNL     1       1.590   6.938  20.833  0.00  0.00    +0.000 A 
ATOM      3  C   UNL     1       1.944   5.668  20.362  0.00  0.00    +0.000 A 
ATOM      4  C   UNL     1       2.386   5.531  19.048  0.00  0.00    +0.000 A 
ATOM      5  C   UNL     1       2.433   6.646  18.208  0.00  0.00    +0.000 A 
ATOM      6  C   UNL     1       2.087   7.928  18.670  0.00  0.00    +0.000 A 
ATOM      7  C   UNL     1       2.277   9.059  17.700  0.00  0.00    +0.000 C 
ENDROOT
BRANCH   4   8
ATOM      8  S   UNL     1       2.841   3.921  18.418  0.00  0.00    +0.000 S 
ATOM      9  O   UNL     1       2.836   3.003  19.548  0.00  0.00    +0.000 OA
ATOM     10  O   UNL     1       2.024   3.667  17.257  0.00  0.00    +0.000 OA
BRANCH   8  11
ATOM     11  N   UNL     1       4.473   4.128  17.914  0.00  0.00    +0.000 NA
ATOM     12  C   UNL     1       4.672   4.493  16.488  0.00  0.00    +0.000 C 
ATOM     13  C   UNL     1       5.919   3.860  15.875  0.00  0.00    +0.000 C 
ATOM     14  C   UNL     1       7.211   4.609  16.185  0.00  0.00    +0.000 C 
ATOM     15  C   UNL     1       7.565   4.644  17.664  0.00  0.00    +0.000 C 
ATOM     16  C   UNL     1       6.578   5.471  18.478  0.00  0.00    +0.000 C 
ATOM     17  C   UNL     1       5.375   4.676  18.959  0.00  0.00    +0.000 C 
ENDBRANCH   8  11
ENDBRANCH   4   8
BRANCH   1  18
ATOM     18  O   UNL     1       1.323   9.240  20.629  0.00  0.00    +0.000 OA
BRANCH  18  19
ATOM     19  C   UNL     1      -0.030   9.674  20.549  0.00  0.00    +0.000 C 
BRANCH  19  20
ATOM     20  C   UNL     1      -0.305  10.785  21.534  0.00  0.00    +0.000 C 
ATOM     21  O   UNL     1      -1.055  11.740  21.352  0.00  0.00    +0.000 OA
BRANCH  20  23
ATOM     22  C   UNL     1      -0.179   9.537  23.505  0.00  0.00    +0.000 C 
ATOM     23  O   UNL     1       0.390  10.559  22.687  0.00  0.00    +0.000 OA
ENDBRANCH  20  23
ENDBRANCH  19  20
ENDBRANCH  18  19
ENDBRANCH   1  18
TORSDOF 6
ENDMDL
MODEL 3
REMARK VINA RESULT:      -7.2      0.541      1.385
REMARK  Name = 
REMARK  8 active torsions:
REMARK  status: ('A' for Active; 'I' for Inactive)
REMARK    1  A    between atoms: C_1  and  O_2
REMARK    2  A    between atoms: O_2  and  C_3
REMARK    3  A    between atoms: C_3  and  C_5
REMARK    4  A    between atoms: C_5  and  O_6
REMARK    5  A    between atoms: O_6  and  C_7
REMARK    6  A    between atoms: C_10  and  S_11
REMARK    7  A    between atoms: S_11  and  N_14
REMARK    8  A    between atoms: C_22  and  C_23
REMARK                            x       y       z     vdW  Elec       q    Type
REMARK                         _______ _______ _______ _____ _____    ______ ____
ROOT
ATOM      1  C   UNL     1       1.518   8.255  20.082  0.00  0.00    +0.000 A 
ATOM      2  C   UNL     1       1.480   7.107  20.892  0.00  0.00    +0.000 A 
ATOM      3  C   UNL     1       1.848   5.851  20.393  0.00  0.00    +0.000 A 
ATOM      4  C   UNL     1       2.292   5.748  19.078  0.00  0.00    +0.000 A 
ATOM      5  C   UNL     1       2.326   6.882  18.262  0.00  0.00    +0.000 A 
ATOM      6  C   UNL     1       1.965   8.150  18.751  0.00  0.00    +0.000 A 
ATOM      7  C   UNL     1       2.142   9.303  17.806  0.00  0.00    +0.000 C 
ENDROOT
BRANCH   4   8
ATOM      8  S   UNL     1       2.766   4.157  18.413  0.00  0.00    +0.000 S 
ATOM      9  O   UNL     1       2.869   3.239  19.537  0.00  0.00    +0.000 OA
ATOM     10  O   UNL     1       1.886   3.875  17.306  0.00  0.00    +0.000 OA
BRANCH   8  11
ATOM     11  N   UNL     1       4.353   4.427  17.805  0.00  0.00    +0.000 NA
ATOM     12  C   UNL     1       5.465   4.165  18.754  0.00  0.00    +0.000 C 
ATOM     13  C   UNL     1       6.634   5.136  18.592  0.00  0.00    +0.000 C 
ATOM     14  C   UNL     1       7.591   4.771  17.462  0.00  0.00    +0.000 C 
ATOM     15  C   UNL     1       6.956   4.802  16.079  0.00  0.00    +0.000 C 
ATOM     16  C   UNL     1       5.906   3.713  15.899  0.00  0.00    +0.000 C 
ATOM     17  C   UNL     1       4.517   4.128  16.359  0.00  0.00    +0.000 C 
ENDBRANCH   8  11
ENDBRANCH   4   8
BRANCH   1  18
ATOM     18  O   UNL     1       1.186   9.410  20.738  0.00  0.00    +0.000 OA
BRANCH  18  19
ATOM     19  C   UNL     1      -0.139   9.510  21.248  0.00  0.00    +0.000 C 
BRANCH  19  20
ATOM     20  C   UNL     1      -0.210  10.489  22.395  0.00  0.00    +0.000 C 
ATOM     21  O   UNL     1      -0.623  10.246  23.525  0.00  0.00    +0.000 OA
BRANCH  20  23
ATOM     22  C   UNL     1      -0.628  12.777  22.185  0.00  0.00    +0.000 C 
ATOM     23  O   UNL     1       0.285  11.697  21.997  0.00  0.00    +0.000 OA
ENDBRANCH  20  23
ENDBRANCH  19  20
ENDBRANCH  18  19
ENDBRANCH   1  18
TORSDOF 6
ENDMDL
MODEL 4
REMARK VINA RESULT:      -7.2      0.917      1.140
REMARK  Name = 
REMARK  8 active torsions:
REMARK  status: ('A' for Active; 'I' for Inactive)
REMARK    1  A    between atoms: C_1  and  O_2
REMARK    2  A    between atoms: O_2  and  C_3
REMARK    3  A    between atoms: C_3  and  C_5
REMARK    4  A    between atoms: C_5  and  O_6
REMARK    5  A    between atoms: O_6  and  C_7
REMARK    6  A    between atoms: C_10  and  S_11
REMARK    7  A    between atoms: S_11  and  N_14
REMARK    8  A    between atoms: C_22  and  C_23
REMARK                            x       y       z     vdW  Elec       q    Type
REMARK                         _______ _______ _______ _____ _____    ______ ____
ROOT
ATOM      1  C   UNL     1       1.683   7.763  20.147  0.00  0.00    +0.000 A 
ATOM      2  C   UNL     1       1.653   6.582  20.908  0.00  0.00    +0.000 A 
ATOM      3  C   UNL     1       2.010   5.348  20.351  0.00  0.00    +0.000 A 
ATOM      4  C   UNL     1       2.434   5.299  19.026  0.00  0.00    +0.000 A 
ATOM      5  C   UNL     1       2.460   6.466  18.258  0.00  0.00    +0.000 A 
ATOM      6  C   UNL     1       2.110   7.713  18.806  0.00  0.00    +0.000 A 
ATOM      7  C   UNL     1       2.277   8.905  17.908  0.00  0.00    +0.000 C 
ENDROOT
BRANCH   4   8
ATOM      8  S   UNL     1       2.893   3.736  18.288  0.00  0.00    +0.000 S 
ATOM      9  O   UNL     1       2.911   2.748  19.356  0.00  0.00    +0.000 OA
ATOM     10  O   UNL     1       2.063   3.551  17.124  0.00  0.00    +0.000 OA
BRANCH   8  11
ATOM     11  N   UNL     1       4.517   3.989  17.776  0.00  0.00    +0.000 NA
ATOM     12  C   UNL     1       4.694   4.418  16.366  0.00  0.00    +0.000 C 
ATOM     13  C   UNL     1       5.945   3.831  15.713  0.00  0.00    +0.000 C 
ATOM     14  C   UNL     1       7.229   4.585  16.042  0.00  0.00    +0.000 C 
ATOM     15  C   UNL     1       7.598   4.564  17.517  0.00  0.00    +0.000 C 
ATOM     16  C   UNL     1       6.608   5.340  18.376  0.00  0.00    +0.000 C 
ATOM     17  C   UNL     1       5.421   4.507  18.835  0.00  0.00    +0.000 C 
ENDBRANCH   8  11
ENDBRANCH   4   8
BRANCH   1  18
ATOM     18  O   UNL     1       1.364   8.890  20.855  0.00  0.00    +0.000 OA
BRANCH  18  19
ATOM     19  C   UNL     1      -0.018   9.152  21.072  0.00  0.00    +0.000 C 
BRANCH  19  20
ATOM     20  C   UNL     1      -0.509  10.267  20.180  0.00  0.00    +0.000 C 
ATOM     21  O   UNL     1      -0.991  10.132  19.059  0.00  0.00    +0.000 OA
BRANCH  20  23
ATOM     22  C   UNL     1       0.118  12.507  19.973  0.00  0.00    +0.000 C 
ATOM     23  O   UNL     1      -0.362  11.464  20.819  0.00  0.00    +0.000 OA
ENDBRANCH  20  23
ENDBRANCH  19  20
ENDBRANCH  18  19
ENDBRANCH   1  18
TORSDOF 6
ENDMDL
MODEL 5
REMARK VINA RESULT:      -7.1      3.269      5.139
REMARK  Name = 
REMARK  8 active torsions:
REMARK  status: ('A' for Active; 'I' for Inactive)
REMARK    1  A    between atoms: C_1  and  O_2
REMARK    2  A    between atoms: O_2  and  C_3
REMARK    3  A    between atoms: C_3  and  C_5
REMARK    4  A    between atoms: C_5  and  O_6
REMARK    5  A    between atoms: O_6  and  C_7
REMARK    6  A    between atoms: C_10  and  S_11
REMARK    7  A    between atoms: S_11  and  N_14
REMARK    8  A    between atoms: C_22  and  C_23
REMARK                            x       y       z     vdW  Elec       q    Type
REMARK                         _______ _______ _______ _____ _____    ______ ____
ROOT
ATOM      1  C   UNL     1       2.755   4.941  17.892  0.00  0.00    +0.000 A 
ATOM      2  C   UNL     1       3.498   3.784  17.604  0.00  0.00    +0.000 A 
ATOM      3  C   UNL     1       4.811   3.862  17.122  0.00  0.00    +0.000 A 
ATOM      4  C   UNL     1       5.399   5.113  16.957  0.00  0.00    +0.000 A 
ATOM      5  C   UNL     1       4.666   6.270  17.233  0.00  0.00    +0.000 A 
ATOM      6  C   UNL     1       3.349   6.206  17.723  0.00  0.00    +0.000 A 
ATOM      7  C   UNL     1       2.706   7.516  18.076  0.00  0.00    +0.000 C 
ENDROOT
BRANCH   4   8
ATOM      8  S   UNL     1       7.072   5.244  16.341  0.00  0.00    +0.000 S 
ATOM      9  O   UNL     1       7.402   6.661  16.301  0.00  0.00    +0.000 OA
ATOM     10  O   UNL     1       7.880   4.317  17.094  0.00  0.00    +0.000 OA
BRANCH   8  11
ATOM     11  N   UNL     1       6.953   4.685  14.718  0.00  0.00    +0.000 NA
ATOM     12  C   UNL     1       5.578   4.431  14.217  0.00  0.00    +0.000 C 
ATOM     13  C   UNL     1       5.495   3.235  13.270  0.00  0.00    +0.000 C 
ATOM     14  C   UNL     1       5.897   3.551  11.834  0.00  0.00    +0.000 C 
ATOM     15  C   UNL     1       7.347   3.982  11.678  0.00  0.00    +0.000 C 
ATOM     16  C   UNL     1       7.627   5.328  12.333  0.00  0.00    +0.000 C 
ATOM     17  C   UNL     1       7.995   5.221  13.805  0.00  0.00    +0.000 C 
ENDBRANCH   8  11
ENDBRANCH   4   8
BRANCH   1  18
ATOM     18  O   UNL     1       1.513   4.690  18.411  0.00  0.00    +0.000 OA
BRANCH  18  19
ATOM     19  C   UNL     1       1.446   3.854  19.560  0.00  0.00    +0.000 C 
BRANCH  19  20
ATOM     20  C   UNL     1       1.725   4.635  20.822  0.00  0.00    +0.000 C 
ATOM     21  O   UNL     1       1.583   5.846  20.965  0.00  0.00    +0.000 OA
BRANCH  20  23
ATOM     22  C   UNL     1       2.753   2.596  21.310  0.00  0.00    +0.000 C 
ATOM     23  O   UNL     1       2.141   3.785  21.805  0.00  0.00    +0.000 OA
ENDBRANCH  20  23
ENDBRANCH  19  20
ENDBRANCH  18  19
ENDBRANCH   1  18
TORSDOF 6
ENDMDL
MODEL 6
REMARK VINA RESULT:      -7.0      3.060      7.925
REMARK  Name = 
REMARK  8 active torsions:
REMARK  status: ('A' for Active; 'I' for Inactive)
REMARK    1  A    between atoms: C_1  and  O_2
REMARK    2  A    between atoms: O_2  and  C_3
REMARK    3  A    between atoms: C_3  and  C_5
REMARK    4  A    between atoms: C_5  and  O_6
REMARK    5  A    between atoms: O_6  and  C_7
REMARK    6  A    between atoms: C_10  and  S_11
REMARK    7  A    between atoms: S_11  and  N_14
REMARK    8  A    between atoms: C_22  and  C_23
REMARK                            x       y       z     vdW  Elec       q    Type
REMARK                         _______ _______ _______ _____ _____    ______ ____
ROOT
ATOM      1  C   UNL     1       6.232   4.809  16.657  0.00  0.00    +0.000 A 
ATOM      2  C   UNL     1       4.990   4.284  16.262  0.00  0.00    +0.000 A 
ATOM      3  C   UNL     1       3.877   4.331  17.111  0.00  0.00    +0.000 A 
ATOM      4  C   UNL     1       4.000   4.940  18.357  0.00  0.00    +0.000 A 
ATOM      5  C   UNL     1       5.232   5.457  18.762  0.00  0.00    +0.000 A 
ATOM      6  C   UNL     1       6.357   5.422  17.919  0.00  0.00    +0.000 A 
ATOM      7  C   UNL     1       7.594   6.101  18.430  0.00  0.00    +0.000 C 
ENDROOT
BRANCH   4   8
ATOM      8  S   UNL     1       2.596   5.012  19.462  0.00  0.00    +0.000 S 
ATOM      9  O   UNL     1       1.582   4.117  18.924  0.00  0.00    +0.000 OA
ATOM     10  O   UNL     1       3.096   4.840  20.803  0.00  0.00    +0.000 OA
BRANCH   8  11
ATOM     11  N   UNL     1       2.022   6.625  19.286  0.00  0.00    +0.000 NA
ATOM     12  C   UNL     1       2.020   7.452  20.520  0.00  0.00    +0.000 C 
ATOM     13  C   UNL     1       0.834   8.412  20.596  0.00  0.00    +0.000 C 
ATOM     14  C   UNL     1       1.026   9.701  19.804  0.00  0.00    +0.000 C 
ATOM     15  C   UNL     1       1.170   9.488  18.304  0.00  0.00    +0.000 C 
ATOM     16  C   UNL     1       2.457   8.759  17.941  0.00  0.00    +0.000 C 
ATOM     17  C   UNL     1       2.324   7.245  17.971  0.00  0.00    +0.000 C 
ENDBRANCH   8  11
ENDBRANCH   4   8
BRANCH   1  18
ATOM     18  O   UNL     1       7.199   4.738  15.691  0.00  0.00    +0.000 OA
BRANCH  18  19
ATOM     19  C   UNL     1       6.769   4.482  14.359  0.00  0.00    +0.000 C 
BRANCH  19  20
ATOM     20  C   UNL     1       7.723   5.082  13.353  0.00  0.00    +0.000 C 
ATOM     21  O   UNL     1       8.612   5.892  13.597  0.00  0.00    +0.000 OA
BRANCH  20  23
ATOM     22  C   UNL     1       6.548   3.475  12.131  0.00  0.00    +0.000 C 
ATOM     23  O   UNL     1       7.468   4.565  12.115  0.00  0.00    +0.000 OA
ENDBRANCH  20  23
ENDBRANCH  19  20
ENDBRANCH  18  19
ENDBRANCH   1  18
TORSDOF 6
ENDMDL
MODEL 7
REMARK VINA RESULT:      -7.0      3.787      5.532
REMARK  Name = 
REMARK  8 active torsions:
REMARK  status: ('A' for Active; 'I' for Inactive)
REMARK    1  A    between atoms: C_1  and  O_2
REMARK    2  A    between atoms: O_2  and  C_3
REMARK    3  A    between atoms: C_3  and  C_5
REMARK    4  A    between atoms: C_5  and  O_6
REMARK    5  A    between atoms: O_6  and  C_7
REMARK    6  A    between atoms: C_10  and  S_11
REMARK    7  A    between atoms: S_11  and  N_14
REMARK    8  A    between atoms: C_22  and  C_23
REMARK                            x       y       z     vdW  Elec       q    Type
REMARK                         _______ _______ _______ _____ _____    ______ ____
ROOT
ATOM      1  C   UNL     1       2.957   4.920  18.236  0.00  0.00    +0.000 A 
ATOM      2  C   UNL     1       3.618   6.155  18.126  0.00  0.00    +0.000 A 
ATOM      3  C   UNL     1       4.898   6.249  17.567  0.00  0.00    +0.000 A 
ATOM      4  C   UNL     1       5.512   5.097  17.082  0.00  0.00    +0.000 A 
ATOM      5  C   UNL     1       4.867   3.863  17.193  0.00  0.00    +0.000 A 
ATOM      6  C   UNL     1       3.578   3.755  17.746  0.00  0.00    +0.000 A 
ATOM      7  C   UNL     1       2.953   2.390  17.716  0.00  0.00    +0.000 C 
ENDROOT
BRANCH   4   8
ATOM      8  S   UNL     1       7.148   5.185  16.365  0.00  0.00    +0.000 S 
ATOM      9  O   UNL     1       7.510   6.593  16.302  0.00  0.00    +0.000 OA
ATOM     10  O   UNL     1       7.977   4.240  17.070  0.00  0.00    +0.000 OA
BRANCH   8  11
ATOM     11  N   UNL     1       6.917   4.627  14.754  0.00  0.00    +0.000 NA
ATOM     12  C   UNL     1       5.507   4.514  14.301  0.00  0.00    +0.000 C 
ATOM     13  C   UNL     1       5.269   3.325  13.372  0.00  0.00    +0.000 C 
ATOM     14  C   UNL     1       5.653   3.585  11.919  0.00  0.00    +0.000 C 
ATOM     15  C   UNL     1       7.134   3.862  11.711  0.00  0.00    +0.000 C 
ATOM     16  C   UNL     1       7.574   5.177  12.341  0.00  0.00    +0.000 C 
ATOM     17  C   UNL     1       7.978   5.044  13.801  0.00  0.00    +0.000 C 
ENDBRANCH   8  11
ENDBRANCH   4   8
BRANCH   1  18
ATOM     18  O   UNL     1       1.691   5.010  18.748  0.00  0.00    +0.000 OA
BRANCH  18  19
ATOM     19  C   UNL     1       1.551   4.899  20.160  0.00  0.00    +0.000 C 
BRANCH  19  20
ATOM     20  C   UNL     1       1.110   3.510  20.558  0.00  0.00    +0.000 C 
ATOM     21  O   UNL     1       0.325   2.800  19.938  0.00  0.00    +0.000 OA
BRANCH  20  23
ATOM     22  C   UNL     1       2.971   2.453  21.492  0.00  0.00    +0.000 C 
ATOM     23  O   UNL     1       1.741   3.141  21.711  0.00  0.00    +0.000 OA
ENDBRANCH  20  23
ENDBRANCH  19  20
ENDBRANCH  18  19
ENDBRANCH   1  18
TORSDOF 6
ENDMDL
MODEL 8
REMARK VINA RESULT:      -6.9      0.798      1.726
REMARK  Name = 
REMARK  8 active torsions:
REMARK  status: ('A' for Active; 'I' for Inactive)
REMARK    1  A    between atoms: C_1  and  O_2
REMARK    2  A    between atoms: O_2  and  C_3
REMARK    3  A    between atoms: C_3  and  C_5
REMARK    4  A    between atoms: C_5  and  O_6
REMARK    5  A    between atoms: O_6  and  C_7
REMARK    6  A    between atoms: C_10  and  S_11
REMARK    7  A    between atoms: S_11  and  N_14
REMARK    8  A    between atoms: C_22  and  C_23
REMARK                            x       y       z     vdW  Elec       q    Type
REMARK                         _______ _______ _______ _____ _____    ______ ____
ROOT
ATOM      1  C   UNL     1       1.580   8.200  20.183  0.00  0.00    +0.000 A 
ATOM      2  C   UNL     1       1.546   7.025  20.951  0.00  0.00    +0.000 A 
ATOM      3  C   UNL     1       1.887   5.783  20.400  0.00  0.00    +0.000 A 
ATOM      4  C   UNL     1       2.299   5.722  19.071  0.00  0.00    +0.000 A 
ATOM      5  C   UNL     1       2.328   6.884  18.296  0.00  0.00    +0.000 A 
ATOM      6  C   UNL     1       1.995   8.138  18.838  0.00  0.00    +0.000 A 
ATOM      7  C   UNL     1       2.164   9.322  17.931  0.00  0.00    +0.000 C 
ENDROOT
BRANCH   4   8
ATOM      8  S   UNL     1       2.738   4.151  18.339  0.00  0.00    +0.000 S 
ATOM      9  O   UNL     1       2.823   3.184  19.423  0.00  0.00    +0.000 OA
ATOM     10  O   UNL     1       1.851   3.935  17.223  0.00  0.00    +0.000 OA
BRANCH   8  11
ATOM     11  N   UNL     1       4.330   4.412  17.740  0.00  0.00    +0.000 NA
ATOM     12  C   UNL     1       5.436   4.133  18.691  0.00  0.00    +0.000 C 
ATOM     13  C   UNL     1       6.614   5.095  18.541  0.00  0.00    +0.000 C 
ATOM     14  C   UNL     1       7.572   4.732  17.412  0.00  0.00    +0.000 C 
ATOM     15  C   UNL     1       6.942   4.779  16.027  0.00  0.00    +0.000 C 
ATOM     16  C   UNL     1       5.884   3.701  15.833  0.00  0.00    +0.000 C 
ATOM     17  C   UNL     1       4.497   4.124  16.292  0.00  0.00    +0.000 C 
ENDBRANCH   8  11
ENDBRANCH   4   8
BRANCH   1  18
ATOM     18  O   UNL     1       1.277   9.335  20.887  0.00  0.00    +0.000 OA
BRANCH  18  19
ATOM     19  C   UNL     1      -0.075   9.778  20.854  0.00  0.00    +0.000 C 
BRANCH  19  20
ATOM     20  C   UNL     1      -0.158  11.283  20.955  0.00  0.00    +0.000 C 
ATOM     21  O   UNL     1      -0.205  12.066  20.012  0.00  0.00    +0.000 OA
BRANCH  20  23
ATOM     22  C   UNL     1      -1.124  10.891  23.045  0.00  0.00    +0.000 C 
ATOM     23  O   UNL     1      -0.201  11.652  22.268  0.00  0.00    +0.000 OA
ENDBRANCH  20  23
ENDBRANCH  19  20
ENDBRANCH  18  19
ENDBRANCH   1  18
TORSDOF 6
ENDMDL
MODEL 9
REMARK VINA RESULT:      -6.9      0.969      1.701
REMARK  Name = 
REMARK  8 active torsions:
REMARK  status: ('A' for Active; 'I' for Inactive)
REMARK    1  A    between atoms: C_1  and  O_2
REMARK    2  A    between atoms: O_2  and  C_3
REMARK    3  A    between atoms: C_3  and  C_5
REMARK    4  A    between atoms: C_5  and  O_6
REMARK    5  A    between atoms: O_6  and  C_7
REMARK    6  A    between atoms: C_10  and  S_11
REMARK    7  A    between atoms: S_11  and  N_14
REMARK    8  A    between atoms: C_22  and  C_23
REMARK                            x       y       z     vdW  Elec       q    Type
REMARK                         _______ _______ _______ _____ _____    ______ ____
ROOT
ATOM      1  C   UNL     1       1.541   8.182  20.207  0.00  0.00    +0.000 A 
ATOM      2  C   UNL     1       1.517   7.008  20.979  0.00  0.00    +0.000 A 
ATOM      3  C   UNL     1       1.871   5.769  20.430  0.00  0.00    +0.000 A 
ATOM      4  C   UNL     1       2.285   5.709  19.102  0.00  0.00    +0.000 A 
ATOM      5  C   UNL     1       2.304   6.870  18.324  0.00  0.00    +0.000 A 
ATOM      6  C   UNL     1       1.958   8.121  18.864  0.00  0.00    +0.000 A 
ATOM      7  C   UNL     1       2.117   9.306  17.955  0.00  0.00    +0.000 C 
ENDROOT
BRANCH   4   8
ATOM      8  S   UNL     1       2.740   4.141  18.374  0.00  0.00    +0.000 S 
ATOM      9  O   UNL     1       2.820   3.174  19.458  0.00  0.00    +0.000 OA
ATOM     10  O   UNL     1       1.864   3.920  17.250  0.00  0.00    +0.000 OA
BRANCH   8  11
ATOM     11  N   UNL     1       4.336   4.411  17.789  0.00  0.00    +0.000 NA
ATOM     12  C   UNL     1       5.436   4.100  18.736  0.00  0.00    +0.000 C 
ATOM     13  C   UNL     1       6.619   5.060  18.618  0.00  0.00    +0.000 C 
ATOM     14  C   UNL     1       7.580   4.725  17.483  0.00  0.00    +0.000 C 
ATOM     15  C   UNL     1       6.957   4.814  16.098  0.00  0.00    +0.000 C 
ATOM     16  C   UNL     1       5.894   3.747  15.869  0.00  0.00    +0.000 C 
ATOM     17  C   UNL     1       4.508   4.164  16.334  0.00  0.00    +0.000 C 
ENDBRANCH   8  11
ENDBRANCH   4   8
BRANCH   1  18
ATOM     18  O   UNL     1       1.226   9.315  20.909  0.00  0.00    +0.000 OA
BRANCH  18  19
ATOM     19  C   UNL     1      -0.103   9.807  20.786  0.00  0.00    +0.000 C 
BRANCH  19  20
ATOM     20  C   UNL     1      -0.145  11.309  20.938  0.00  0.00    +0.000 C 
ATOM     21  O   UNL     1       0.169  11.941  21.942  0.00  0.00    +0.000 OA
BRANCH  20  23
ATOM     22  C   UNL     1      -1.437  11.040  19.010  0.00  0.00    +0.000 C 
ATOM     23  O   UNL     1      -0.565  11.876  19.769  0.00  0.00    +0.000 OA
ENDBRANCH  20  23
ENDBRANCH  19  20
ENDBRANCH  18  19
ENDBRANCH   1  18
TORSDOF 6
ENDMDL
