MODEL 1
REMARK VINA RESULT:      -7.0      0.000      0.000
REMARK  Name = 
REMARK  7 active torsions:
REMARK  status: ('A' for Active; 'I' for Inactive)
REMARK    1  A    between atoms: C_2  and  C_3
REMARK    2  A    between atoms: C_3  and  C_4
REMARK    3  A    between atoms: C_5  and  C_6
REMARK    4  A    between atoms: N_8  and  N_9
REMARK    5  A    between atoms: N_16  and  C_17
REMARK    6  A    between atoms: C_24  and  C_25
REMARK    7  A    between atoms: N_32  and  O_33
REMARK                            x       y       z     vdW  Elec       q    Type
REMARK                         _______ _______ _______ _____ _____    ______ ____
ROOT
ATOM      1  C   UNL     1      -4.732  12.253  19.856  0.00  0.00    +0.000 A 
ATOM      2  C   UNL     1      -4.264  12.753  21.117  0.00  0.00    +0.000 A 
ATOM      3  N   UNL     1      -2.928  12.786  21.141  0.00  0.00    +0.000 NA
ATOM      4  N   UNL     1      -2.509  12.358  19.928  0.00  0.00    +0.000 N 
ATOM      5  C   UNL     1      -3.582  11.983  19.098  0.00  0.00    +0.000 A 
ENDROOT
BRANCH   4   6
ATOM      6  C   UNL     1      -1.116  12.432  19.635  0.00  0.00    +0.000 A 
ATOM      7  C   UNL     1      -0.611  13.547  18.941  0.00  0.00    +0.000 A 
ATOM      8  C   UNL     1       0.750  13.641  18.639  0.00  0.00    +0.000 A 
ATOM      9  C   UNL     1       1.626  12.646  19.057  0.00  0.00    +0.000 A 
ATOM     10  C   UNL     1       1.142  11.546  19.761  0.00  0.00    +0.000 A 
ATOM     11  C   UNL     1      -0.224  11.423  20.047  0.00  0.00    +0.000 A 
ATOM     12 CL   UNL     1      -0.703   9.923  20.771  0.00  0.00    +0.000 Cl
ENDBRANCH   4   6
BRANCH   5  13
ATOM     13  C   UNL     1      -3.447  11.351  17.754  0.00  0.00    +0.000 A 
ATOM     14  C   UNL     1      -2.449  10.395  17.486  0.00  0.00    +0.000 A 
ATOM     15  C   UNL     1      -2.253   9.880  16.196  0.00  0.00    +0.000 A 
ATOM     16  C   UNL     1      -3.116  10.240  15.167  0.00  0.00    +0.000 A 
ATOM     17 CL   UNL     1      -2.884   9.606  13.586  0.00  0.00    +0.000 Cl
ATOM     18  C   UNL     1      -4.157  11.123  15.418  0.00  0.00    +0.000 A 
ATOM     19  C   UNL     1      -4.301  11.693  16.691  0.00  0.00    +0.000 A 
ENDBRANCH   5  13
BRANCH   2  20
ATOM     20  C   UNL     1      -5.042  13.204  22.299  0.00  0.00    +0.000 C 
ATOM     21  O   UNL     1      -5.648  12.416  23.022  0.00  0.00    +0.000 OA
ATOM     22  N   UNL     1      -5.012  14.593  22.498  0.00  0.00    +0.000 N 
ATOM     23  H   UNL     1      -4.544  15.139  21.776  0.00  0.00    +0.000 HD
BRANCH  22  24
ATOM     24  N   UNL     1      -5.860  15.195  23.466  0.00  0.00    +0.000 NA
ATOM     25  C   UNL     1      -7.123  15.736  22.928  0.00  0.00    +0.000 C 
ATOM     26  C   UNL     1      -7.012  17.139  22.308  0.00  0.00    +0.000 C 
ATOM     27  O   UNL     1      -6.383  18.064  23.201  0.00  0.00    +0.000 OA
ATOM     28  C   UNL     1      -5.078  17.587  23.566  0.00  0.00    +0.000 C 
ATOM     29  C   UNL     1      -5.167  16.225  24.266  0.00  0.00    +0.000 C 
ENDBRANCH  22  24
ENDBRANCH   2  20
BRANCH   1  30
ATOM     30  C   UNL     1      -6.172  12.069  19.472  0.00  0.00    +0.000 C 
BRANCH  30  32
ATOM     31  N   UNL     1      -6.902   9.713  19.098  0.00  0.00    +0.000 NA
ATOM     32  C   UNL     1      -6.809  10.746  19.883  0.00  0.00    +0.000 C 
ATOM     33  N   UNL     1      -7.368  10.637  21.140  0.00  0.00    +0.000 N 
ATOM     34  H   UNL     1      -6.478   9.906  18.186  0.00  0.00    +0.000 HD
ATOM     35  H   UNL     1      -8.006   9.842  21.184  0.00  0.00    +0.000 HD
BRANCH  33  36
ATOM     36  O   UNL     1      -7.917  11.828  21.622  0.00  0.00    +0.000 OA
ATOM     37  H   UNL     1      -7.404  12.512  21.147  0.00  0.00    +0.000 HD
ENDBRANCH  33  36
ENDBRANCH  30  32
ENDBRANCH   1  30
TORSDOF 7
ENDMDL
MODEL 2
REMARK VINA RESULT:      -6.9      0.557      1.004
REMARK  Name = 
REMARK  7 active torsions:
REMARK  status: ('A' for Active; 'I' for Inactive)
REMARK    1  A    between atoms: C_2  and  C_3
REMARK    2  A    between atoms: C_3  and  C_4
REMARK    3  A    between atoms: C_5  and  C_6
REMARK    4  A    between atoms: N_8  and  N_9
REMARK    5  A    between atoms: N_16  and  C_17
REMARK    6  A    between atoms: C_24  and  C_25
REMARK    7  A    between atoms: N_32  and  O_33
REMARK                            x       y       z     vdW  Elec       q    Type
REMARK                         _______ _______ _______ _____ _____    ______ ____
ROOT
ATOM      1  C   UNL     1      -4.809  12.360  20.217  0.00  0.00    +0.000 A 
ATOM      2  C   UNL     1      -4.365  12.809  21.505  0.00  0.00    +0.000 A 
ATOM      3  N   UNL     1      -3.029  12.838  21.556  0.00  0.00    +0.000 NA
ATOM      4  N   UNL     1      -2.588  12.457  20.336  0.00  0.00    +0.000 N 
ATOM      5  C   UNL     1      -3.645  12.118  19.471  0.00  0.00    +0.000 A 
ENDROOT
BRANCH   4   6
ATOM      6  C   UNL     1      -1.189  12.539  20.073  0.00  0.00    +0.000 A 
ATOM      7  C   UNL     1      -0.691  13.598  19.292  0.00  0.00    +0.000 A 
ATOM      8  C   UNL     1       0.675  13.698  19.017  0.00  0.00    +0.000 A 
ATOM      9  C   UNL     1       1.562  12.769  19.547  0.00  0.00    +0.000 A 
ATOM     10  C   UNL     1       1.083  11.725  20.338  0.00  0.00    +0.000 A 
ATOM     11  C   UNL     1      -0.287  11.595  20.598  0.00  0.00    +0.000 A 
ATOM     12 CL   UNL     1      -0.751  10.156  21.445  0.00  0.00    +0.000 Cl
ENDBRANCH   4   6
BRANCH   5  13
ATOM     13  C   UNL     1      -3.486  11.539  18.106  0.00  0.00    +0.000 A 
ATOM     14  C   UNL     1      -4.367  11.868  17.058  0.00  0.00    +0.000 A 
ATOM     15  C   UNL     1      -4.284  11.244  15.805  0.00  0.00    +0.000 A 
ATOM     16  C   UNL     1      -3.256  10.346  15.545  0.00  0.00    +0.000 A 
ATOM     17 CL   UNL     1      -3.146   9.582  14.008  0.00  0.00    +0.000 Cl
ATOM     18  C   UNL     1      -2.326  10.057  16.534  0.00  0.00    +0.000 A 
ATOM     19  C   UNL     1      -2.459  10.627  17.809  0.00  0.00    +0.000 A 
ENDBRANCH   5  13
BRANCH   2  20
ATOM     20  C   UNL     1      -5.165  13.215  22.689  0.00  0.00    +0.000 C 
ATOM     21  O   UNL     1      -5.630  12.394  23.477  0.00  0.00    +0.000 OA
ATOM     22  N   UNL     1      -5.330  14.603  22.810  0.00  0.00    +0.000 N 
ATOM     23  H   UNL     1      -4.967  15.166  22.042  0.00  0.00    +0.000 HD
BRANCH  22  24
ATOM     24  N   UNL     1      -6.227  15.135  23.775  0.00  0.00    +0.000 NA
ATOM     25  C   UNL     1      -7.622  15.266  23.313  0.00  0.00    +0.000 C 
ATOM     26  C   UNL     1      -7.916  16.534  22.496  0.00  0.00    +0.000 C 
ATOM     27  O   UNL     1      -7.476  17.716  23.175  0.00  0.00    +0.000 OA
ATOM     28  C   UNL     1      -6.068  17.628  23.452  0.00  0.00    +0.000 C 
ATOM     29  C   UNL     1      -5.758  16.417  24.340  0.00  0.00    +0.000 C 
ENDBRANCH  22  24
ENDBRANCH   2  20
BRANCH   1  30
ATOM     30  C   UNL     1      -6.242  12.196  19.799  0.00  0.00    +0.000 C 
BRANCH  30  32
ATOM     31  N   UNL     1      -6.946  10.001  18.844  0.00  0.00    +0.000 NA
ATOM     32  C   UNL     1      -6.802  10.779  19.876  0.00  0.00    +0.000 C 
ATOM     33  N   UNL     1      -7.230  10.298  21.096  0.00  0.00    +0.000 N 
ATOM     34  H   UNL     1      -6.621  10.461  17.989  0.00  0.00    +0.000 HD
ATOM     35  H   UNL     1      -7.841   9.489  20.971  0.00  0.00    +0.000 HD
BRANCH  33  36
ATOM     36  O   UNL     1      -7.758  11.278  21.940  0.00  0.00    +0.000 OA
ATOM     37  H   UNL     1      -8.376  11.759  21.355  0.00  0.00    +0.000 HD
ENDBRANCH  33  36
ENDBRANCH  30  32
ENDBRANCH   1  30
TORSDOF 7
ENDMDL
MODEL 3
REMARK VINA RESULT:      -6.6      4.849      7.755
REMARK  Name = 
REMARK  7 active torsions:
REMARK  status: ('A' for Active; 'I' for Inactive)
REMARK    1  A    between atoms: C_2  and  C_3
REMARK    2  A    between atoms: C_3  and  C_4
REMARK    3  A    between atoms: C_5  and  C_6
REMARK    4  A    between atoms: N_8  and  N_9
REMARK    5  A    between atoms: N_16  and  C_17
REMARK    6  A    between atoms: C_24  and  C_25
REMARK    7  A    between atoms: N_32  and  O_33
REMARK                            x       y       z     vdW  Elec       q    Type
REMARK                         _______ _______ _______ _____ _____    ______ ____
ROOT
ATOM      1  C   UNL     1       0.307  14.325  19.643  0.00  0.00    +0.000 A 
ATOM      2  C   UNL     1       1.494  14.265  20.446  0.00  0.00    +0.000 A 
ATOM      3  N   UNL     1       1.569  13.093  21.085  0.00  0.00    +0.000 NA
ATOM      4  N   UNL     1       0.490  12.374  20.699  0.00  0.00    +0.000 N 
ATOM      5  C   UNL     1      -0.346  13.097  19.829  0.00  0.00    +0.000 A 
ENDROOT
BRANCH   4   6
ATOM      6  C   UNL     1       0.401  11.017  21.128  0.00  0.00    +0.000 A 
ATOM      7  C   UNL     1       1.093  10.018  20.419  0.00  0.00    +0.000 A 
ATOM      8  C   UNL     1       1.019   8.682  20.817  0.00  0.00    +0.000 A 
ATOM      9  C   UNL     1       0.287   8.330  21.945  0.00  0.00    +0.000 A 
ATOM     10  C   UNL     1      -0.389   9.312  22.667  0.00  0.00    +0.000 A 
ATOM     11  C   UNL     1      -0.347  10.654  22.264  0.00  0.00    +0.000 A 
ATOM     12 CL   UNL     1      -1.373  11.731  23.152  0.00  0.00    +0.000 Cl
ENDBRANCH   4   6
BRANCH   5  13
ATOM     13  C   UNL     1      -1.674  12.633  19.331  0.00  0.00    +0.000 A 
ATOM     14  C   UNL     1      -2.859  12.890  20.046  0.00  0.00    +0.000 A 
ATOM     15  C   UNL     1      -4.093  12.364  19.635  0.00  0.00    +0.000 A 
ATOM     16  C   UNL     1      -4.180  11.648  18.448  0.00  0.00    +0.000 A 
ATOM     17 CL   UNL     1      -5.691  11.005  17.937  0.00  0.00    +0.000 Cl
ATOM     18  C   UNL     1      -3.041  11.441  17.682  0.00  0.00    +0.000 A 
ATOM     19  C   UNL     1      -1.798  11.905  18.136  0.00  0.00    +0.000 A 
ENDBRANCH   5  13
BRANCH   2  20
ATOM     20  C   UNL     1       2.563  15.281  20.625  0.00  0.00    +0.000 C 
ATOM     21  O   UNL     1       2.366  16.339  21.219  0.00  0.00    +0.000 OA
ATOM     22  N   UNL     1       3.793  14.913  20.058  0.00  0.00    +0.000 N 
ATOM     23  H   UNL     1       3.796  14.048  19.518  0.00  0.00    +0.000 HD
BRANCH  22  24
ATOM     24  N   UNL     1       4.853  15.855  19.976  0.00  0.00    +0.000 NA
ATOM     25  C   UNL     1       5.529  15.911  18.666  0.00  0.00    +0.000 C 
ATOM     26  C   UNL     1       6.608  14.838  18.448  0.00  0.00    +0.000 C 
ATOM     27  O   UNL     1       7.552  14.812  19.525  0.00  0.00    +0.000 OA
ATOM     28  C   UNL     1       6.873  14.578  20.770  0.00  0.00    +0.000 C 
ATOM     29  C   UNL     1       5.849  15.683  21.053  0.00  0.00    +0.000 C 
ENDBRANCH  22  24
ENDBRANCH   2  20
BRANCH   1  30
ATOM     30  C   UNL     1      -0.112  15.490  18.793  0.00  0.00    +0.000 C 
BRANCH  30  32
ATOM     31  N   UNL     1      -2.187  16.586  19.637  0.00  0.00    +0.000 NA
ATOM     32  C   UNL     1      -0.894  16.589  19.504  0.00  0.00    +0.000 C 
ATOM     33  N   UNL     1      -0.209  17.680  19.998  0.00  0.00    +0.000 N 
ATOM     34  H   UNL     1      -2.598  15.747  19.217  0.00  0.00    +0.000 HD
ATOM     35  H   UNL     1      -0.847  18.458  20.173  0.00  0.00    +0.000 HD
BRANCH  33  36
ATOM     36  O   UNL     1       0.917  18.031  19.250  0.00  0.00    +0.000 OA
ATOM     37  H   UNL     1       0.751  17.596  18.390  0.00  0.00    +0.000 HD
ENDBRANCH  33  36
ENDBRANCH  30  32
ENDBRANCH   1  30
TORSDOF 7
ENDMDL
MODEL 4
REMARK VINA RESULT:      -6.6      4.833      7.730
REMARK  Name = 
REMARK  7 active torsions:
REMARK  status: ('A' for Active; 'I' for Inactive)
REMARK    1  A    between atoms: C_2  and  C_3
REMARK    2  A    between atoms: C_3  and  C_4
REMARK    3  A    between atoms: C_5  and  C_6
REMARK    4  A    between atoms: N_8  and  N_9
REMARK    5  A    between atoms: N_16  and  C_17
REMARK    6  A    between atoms: C_24  and  C_25
REMARK    7  A    between atoms: N_32  and  O_33
REMARK                            x       y       z     vdW  Elec       q    Type
REMARK                         _______ _______ _______ _____ _____    ______ ____
ROOT
ATOM      1  C   UNL     1       0.243  14.226  19.570  0.00  0.00    +0.000 A 
ATOM      2  C   UNL     1       1.401  14.217  20.417  0.00  0.00    +0.000 A 
ATOM      3  N   UNL     1       1.435  13.100  21.151  0.00  0.00    +0.000 NA
ATOM      4  N   UNL     1       0.359  12.366  20.787  0.00  0.00    +0.000 N 
ATOM      5  C   UNL     1      -0.436  13.026  19.832  0.00  0.00    +0.000 A 
ENDROOT
BRANCH   4   6
ATOM      6  C   UNL     1       0.234  11.049  21.320  0.00  0.00    +0.000 A 
ATOM      7  C   UNL     1      -0.263  10.873  22.624  0.00  0.00    +0.000 A 
ATOM      8  C   UNL     1      -0.392   9.594  23.170  0.00  0.00    +0.000 A 
ATOM      9  C   UNL     1      -0.063   8.476  22.411  0.00  0.00    +0.000 A 
ATOM     10  C   UNL     1       0.414   8.636  21.111  0.00  0.00    +0.000 A 
ATOM     11  C   UNL     1       0.575   9.914  20.560  0.00  0.00    +0.000 A 
ATOM     12 CL   UNL     1       1.340   9.964  19.006  0.00  0.00    +0.000 Cl
ENDBRANCH   4   6
BRANCH   5  13
ATOM     13  C   UNL     1      -1.753  12.541  19.327  0.00  0.00    +0.000 A 
ATOM     14  C   UNL     1      -1.867  11.863  18.099  0.00  0.00    +0.000 A 
ATOM     15  C   UNL     1      -3.115  11.501  17.573  0.00  0.00    +0.000 A 
ATOM     16  C   UNL     1      -4.271  11.727  18.312  0.00  0.00    +0.000 A 
ATOM     17 CL   UNL     1      -5.804  11.281  17.674  0.00  0.00    +0.000 Cl
ATOM     18  C   UNL     1      -4.184  12.327  19.561  0.00  0.00    +0.000 A 
ATOM     19  C   UNL     1      -2.940  12.755  20.048  0.00  0.00    +0.000 A 
ENDBRANCH   5  13
BRANCH   2  20
ATOM     20  C   UNL     1       2.479  15.229  20.551  0.00  0.00    +0.000 C 
ATOM     21  O   UNL     1       2.319  16.276  21.176  0.00  0.00    +0.000 OA
ATOM     22  N   UNL     1       3.672  14.874  19.903  0.00  0.00    +0.000 N 
ATOM     23  H   UNL     1       3.643  14.019  19.348  0.00  0.00    +0.000 HD
BRANCH  22  24
ATOM     24  N   UNL     1       4.726  15.818  19.776  0.00  0.00    +0.000 NA
ATOM     25  C   UNL     1       5.395  15.823  18.461  0.00  0.00    +0.000 C 
ATOM     26  C   UNL     1       6.480  14.748  18.284  0.00  0.00    +0.000 C 
ATOM     27  O   UNL     1       7.429  14.773  19.355  0.00  0.00    +0.000 OA
ATOM     28  C   UNL     1       6.758  14.589  20.613  0.00  0.00    +0.000 C 
ATOM     29  C   UNL     1       5.729  15.699  20.854  0.00  0.00    +0.000 C 
ENDBRANCH  22  24
ENDBRANCH   2  20
BRANCH   1  30
ATOM     30  C   UNL     1      -0.128  15.324  18.615  0.00  0.00    +0.000 C 
BRANCH  30  32
ATOM     31  N   UNL     1      -2.065  16.675  19.420  0.00  0.00    +0.000 NA
ATOM     32  C   UNL     1      -0.784  16.555  19.233  0.00  0.00    +0.000 C 
ATOM     33  N   UNL     1       0.009  17.631  19.575  0.00  0.00    +0.000 N 
ATOM     34  H   UNL     1      -2.562  15.833  19.113  0.00  0.00    +0.000 HD
ATOM     35  H   UNL     1      -0.555  18.473  19.689  0.00  0.00    +0.000 HD
BRANCH  33  36
ATOM     36  O   UNL     1       1.120  17.804  18.747  0.00  0.00    +0.000 OA
ATOM     37  H   UNL     1       1.060  18.747  18.495  0.00  0.00    +0.000 HD
ENDBRANCH  33  36
ENDBRANCH  30  32
ENDBRANCH   1  30
TORSDOF 7
ENDMDL
MODEL 5
REMARK VINA RESULT:      -6.4      3.397      5.962
REMARK  Name = 
REMARK  7 active torsions:
REMARK  status: ('A' for Active; 'I' for Inactive)
REMARK    1  A    between atoms: C_2  and  C_3
REMARK    2  A    between atoms: C_3  and  C_4
REMARK    3  A    between atoms: C_5  and  C_6
REMARK    4  A    between atoms: N_8  and  N_9
REMARK    5  A    between atoms: N_16  and  C_17
REMARK    6  A    between atoms: C_24  and  C_25
REMARK    7  A    between atoms: N_32  and  O_33
REMARK                            x       y       z     vdW  Elec       q    Type
REMARK                         _______ _______ _______ _____ _____    ______ ____
ROOT
ATOM      1  C   UNL     1      -0.919  13.527  20.547  0.00  0.00    +0.000 A 
ATOM      2  C   UNL     1      -1.977  12.559  20.502  0.00  0.00    +0.000 A 
ATOM      3  N   UNL     1      -1.517  11.382  20.065  0.00  0.00    +0.000 NA
ATOM      4  N   UNL     1      -0.190  11.540  19.857  0.00  0.00    +0.000 N 
ATOM      5  C   UNL     1       0.234  12.858  20.109  0.00  0.00    +0.000 A 
ENDROOT
BRANCH   4   6
ATOM      6  C   UNL     1       0.578  10.386  19.522  0.00  0.00    +0.000 A 
ATOM      7  C   UNL     1       1.007  10.199  18.195  0.00  0.00    +0.000 A 
ATOM      8  C   UNL     1       1.757   9.076  17.841  0.00  0.00    +0.000 A 
ATOM      9  C   UNL     1       2.120   8.147  18.809  0.00  0.00    +0.000 A 
ATOM     10  C   UNL     1       1.717   8.329  20.131  0.00  0.00    +0.000 A 
ATOM     11  C   UNL     1       0.940   9.437  20.496  0.00  0.00    +0.000 A 
ATOM     12 CL   UNL     1       0.368   9.439  22.132  0.00  0.00    +0.000 Cl
ENDBRANCH   4   6
BRANCH   5  13
ATOM     13  C   UNL     1       1.606  13.383  19.849  0.00  0.00    +0.000 A 
ATOM     14  C   UNL     1       2.510  13.632  20.898  0.00  0.00    +0.000 A 
ATOM     15  C   UNL     1       3.760  14.226  20.666  0.00  0.00    +0.000 A 
ATOM     16  C   UNL     1       4.168  14.495  19.365  0.00  0.00    +0.000 A 
ATOM     17 CL   UNL     1       5.701  15.217  19.074  0.00  0.00    +0.000 Cl
ATOM     18  C   UNL     1       3.328  14.191  18.302  0.00  0.00    +0.000 A 
ATOM     19  C   UNL     1       2.050  13.668  18.546  0.00  0.00    +0.000 A 
ENDBRANCH   5  13
BRANCH   2  20
ATOM     20  C   UNL     1      -3.409  12.711  20.863  0.00  0.00    +0.000 C 
ATOM     21  O   UNL     1      -3.805  12.619  22.023  0.00  0.00    +0.000 OA
ATOM     22  N   UNL     1      -4.245  12.967  19.764  0.00  0.00    +0.000 N 
ATOM     23  H   UNL     1      -3.802  12.932  18.847  0.00  0.00    +0.000 HD
BRANCH  22  24
ATOM     24  N   UNL     1      -5.657  12.944  19.919  0.00  0.00    +0.000 NA
ATOM     25  C   UNL     1      -6.267  11.604  19.816  0.00  0.00    +0.000 C 
ATOM     26  C   UNL     1      -6.523  11.120  18.379  0.00  0.00    +0.000 C 
ATOM     27  O   UNL     1      -7.252  12.088  17.616  0.00  0.00    +0.000 OA
ATOM     28  C   UNL     1      -6.537  13.335  17.592  0.00  0.00    +0.000 C 
ATOM     29  C   UNL     1      -6.343  13.884  19.010  0.00  0.00    +0.000 C 
ENDBRANCH  22  24
ENDBRANCH   2  20
BRANCH   1  30
ATOM     30  C   UNL     1      -1.065  14.958  20.978  0.00  0.00    +0.000 C 
BRANCH  30  32
ATOM     31  N   UNL     1      -0.982  16.449  18.981  0.00  0.00    +0.000 NA
ATOM     32  C   UNL     1      -1.663  15.910  19.947  0.00  0.00    +0.000 C 
ATOM     33  N   UNL     1      -2.991  16.266  20.061  0.00  0.00    +0.000 N 
ATOM     34  H   UNL     1      -0.006  16.137  19.000  0.00  0.00    +0.000 HD
ATOM     35  H   UNL     1      -3.187  17.108  19.519  0.00  0.00    +0.000 HD
BRANCH  33  36
ATOM     36  O   UNL     1      -3.453  16.323  21.378  0.00  0.00    +0.000 OA
ATOM     37  H   UNL     1      -3.752  15.407  21.544  0.00  0.00    +0.000 HD
ENDBRANCH  33  36
ENDBRANCH  30  32
ENDBRANCH   1  30
TORSDOF 7
ENDMDL
MODEL 6
REMARK VINA RESULT:      -6.4      3.232      5.821
REMARK  Name = 
REMARK  7 active torsions:
REMARK  status: ('A' for Active; 'I' for Inactive)
REMARK    1  A    between atoms: C_2  and  C_3
REMARK    2  A    between atoms: C_3  and  C_4
REMARK    3  A    between atoms: C_5  and  C_6
REMARK    4  A    between atoms: N_8  and  N_9
REMARK    5  A    between atoms: N_16  and  C_17
REMARK    6  A    between atoms: C_24  and  C_25
REMARK    7  A    between atoms: N_32  and  O_33
REMARK                            x       y       z     vdW  Elec       q    Type
REMARK                         _______ _______ _______ _____ _____    ______ ____
ROOT
ATOM      1  C   UNL     1      -1.132  13.504  20.348  0.00  0.00    +0.000 A 
ATOM      2  C   UNL     1      -2.171  12.518  20.295  0.00  0.00    +0.000 A 
ATOM      3  N   UNL     1      -1.677  11.337  19.908  0.00  0.00    +0.000 NA
ATOM      4  N   UNL     1      -0.347  11.512  19.740  0.00  0.00    +0.000 N 
ATOM      5  C   UNL     1       0.047  12.844  19.968  0.00  0.00    +0.000 A 
ENDROOT
BRANCH   4   6
ATOM      6  C   UNL     1       0.451  10.363  19.463  0.00  0.00    +0.000 A 
ATOM      7  C   UNL     1       0.888  10.122  18.147  0.00  0.00    +0.000 A 
ATOM      8  C   UNL     1       1.667   9.002  17.850  0.00  0.00    +0.000 A 
ATOM      9  C   UNL     1       2.051   8.131  18.864  0.00  0.00    +0.000 A 
ATOM     10  C   UNL     1       1.640   8.369  20.174  0.00  0.00    +0.000 A 
ATOM     11  C   UNL     1       0.834   9.472  20.483  0.00  0.00    +0.000 A 
ATOM     12 CL   UNL     1       0.258   9.541  22.116  0.00  0.00    +0.000 Cl
ENDBRANCH   4   6
BRANCH   5  13
ATOM     13  C   UNL     1       1.418  13.385  19.740  0.00  0.00    +0.000 A 
ATOM     14  C   UNL     1       2.309  13.609  20.806  0.00  0.00    +0.000 A 
ATOM     15  C   UNL     1       3.556  14.217  20.606  0.00  0.00    +0.000 A 
ATOM     16  C   UNL     1       3.978  14.527  19.318  0.00  0.00    +0.000 A 
ATOM     17 CL   UNL     1       5.509  15.268  19.066  0.00  0.00    +0.000 Cl
ATOM     18  C   UNL     1       3.152  14.250  18.237  0.00  0.00    +0.000 A 
ATOM     19  C   UNL     1       1.874  13.711  18.451  0.00  0.00    +0.000 A 
ENDBRANCH   5  13
BRANCH   2  20
ATOM     20  C   UNL     1      -3.617  12.655  20.603  0.00  0.00    +0.000 C 
ATOM     21  O   UNL     1      -4.044  12.650  21.757  0.00  0.00    +0.000 OA
ATOM     22  N   UNL     1      -4.428  12.788  19.465  0.00  0.00    +0.000 N 
ATOM     23  H   UNL     1      -3.957  12.689  18.566  0.00  0.00    +0.000 HD
BRANCH  22  24
ATOM     24  N   UNL     1      -5.842  12.734  19.584  0.00  0.00    +0.000 NA
ATOM     25  C   UNL     1      -6.518  11.930  18.548  0.00  0.00    +0.000 C 
ATOM     26  C   UNL     1      -6.764  12.662  17.219  0.00  0.00    +0.000 C 
ATOM     27  O   UNL     1      -7.423  13.918  17.421  0.00  0.00    +0.000 OA
ATOM     28  C   UNL     1      -6.645  14.747  18.300  0.00  0.00    +0.000 C 
ATOM     29  C   UNL     1      -6.457  14.075  19.665  0.00  0.00    +0.000 C 
ENDBRANCH  22  24
ENDBRANCH   2  20
BRANCH   1  30
ATOM     30  C   UNL     1      -1.316  14.944  20.734  0.00  0.00    +0.000 C 
BRANCH  30  32
ATOM     31  N   UNL     1      -0.277  14.879  23.001  0.00  0.00    +0.000 NA
ATOM     32  C   UNL     1      -1.254  15.248  22.228  0.00  0.00    +0.000 C 
ATOM     33  N   UNL     1      -2.311  15.911  22.816  0.00  0.00    +0.000 N 
ATOM     34  H   UNL     1       0.442  14.376  22.472  0.00  0.00    +0.000 HD
ATOM     35  H   UNL     1      -2.294  15.790  23.830  0.00  0.00    +0.000 HD
BRANCH  33  36
ATOM     36  O   UNL     1      -3.551  15.632  22.236  0.00  0.00    +0.000 OA
ATOM     37  H   UNL     1      -3.323  14.990  21.534  0.00  0.00    +0.000 HD
ENDBRANCH  33  36
ENDBRANCH  30  32
ENDBRANCH   1  30
TORSDOF 7
ENDMDL
MODEL 7
REMARK VINA RESULT:      -6.3      1.273      1.433
REMARK  Name = 
REMARK  7 active torsions:
REMARK  status: ('A' for Active; 'I' for Inactive)
REMARK    1  A    between atoms: C_2  and  C_3
REMARK    2  A    between atoms: C_3  and  C_4
REMARK    3  A    between atoms: C_5  and  C_6
REMARK    4  A    between atoms: N_8  and  N_9
REMARK    5  A    between atoms: N_16  and  C_17
REMARK    6  A    between atoms: C_24  and  C_25
REMARK    7  A    between atoms: N_32  and  O_33
REMARK                            x       y       z     vdW  Elec       q    Type
REMARK                         _______ _______ _______ _____ _____    ______ ____
ROOT
ATOM      1  C   UNL     1      -4.333  12.362  20.533  0.00  0.00    +0.000 A 
ATOM      2  C   UNL     1      -3.793  12.957  21.722  0.00  0.00    +0.000 A 
ATOM      3  N   UNL     1      -2.473  13.131  21.600  0.00  0.00    +0.000 NA
ATOM      4  N   UNL     1      -2.140  12.703  20.361  0.00  0.00    +0.000 N 
ATOM      5  C   UNL     1      -3.246  12.185  19.663  0.00  0.00    +0.000 A 
ENDROOT
BRANCH   4   6
ATOM      6  C   UNL     1      -0.801  12.912  19.917  0.00  0.00    +0.000 A 
ATOM      7  C   UNL     1      -0.481  14.081  19.203  0.00  0.00    +0.000 A 
ATOM      8  C   UNL     1       0.822  14.307  18.754  0.00  0.00    +0.000 A 
ATOM      9  C   UNL     1       1.827  13.391  19.043  0.00  0.00    +0.000 A 
ATOM     10  C   UNL     1       1.527  12.238  19.766  0.00  0.00    +0.000 A 
ATOM     11  C   UNL     1       0.219  11.984  20.198  0.00  0.00    +0.000 A 
ATOM     12 CL   UNL     1      -0.037  10.433  20.929  0.00  0.00    +0.000 Cl
ENDBRANCH   4   6
BRANCH   5  13
ATOM     13  C   UNL     1      -3.185  11.519  18.330  0.00  0.00    +0.000 A 
ATOM     14  C   UNL     1      -2.197  10.563  18.028  0.00  0.00    +0.000 A 
ATOM     15  C   UNL     1      -2.073  10.015  16.744  0.00  0.00    +0.000 A 
ATOM     16  C   UNL     1      -2.996  10.342  15.758  0.00  0.00    +0.000 A 
ATOM     17 CL   UNL     1      -2.852   9.669  14.182  0.00  0.00    +0.000 Cl
ATOM     18  C   UNL     1      -4.028  11.226  16.046  0.00  0.00    +0.000 A 
ATOM     19  C   UNL     1      -4.102  11.828  17.310  0.00  0.00    +0.000 A 
ENDBRANCH   5  13
BRANCH   2  20
ATOM     20  C   UNL     1      -4.487  13.369  22.968  0.00  0.00    +0.000 C 
ATOM     21  O   UNL     1      -4.670  12.592  23.903  0.00  0.00    +0.000 OA
ATOM     22  N   UNL     1      -4.903  14.710  22.966  0.00  0.00    +0.000 N 
ATOM     23  H   UNL     1      -4.767  15.220  22.094  0.00  0.00    +0.000 HD
BRANCH  22  24
ATOM     24  N   UNL     1      -5.747  15.198  23.999  0.00  0.00    +0.000 NA
ATOM     25  C   UNL     1      -7.180  15.251  23.652  0.00  0.00    +0.000 C 
ATOM     26  C   UNL     1      -7.608  16.497  22.860  0.00  0.00    +0.000 C 
ATOM     27  O   UNL     1      -7.179  17.704  23.499  0.00  0.00    +0.000 OA
ATOM     28  C   UNL     1      -5.751  17.694  23.662  0.00  0.00    +0.000 C 
ATOM     29  C   UNL     1      -5.304  16.507  24.523  0.00  0.00    +0.000 C 
ENDBRANCH  22  24
ENDBRANCH   2  20
BRANCH   1  30
ATOM     30  C   UNL     1      -5.777  12.012  20.313  0.00  0.00    +0.000 C 
BRANCH  30  32
ATOM     31  N   UNL     1      -6.902  14.237  20.247  0.00  0.00    +0.000 NA
ATOM     32  C   UNL     1      -6.638  13.099  19.677  0.00  0.00    +0.000 C 
ATOM     33  N   UNL     1      -7.217  12.857  18.449  0.00  0.00    +0.000 N 
ATOM     34  H   UNL     1      -6.445  14.306  21.161  0.00  0.00    +0.000 HD
ATOM     35  H   UNL     1      -7.984  13.508  18.277  0.00  0.00    +0.000 HD
BRANCH  33  36
ATOM     36  O   UNL     1      -7.554  11.518  18.234  0.00  0.00    +0.000 OA
ATOM     37  H   UNL     1      -8.370  11.583  17.699  0.00  0.00    +0.000 HD
ENDBRANCH  33  36
ENDBRANCH  30  32
ENDBRANCH   1  30
TORSDOF 7
ENDMDL
MODEL 8
REMARK VINA RESULT:      -6.2      3.345      5.544
REMARK  Name = 
REMARK  7 active torsions:
REMARK  status: ('A' for Active; 'I' for Inactive)
REMARK    1  A    between atoms: C_2  and  C_3
REMARK    2  A    between atoms: C_3  and  C_4
REMARK    3  A    between atoms: C_5  and  C_6
REMARK    4  A    between atoms: N_8  and  N_9
REMARK    5  A    between atoms: N_16  and  C_17
REMARK    6  A    between atoms: C_24  and  C_25
REMARK    7  A    between atoms: N_32  and  O_33
REMARK                            x       y       z     vdW  Elec       q    Type
REMARK                         _______ _______ _______ _____ _____    ______ ____
ROOT
ATOM      1  C   UNL     1      -0.840  13.274  21.328  0.00  0.00    +0.000 A 
ATOM      2  C   UNL     1      -1.788  12.221  21.555  0.00  0.00    +0.000 A 
ATOM      3  N   UNL     1      -1.380  11.090  20.970  0.00  0.00    +0.000 NA
ATOM      4  N   UNL     1      -0.184  11.359  20.401  0.00  0.00    +0.000 N 
ATOM      5  C   UNL     1       0.190  12.706  20.562  0.00  0.00    +0.000 A 
ENDROOT
BRANCH   4   6
ATOM      6  C   UNL     1       0.545  10.276  19.827  0.00  0.00    +0.000 A 
ATOM      7  C   UNL     1       0.734  10.227  18.434  0.00  0.00    +0.000 A 
ATOM      8  C   UNL     1       1.441   9.175  17.848  0.00  0.00    +0.000 A 
ATOM      9  C   UNL     1       1.999   8.182  18.645  0.00  0.00    +0.000 A 
ATOM     10  C   UNL     1       1.834   8.228  20.028  0.00  0.00    +0.000 A 
ATOM     11  C   UNL     1       1.103   9.262  20.628  0.00  0.00    +0.000 A 
ATOM     12 CL   UNL     1       0.834   9.093  22.332  0.00  0.00    +0.000 Cl
ENDBRANCH   4   6
BRANCH   5  13
ATOM     13  C   UNL     1       1.386  13.346  19.942  0.00  0.00    +0.000 A 
ATOM     14  C   UNL     1       1.398  13.728  18.587  0.00  0.00    +0.000 A 
ATOM     15  C   UNL     1       2.556  14.230  17.976  0.00  0.00    +0.000 A 
ATOM     16  C   UNL     1       3.700  14.450  18.733  0.00  0.00    +0.000 A 
ATOM     17 CL   UNL     1       5.121  15.071  17.990  0.00  0.00    +0.000 Cl
ATOM     18  C   UNL     1       3.697  14.153  20.089  0.00  0.00    +0.000 A 
ATOM     19  C   UNL     1       2.560  13.580  20.678  0.00  0.00    +0.000 A 
ENDBRANCH   5  13
BRANCH   2  20
ATOM     20  C   UNL     1      -3.066  12.251  22.310  0.00  0.00    +0.000 C 
ATOM     21  O   UNL     1      -3.136  11.920  23.492  0.00  0.00    +0.000 OA
ATOM     22  N   UNL     1      -4.163  12.687  21.549  0.00  0.00    +0.000 N 
ATOM     23  H   UNL     1      -3.984  12.847  20.558  0.00  0.00    +0.000 HD
BRANCH  22  24
ATOM     24  N   UNL     1      -5.480  12.585  22.070  0.00  0.00    +0.000 NA
ATOM     25  C   UNL     1      -6.476  12.041  21.127  0.00  0.00    +0.000 C 
ATOM     26  C   UNL     1      -7.059  13.066  20.141  0.00  0.00    +0.000 C 
ATOM     27  O   UNL     1      -7.556  14.227  20.816  0.00  0.00    +0.000 OA
ATOM     28  C   UNL     1      -6.507  14.834  21.588  0.00  0.00    +0.000 C 
ATOM     29  C   UNL     1      -5.965  13.859  22.640  0.00  0.00    +0.000 C 
ENDBRANCH  22  24
ENDBRANCH   2  20
BRANCH   1  30
ATOM     30  C   UNL     1      -0.969  14.684  21.827  0.00  0.00    +0.000 C 
BRANCH  30  32
ATOM     31  N   UNL     1      -2.907  15.455  20.459  0.00  0.00    +0.000 NA
ATOM     32  C   UNL     1      -1.703  15.655  20.907  0.00  0.00    +0.000 C 
ATOM     33  N   UNL     1      -1.047  16.790  20.478  0.00  0.00    +0.000 N 
ATOM     34  H   UNL     1      -3.292  14.576  20.818  0.00  0.00    +0.000 HD
ATOM     35  H   UNL     1      -1.510  17.186  19.659  0.00  0.00    +0.000 HD
BRANCH  33  36
ATOM     36  O   UNL     1       0.331  16.626  20.323  0.00  0.00    +0.000 OA
ATOM     37  H   UNL     1       0.458  16.754  19.362  0.00  0.00    +0.000 HD
ENDBRANCH  33  36
ENDBRANCH  30  32
ENDBRANCH   1  30
TORSDOF 7
ENDMDL
MODEL 9
REMARK VINA RESULT:      -6.2      4.634      7.295
REMARK  Name = 
REMARK  7 active torsions:
REMARK  status: ('A' for Active; 'I' for Inactive)
REMARK    1  A    between atoms: C_2  and  C_3
REMARK    2  A    between atoms: C_3  and  C_4
REMARK    3  A    between atoms: C_5  and  C_6
REMARK    4  A    between atoms: N_8  and  N_9
REMARK    5  A    between atoms: N_16  and  C_17
REMARK    6  A    between atoms: C_24  and  C_25
REMARK    7  A    between atoms: N_32  and  O_33
REMARK                            x       y       z     vdW  Elec       q    Type
REMARK                         _______ _______ _______ _____ _____    ______ ____
ROOT
ATOM      1  C   UNL     1      -0.164  14.447  20.117  0.00  0.00    +0.000 A 
ATOM      2  C   UNL     1       1.011  14.402  20.938  0.00  0.00    +0.000 A 
ATOM      3  N   UNL     1       1.177  13.180  21.454  0.00  0.00    +0.000 NA
ATOM      4  N   UNL     1       0.170  12.418  20.970  0.00  0.00    +0.000 N 
ATOM      5  C   UNL     1      -0.713  13.155  20.159  0.00  0.00    +0.000 A 
ENDROOT
BRANCH   4   6
ATOM      6  C   UNL     1       0.191  11.020  21.253  0.00  0.00    +0.000 A 
ATOM      7  C   UNL     1       0.994  10.167  20.476  0.00  0.00    +0.000 A 
ATOM      8  C   UNL     1       1.029   8.794  20.731  0.00  0.00    +0.000 A 
ATOM      9  C   UNL     1       0.295   8.262  21.785  0.00  0.00    +0.000 A 
ATOM     10  C   UNL     1      -0.491   9.100  22.574  0.00  0.00    +0.000 A 
ATOM     11  C   UNL     1      -0.558  10.474  22.313  0.00  0.00    +0.000 A 
ATOM     12 CL   UNL     1      -1.708  11.358  23.262  0.00  0.00    +0.000 Cl
ENDBRANCH   4   6
BRANCH   5  13
ATOM     13  C   UNL     1      -1.988  12.637  19.585  0.00  0.00    +0.000 A 
ATOM     14  C   UNL     1      -2.012  11.916  18.376  0.00  0.00    +0.000 A 
ATOM     15  C   UNL     1      -3.218  11.521  17.780  0.00  0.00    +0.000 A 
ATOM     16  C   UNL     1      -4.423  11.758  18.431  0.00  0.00    +0.000 A 
ATOM     17 CL   UNL     1      -5.905  11.272  17.708  0.00  0.00    +0.000 Cl
ATOM     18  C   UNL     1      -4.427  12.402  19.661  0.00  0.00    +0.000 A 
ATOM     19  C   UNL     1      -3.223  12.861  20.216  0.00  0.00    +0.000 A 
ENDBRANCH   5  13
BRANCH   2  20
ATOM     20  C   UNL     1       1.986  15.479  21.248  0.00  0.00    +0.000 C 
ATOM     21  O   UNL     1       1.672  16.483  21.884  0.00  0.00    +0.000 OA
ATOM     22  N   UNL     1       3.275  15.235  20.749  0.00  0.00    +0.000 N 
ATOM     23  H   UNL     1       3.380  14.406  20.164  0.00  0.00    +0.000 HD
BRANCH  22  24
ATOM     24  N   UNL     1       4.264  16.254  20.794  0.00  0.00    +0.000 NA
ATOM     25  C   UNL     1       4.604  16.841  19.484  0.00  0.00    +0.000 C 
ATOM     26  C   UNL     1       5.623  16.037  18.660  0.00  0.00    +0.000 C 
ATOM     27  O   UNL     1       6.798  15.734  19.420  0.00  0.00    +0.000 OA
ATOM     28  C   UNL     1       6.443  15.004  20.606  0.00  0.00    +0.000 C 
ATOM     29  C   UNL     1       5.493  15.821  21.490  0.00  0.00    +0.000 C 
ENDBRANCH  22  24
ENDBRANCH   2  20
BRANCH   1  30
ATOM     30  C   UNL     1      -0.668  15.656  19.383  0.00  0.00    +0.000 C 
BRANCH  30  32
ATOM     31  N   UNL     1      -2.911  16.416  20.168  0.00  0.00    +0.000 NA
ATOM     32  C   UNL     1      -1.619  16.561  20.160  0.00  0.00    +0.000 C 
ATOM     33  N   UNL     1      -1.098  17.629  20.861  0.00  0.00    +0.000 N 
ATOM     34  H   UNL     1      -3.194  15.611  19.601  0.00  0.00    +0.000 HD
ATOM     35  H   UNL     1      -1.828  18.309  21.077  0.00  0.00    +0.000 HD
BRANCH  33  36
ATOM     36  O   UNL     1       0.041  18.190  20.278  0.00  0.00    +0.000 OA
ATOM     37  H   UNL     1       0.770  17.713  20.722  0.00  0.00    +0.000 HD
ENDBRANCH  33  36
ENDBRANCH  30  32
ENDBRANCH   1  30
TORSDOF 7
ENDMDL
