MODEL 1
REMARK VINA RESULT:      -6.7      0.000      0.000
REMARK  Name = 
REMARK  10 active torsions:
REMARK  status: ('A' for Active; 'I' for Inactive)
REMARK    1  A    between atoms: C_1  and  N_2
REMARK    2  A    between atoms: C_3  and  C_5
REMARK    3  A    between atoms: C_8  and  C_9
REMARK    4  A    between atoms: C_9  and  N_10
REMARK    5  A    between atoms: N_10  and  C_11
REMARK    6  A    between atoms: N_10  and  C_14
REMARK    7  A    between atoms: C_11  and  C_12
REMARK    8  A    between atoms: C_11  and  C_13
REMARK    9  A    between atoms: C_14  and  C_15
REMARK   10  A    between atoms: C_14  and  C_16
REMARK                            x       y       z     vdW  Elec       q    Type
REMARK                         _______ _______ _______ _____ _____    ______ ____
ROOT
ATOM      1  C   UNL     1       6.370   4.694  16.412  0.00  0.00    +0.000 A 
ATOM      2  C   UNL     1       7.198   4.707  17.520  0.00  0.00    +0.000 A 
ATOM      3  C   UNL     1       6.366   4.852  18.612  0.00  0.00    +0.000 A 
ATOM      4  C   UNL     1       5.084   4.924  18.095  0.00  0.00    +0.000 A 
ATOM      5  O   UNL     1       5.121   4.814  16.786  0.00  0.00    +0.000 OA
ENDROOT
BRANCH   1   8
ATOM      6  C   UNL     1       6.558   3.624  12.759  0.00  0.00    +0.000 C 
ATOM      7  N   UNL     1       6.190   3.727  14.154  0.00  0.00    +0.000 N 
ATOM      8  C   UNL     1       6.800   4.603  15.000  0.00  0.00    +0.000 C 
ATOM      9  O   UNL     1       7.692   5.334  14.596  0.00  0.00    +0.000 OA
ATOM     10  H   UNL     1       5.436   3.117  14.506  0.00  0.00    +0.000 HD
ENDBRANCH   1   8
BRANCH   4  11
ATOM     11  C   UNL     1       3.819   5.143  18.858  0.00  0.00    +0.000 C 
BRANCH  11  12
ATOM     12  N   UNL     1       3.307   3.924  19.562  0.00  0.00    +0.000 NA
BRANCH  12  13
ATOM     13  C   UNL     1       2.582   4.211  20.864  0.00  0.00    +0.000 C 
ATOM     14  C   UNL     1       1.712   5.489  20.789  0.00  0.00    +0.000 C 
ATOM     15  C   UNL     1       1.599   3.101  21.312  0.00  0.00    +0.000 C 
ENDBRANCH  12  13
BRANCH  12  16
ATOM     16  C   UNL     1       2.490   3.070  18.621  0.00  0.00    +0.000 C 
ATOM     17  C   UNL     1       1.776   3.881  17.518  0.00  0.00    +0.000 C 
ATOM     18  C   UNL     1       3.285   1.911  17.982  0.00  0.00    +0.000 C 
ENDBRANCH  12  16
ENDBRANCH  11  12
ENDBRANCH   4  11
TORSDOF 5
ENDMDL
MODEL 2
REMARK VINA RESULT:      -6.6      1.001      2.302
REMARK  Name = 
REMARK  10 active torsions:
REMARK  status: ('A' for Active; 'I' for Inactive)
REMARK    1  A    between atoms: C_1  and  N_2
REMARK    2  A    between atoms: C_3  and  C_5
REMARK    3  A    between atoms: C_8  and  C_9
REMARK    4  A    between atoms: C_9  and  N_10
REMARK    5  A    between atoms: N_10  and  C_11
REMARK    6  A    between atoms: N_10  and  C_14
REMARK    7  A    between atoms: C_11  and  C_12
REMARK    8  A    between atoms: C_11  and  C_13
REMARK    9  A    between atoms: C_14  and  C_15
REMARK   10  A    between atoms: C_14  and  C_16
REMARK                            x       y       z     vdW  Elec       q    Type
REMARK                         _______ _______ _______ _____ _____    ______ ____
ROOT
ATOM      1  C   UNL     1       5.770   5.059  15.937  0.00  0.00    +0.000 A 
ATOM      2  C   UNL     1       5.093   6.220  16.263  0.00  0.00    +0.000 A 
ATOM      3  C   UNL     1       4.566   6.010  17.521  0.00  0.00    +0.000 A 
ATOM      4  C   UNL     1       4.952   4.729  17.876  0.00  0.00    +0.000 A 
ATOM      5  O   UNL     1       5.677   4.198  16.918  0.00  0.00    +0.000 OA
ENDROOT
BRANCH   1   8
ATOM      6  C   UNL     1       6.555   3.657  12.482  0.00  0.00    +0.000 C 
ATOM      7  N   UNL     1       5.921   3.933  13.752  0.00  0.00    +0.000 N 
ATOM      8  C   UNL     1       6.470   4.783  14.664  0.00  0.00    +0.000 C 
ATOM      9  O   UNL     1       7.532   5.341  14.429  0.00  0.00    +0.000 OA
ATOM     10  H   UNL     1       5.023   3.471  13.960  0.00  0.00    +0.000 HD
ENDBRANCH   1   8
BRANCH   4  11
ATOM     11  C   UNL     1       4.588   3.995  19.125  0.00  0.00    +0.000 C 
BRANCH  11  12
ATOM     12  N   UNL     1       3.114   3.862  19.353  0.00  0.00    +0.000 NA
BRANCH  12  13
ATOM     13  C   UNL     1       2.585   2.445  19.224  0.00  0.00    +0.000 C 
ATOM     14  C   UNL     1       1.245   2.381  18.454  0.00  0.00    +0.000 C 
ATOM     15  C   UNL     1       3.519   1.477  18.455  0.00  0.00    +0.000 C 
ENDBRANCH  12  13
BRANCH  12  16
ATOM     16  C   UNL     1       2.717   4.511  20.659  0.00  0.00    +0.000 C 
ATOM     17  C   UNL     1       1.752   5.703  20.484  0.00  0.00    +0.000 C 
ATOM     18  C   UNL     1       2.140   3.523  21.697  0.00  0.00    +0.000 C 
ENDBRANCH  12  16
ENDBRANCH  11  12
ENDBRANCH   4  11
TORSDOF 5
ENDMDL
MODEL 3
REMARK VINA RESULT:      -6.6      0.524      1.292
REMARK  Name = 
REMARK  10 active torsions:
REMARK  status: ('A' for Active; 'I' for Inactive)
REMARK    1  A    between atoms: C_1  and  N_2
REMARK    2  A    between atoms: C_3  and  C_5
REMARK    3  A    between atoms: C_8  and  C_9
REMARK    4  A    between atoms: C_9  and  N_10
REMARK    5  A    between atoms: N_10  and  C_11
REMARK    6  A    between atoms: N_10  and  C_14
REMARK    7  A    between atoms: C_11  and  C_12
REMARK    8  A    between atoms: C_11  and  C_13
REMARK    9  A    between atoms: C_14  and  C_15
REMARK   10  A    between atoms: C_14  and  C_16
REMARK                            x       y       z     vdW  Elec       q    Type
REMARK                         _______ _______ _______ _____ _____    ______ ____
ROOT
ATOM      1  C   UNL     1       6.589   4.686  16.405  0.00  0.00    +0.000 A 
ATOM      2  C   UNL     1       7.529   4.661  17.419  0.00  0.00    +0.000 A 
ATOM      3  C   UNL     1       6.819   4.792  18.596  0.00  0.00    +0.000 A 
ATOM      4  C   UNL     1       5.492   4.897  18.219  0.00  0.00    +0.000 A 
ATOM      5  O   UNL     1       5.390   4.817  16.911  0.00  0.00    +0.000 OA
ENDROOT
BRANCH   1   8
ATOM      6  C   UNL     1       6.447   3.625  12.747  0.00  0.00    +0.000 C 
ATOM      7  N   UNL     1       6.228   3.706  14.174  0.00  0.00    +0.000 N 
ATOM      8  C   UNL     1       6.868   4.621  14.954  0.00  0.00    +0.000 C 
ATOM      9  O   UNL     1       7.660   5.410  14.459  0.00  0.00    +0.000 OA
ATOM     10  H   UNL     1       5.558   3.048  14.603  0.00  0.00    +0.000 HD
ENDBRANCH   1   8
BRANCH   4  11
ATOM     11  C   UNL     1       4.318   5.117  19.116  0.00  0.00    +0.000 C 
BRANCH  11  12
ATOM     12  N   UNL     1       3.582   3.866  19.483  0.00  0.00    +0.000 NA
BRANCH  12  13
ATOM     13  C   UNL     1       2.257   4.102  20.185  0.00  0.00    +0.000 C 
ATOM     14  C   UNL     1       2.180   3.393  21.558  0.00  0.00    +0.000 C 
ATOM     15  C   UNL     1       1.952   5.588  20.501  0.00  0.00    +0.000 C 
ENDBRANCH  12  13
BRANCH  12  16
ATOM     16  C   UNL     1       3.447   2.956  18.284  0.00  0.00    +0.000 C 
ATOM     17  C   UNL     1       3.554   1.457  18.636  0.00  0.00    +0.000 C 
ATOM     18  C   UNL     1       2.169   3.205  17.453  0.00  0.00    +0.000 C 
ENDBRANCH  12  16
ENDBRANCH  11  12
ENDBRANCH   4  11
TORSDOF 5
ENDMDL
MODEL 4
REMARK VINA RESULT:      -6.5      1.235      2.417
REMARK  Name = 
REMARK  10 active torsions:
REMARK  status: ('A' for Active; 'I' for Inactive)
REMARK    1  A    between atoms: C_1  and  N_2
REMARK    2  A    between atoms: C_3  and  C_5
REMARK    3  A    between atoms: C_8  and  C_9
REMARK    4  A    between atoms: C_9  and  N_10
REMARK    5  A    between atoms: N_10  and  C_11
REMARK    6  A    between atoms: N_10  and  C_14
REMARK    7  A    between atoms: C_11  and  C_12
REMARK    8  A    between atoms: C_11  and  C_13
REMARK    9  A    between atoms: C_14  and  C_15
REMARK   10  A    between atoms: C_14  and  C_16
REMARK                            x       y       z     vdW  Elec       q    Type
REMARK                         _______ _______ _______ _____ _____    ______ ____
ROOT
ATOM      1  C   UNL     1       5.606   5.397  15.889  0.00  0.00    +0.000 A 
ATOM      2  C   UNL     1       5.074   6.665  16.034  0.00  0.00    +0.000 A 
ATOM      3  C   UNL     1       4.429   6.667  17.254  0.00  0.00    +0.000 A 
ATOM      4  C   UNL     1       4.604   5.395  17.770  0.00  0.00    +0.000 A 
ATOM      5  O   UNL     1       5.320   4.670  16.939  0.00  0.00    +0.000 OA
ENDROOT
BRANCH   1   8
ATOM      6  C   UNL     1       6.429   3.581  12.641  0.00  0.00    +0.000 C 
ATOM      7  N   UNL     1       5.745   4.075  13.815  0.00  0.00    +0.000 N 
ATOM      8  C   UNL     1       6.355   4.891  14.718  0.00  0.00    +0.000 C 
ATOM      9  O   UNL     1       7.519   5.230  14.559  0.00  0.00    +0.000 OA
ATOM     10  H   UNL     1       4.761   3.799  13.959  0.00  0.00    +0.000 HD
ENDBRANCH   1   8
BRANCH   4  11
ATOM     11  C   UNL     1       4.047   4.859  19.047  0.00  0.00    +0.000 C 
BRANCH  11  12
ATOM     12  N   UNL     1       2.910   3.902  18.869  0.00  0.00    +0.000 NA
BRANCH  12  13
ATOM     13  C   UNL     1       3.225   2.472  19.268  0.00  0.00    +0.000 C 
ATOM     14  C   UNL     1       3.478   1.559  18.044  0.00  0.00    +0.000 C 
ATOM     15  C   UNL     1       4.497   2.313  20.138  0.00  0.00    +0.000 C 
ENDBRANCH  12  13
BRANCH  12  16
ATOM     16  C   UNL     1       1.662   4.428  19.541  0.00  0.00    +0.000 C 
ATOM     17  C   UNL     1       0.820   3.328  20.221  0.00  0.00    +0.000 C 
ATOM     18  C   UNL     1       1.929   5.573  20.543  0.00  0.00    +0.000 C 
ENDBRANCH  12  16
ENDBRANCH  11  12
ENDBRANCH   4  11
TORSDOF 5
ENDMDL
MODEL 5
REMARK VINA RESULT:      -6.5      1.108      1.966
REMARK  Name = 
REMARK  10 active torsions:
REMARK  status: ('A' for Active; 'I' for Inactive)
REMARK    1  A    between atoms: C_1  and  N_2
REMARK    2  A    between atoms: C_3  and  C_5
REMARK    3  A    between atoms: C_8  and  C_9
REMARK    4  A    between atoms: C_9  and  N_10
REMARK    5  A    between atoms: N_10  and  C_11
REMARK    6  A    between atoms: N_10  and  C_14
REMARK    7  A    between atoms: C_11  and  C_12
REMARK    8  A    between atoms: C_11  and  C_13
REMARK    9  A    between atoms: C_14  and  C_15
REMARK   10  A    between atoms: C_14  and  C_16
REMARK                            x       y       z     vdW  Elec       q    Type
REMARK                         _______ _______ _______ _____ _____    ______ ____
ROOT
ATOM      1  C   UNL     1       6.441   4.619  16.781  0.00  0.00    +0.000 A 
ATOM      2  C   UNL     1       7.146   5.289  17.763  0.00  0.00    +0.000 A 
ATOM      3  C   UNL     1       6.458   5.070  18.939  0.00  0.00    +0.000 A 
ATOM      4  C   UNL     1       5.372   4.285  18.594  0.00  0.00    +0.000 A 
ATOM      5  O   UNL     1       5.400   4.024  17.305  0.00  0.00    +0.000 OA
ENDROOT
BRANCH   1   8
ATOM      6  C   UNL     1       6.391   3.671  13.089  0.00  0.00    +0.000 C 
ATOM      7  N   UNL     1       6.130   3.713  14.511  0.00  0.00    +0.000 N 
ATOM      8  C   UNL     1       6.762   4.592  15.337  0.00  0.00    +0.000 C 
ATOM      9  O   UNL     1       7.584   5.380  14.891  0.00  0.00    +0.000 OA
ATOM     10  H   UNL     1       5.436   3.055  14.899  0.00  0.00    +0.000 HD
ENDBRANCH   1   8
BRANCH   4  11
ATOM     11  C   UNL     1       4.279   3.816  19.496  0.00  0.00    +0.000 C 
BRANCH  11  12
ATOM     12  N   UNL     1       2.929   4.372  19.168  0.00  0.00    +0.000 NA
BRANCH  12  13
ATOM     13  C   UNL     1       1.772   3.638  19.822  0.00  0.00    +0.000 C 
ATOM     14  C   UNL     1       1.033   2.701  18.836  0.00  0.00    +0.000 C 
ATOM     15  C   UNL     1       2.178   2.717  21.000  0.00  0.00    +0.000 C 
ENDBRANCH  12  13
BRANCH  12  16
ATOM     16  C   UNL     1       2.889   5.861  19.428  0.00  0.00    +0.000 C 
ATOM     17  C   UNL     1       2.684   6.702  18.150  0.00  0.00    +0.000 C 
ATOM     18  C   UNL     1       1.857   6.280  20.498  0.00  0.00    +0.000 C 
ENDBRANCH  12  16
ENDBRANCH  11  12
ENDBRANCH   4  11
TORSDOF 5
ENDMDL
MODEL 6
REMARK VINA RESULT:      -6.5      1.104      1.129
REMARK  Name = 
REMARK  10 active torsions:
REMARK  status: ('A' for Active; 'I' for Inactive)
REMARK    1  A    between atoms: C_1  and  N_2
REMARK    2  A    between atoms: C_3  and  C_5
REMARK    3  A    between atoms: C_8  and  C_9
REMARK    4  A    between atoms: C_9  and  N_10
REMARK    5  A    between atoms: N_10  and  C_11
REMARK    6  A    between atoms: N_10  and  C_14
REMARK    7  A    between atoms: C_11  and  C_12
REMARK    8  A    between atoms: C_11  and  C_13
REMARK    9  A    between atoms: C_14  and  C_15
REMARK   10  A    between atoms: C_14  and  C_16
REMARK                            x       y       z     vdW  Elec       q    Type
REMARK                         _______ _______ _______ _____ _____    ______ ____
ROOT
ATOM      1  C   UNL     1       5.583   5.229  15.904  0.00  0.00    +0.000 A 
ATOM      2  C   UNL     1       5.793   6.350  16.687  0.00  0.00    +0.000 A 
ATOM      3  C   UNL     1       4.821   6.316  17.666  0.00  0.00    +0.000 A 
ATOM      4  C   UNL     1       4.076   5.178  17.410  0.00  0.00    +0.000 A 
ATOM      5  O   UNL     1       4.564   4.548  16.364  0.00  0.00    +0.000 OA
ENDROOT
BRANCH   1   8
ATOM      6  C   UNL     1       6.494   3.644  12.560  0.00  0.00    +0.000 C 
ATOM      7  N   UNL     1       5.795   4.019  13.769  0.00  0.00    +0.000 N 
ATOM      8  C   UNL     1       6.348   4.849  14.697  0.00  0.00    +0.000 C 
ATOM      9  O   UNL     1       7.470   5.303  14.531  0.00  0.00    +0.000 OA
ATOM     10  H   UNL     1       4.845   3.645  13.919  0.00  0.00    +0.000 HD
ENDBRANCH   1   8
BRANCH   4  11
ATOM     11  C   UNL     1       2.864   4.713  18.148  0.00  0.00    +0.000 C 
BRANCH  11  12
ATOM     12  N   UNL     1       3.159   3.852  19.337  0.00  0.00    +0.000 NA
BRANCH  12  13
ATOM     13  C   UNL     1       2.773   4.468  20.669  0.00  0.00    +0.000 C 
ATOM     14  C   UNL     1       1.711   5.584  20.519  0.00  0.00    +0.000 C 
ATOM     15  C   UNL     1       2.149   3.474  21.681  0.00  0.00    +0.000 C 
ENDBRANCH  12  13
BRANCH  12  16
ATOM     16  C   UNL     1       2.580   2.469  19.149  0.00  0.00    +0.000 C 
ATOM     17  C   UNL     1       1.190   2.471  18.477  0.00  0.00    +0.000 C 
ATOM     18  C   UNL     1       3.518   1.496  18.400  0.00  0.00    +0.000 C 
ENDBRANCH  12  16
ENDBRANCH  11  12
ENDBRANCH   4  11
TORSDOF 5
ENDMDL
MODEL 7
REMARK VINA RESULT:      -6.5      1.065      2.247
REMARK  Name = 
REMARK  10 active torsions:
REMARK  status: ('A' for Active; 'I' for Inactive)
REMARK    1  A    between atoms: C_1  and  N_2
REMARK    2  A    between atoms: C_3  and  C_5
REMARK    3  A    between atoms: C_8  and  C_9
REMARK    4  A    between atoms: C_9  and  N_10
REMARK    5  A    between atoms: N_10  and  C_11
REMARK    6  A    between atoms: N_10  and  C_14
REMARK    7  A    between atoms: C_11  and  C_12
REMARK    8  A    between atoms: C_11  and  C_13
REMARK    9  A    between atoms: C_14  and  C_15
REMARK   10  A    between atoms: C_14  and  C_16
REMARK                            x       y       z     vdW  Elec       q    Type
REMARK                         _______ _______ _______ _____ _____    ______ ____
ROOT
ATOM      1  C   UNL     1       6.560   4.474  15.920  0.00  0.00    +0.000 A 
ATOM      2  C   UNL     1       7.450   4.917  16.881  0.00  0.00    +0.000 A 
ATOM      3  C   UNL     1       6.804   4.771  18.092  0.00  0.00    +0.000 A 
ATOM      4  C   UNL     1       5.557   4.253  17.787  0.00  0.00    +0.000 A 
ATOM      5  O   UNL     1       5.450   4.076  16.489  0.00  0.00    +0.000 OA
ENDROOT
BRANCH   1   8
ATOM      6  C   UNL     1       6.399   3.472  12.247  0.00  0.00    +0.000 C 
ATOM      7  N   UNL     1       6.234   3.495  13.683  0.00  0.00    +0.000 N 
ATOM      8  C   UNL     1       6.780   4.474  14.458  0.00  0.00    +0.000 C 
ATOM      9  O   UNL     1       7.436   5.371  13.950  0.00  0.00    +0.000 OA
ATOM     10  H   UNL     1       5.679   2.745  14.123  0.00  0.00    +0.000 HD
ENDBRANCH   1   8
BRANCH   4  11
ATOM     11  C   UNL     1       4.447   3.965  18.743  0.00  0.00    +0.000 C 
BRANCH  11  12
ATOM     12  N   UNL     1       3.079   4.054  18.142  0.00  0.00    +0.000 NA
BRANCH  12  13
ATOM     13  C   UNL     1       2.387   2.715  17.956  0.00  0.00    +0.000 C 
ATOM     14  C   UNL     1       3.208   1.539  18.537  0.00  0.00    +0.000 C 
ATOM     15  C   UNL     1       1.006   2.602  18.648  0.00  0.00    +0.000 C 
ENDBRANCH  12  13
BRANCH  12  16
ATOM     16  C   UNL     1       2.227   5.044  18.901  0.00  0.00    +0.000 C 
ATOM     17  C   UNL     1       2.500   5.051  20.420  0.00  0.00    +0.000 C 
ATOM     18  C   UNL     1       2.307   6.486  18.352  0.00  0.00    +0.000 C 
ENDBRANCH  12  16
ENDBRANCH  11  12
ENDBRANCH   4  11
TORSDOF 5
ENDMDL
MODEL 8
REMARK VINA RESULT:      -6.5      0.958      1.660
REMARK  Name = 
REMARK  10 active torsions:
REMARK  status: ('A' for Active; 'I' for Inactive)
REMARK    1  A    between atoms: C_1  and  N_2
REMARK    2  A    between atoms: C_3  and  C_5
REMARK    3  A    between atoms: C_8  and  C_9
REMARK    4  A    between atoms: C_9  and  N_10
REMARK    5  A    between atoms: N_10  and  C_11
REMARK    6  A    between atoms: N_10  and  C_14
REMARK    7  A    between atoms: C_11  and  C_12
REMARK    8  A    between atoms: C_11  and  C_13
REMARK    9  A    between atoms: C_14  and  C_15
REMARK   10  A    between atoms: C_14  and  C_16
REMARK                            x       y       z     vdW  Elec       q    Type
REMARK                         _______ _______ _______ _____ _____    ______ ____
ROOT
ATOM      1  C   UNL     1       6.440   4.645  16.283  0.00  0.00    +0.000 A 
ATOM      2  C   UNL     1       7.338   4.613  17.335  0.00  0.00    +0.000 A 
ATOM      3  C   UNL     1       6.586   4.774  18.480  0.00  0.00    +0.000 A 
ATOM      4  C   UNL     1       5.277   4.900  18.050  0.00  0.00    +0.000 A 
ATOM      5  O   UNL     1       5.224   4.806  16.740  0.00  0.00    +0.000 OA
ENDROOT
BRANCH   1   8
ATOM      6  C   UNL     1       6.415   3.545  12.634  0.00  0.00    +0.000 C 
ATOM      7  N   UNL     1       6.142   3.648  14.051  0.00  0.00    +0.000 N 
ATOM      8  C   UNL     1       6.774   4.556  14.845  0.00  0.00    +0.000 C 
ATOM      9  O   UNL     1       7.604   5.319  14.374  0.00  0.00    +0.000 OA
ATOM     10  H   UNL     1       5.440   3.011  14.460  0.00  0.00    +0.000 HD
ENDBRANCH   1   8
BRANCH   4  11
ATOM     11  C   UNL     1       4.073   5.155  18.897  0.00  0.00    +0.000 C 
BRANCH  11  12
ATOM     12  N   UNL     1       3.404   3.915  19.403  0.00  0.00    +0.000 NA
BRANCH  12  13
ATOM     13  C   UNL     1       1.963   3.753  18.953  0.00  0.00    +0.000 C 
ATOM     14  C   UNL     1       0.953   4.006  20.097  0.00  0.00    +0.000 C 
ATOM     15  C   UNL     1       1.527   4.726  17.829  0.00  0.00    +0.000 C 
ENDBRANCH  12  13
BRANCH  12  16
ATOM     16  C   UNL     1       4.245   2.696  19.103  0.00  0.00    +0.000 C 
ATOM     17  C   UNL     1       4.714   1.947  20.369  0.00  0.00    +0.000 C 
ATOM     18  C   UNL     1       3.575   1.701  18.129  0.00  0.00    +0.000 C 
ENDBRANCH  12  16
ENDBRANCH  11  12
ENDBRANCH   4  11
TORSDOF 5
ENDMDL
MODEL 9
REMARK VINA RESULT:      -6.4      1.061      1.220
REMARK  Name = 
REMARK  10 active torsions:
REMARK  status: ('A' for Active; 'I' for Inactive)
REMARK    1  A    between atoms: C_1  and  N_2
REMARK    2  A    between atoms: C_3  and  C_5
REMARK    3  A    between atoms: C_8  and  C_9
REMARK    4  A    between atoms: C_9  and  N_10
REMARK    5  A    between atoms: N_10  and  C_11
REMARK    6  A    between atoms: N_10  and  C_14
REMARK    7  A    between atoms: C_11  and  C_12
REMARK    8  A    between atoms: C_11  and  C_13
REMARK    9  A    between atoms: C_14  and  C_15
REMARK   10  A    between atoms: C_14  and  C_16
REMARK                            x       y       z     vdW  Elec       q    Type
REMARK                         _______ _______ _______ _____ _____    ______ ____
ROOT
ATOM      1  C   UNL     1       6.247   4.530  15.852  0.00  0.00    +0.000 A 
ATOM      2  C   UNL     1       6.970   4.712  17.017  0.00  0.00    +0.000 A 
ATOM      3  C   UNL     1       6.046   4.686  18.043  0.00  0.00    +0.000 A 
ATOM      4  C   UNL     1       4.819   4.497  17.433  0.00  0.00    +0.000 A 
ATOM      5  O   UNL     1       4.976   4.395  16.132  0.00  0.00    +0.000 OA
ENDROOT
BRANCH   1   8
ATOM      6  C   UNL     1       6.790   3.633  12.188  0.00  0.00    +0.000 C 
ATOM      7  N   UNL     1       6.308   3.652  13.551  0.00  0.00    +0.000 N 
ATOM      8  C   UNL     1       6.792   4.526  14.477  0.00  0.00    +0.000 C 
ATOM      9  O   UNL     1       7.664   5.328  14.175  0.00  0.00    +0.000 OA
ATOM     10  H   UNL     1       5.569   2.983  13.817  0.00  0.00    +0.000 HD
ENDBRANCH   1   8
BRANCH   4  11
ATOM     11  C   UNL     1       3.482   4.454  18.097  0.00  0.00    +0.000 C 
BRANCH  11  12
ATOM     12  N   UNL     1       3.527   4.081  19.546  0.00  0.00    +0.000 NA
BRANCH  12  13
ATOM     13  C   UNL     1       2.566   4.860  20.425  0.00  0.00    +0.000 C 
ATOM     14  C   UNL     1       2.291   6.284  19.883  0.00  0.00    +0.000 C 
ATOM     15  C   UNL     1       1.161   4.223  20.565  0.00  0.00    +0.000 C 
ENDBRANCH  12  13
BRANCH  12  16
ATOM     16  C   UNL     1       3.382   2.586  19.715  0.00  0.00    +0.000 C 
ATOM     17  C   UNL     1       3.000   1.854  18.411  0.00  0.00    +0.000 C 
ATOM     18  C   UNL     1       4.617   1.908  20.349  0.00  0.00    +0.000 C 
ENDBRANCH  12  16
ENDBRANCH  11  12
ENDBRANCH   4  11
TORSDOF 5
ENDMDL
