MODEL 1
REMARK VINA RESULT:      -7.4      0.000      0.000
REMARK  Name = 
REMARK  14 active torsions:
REMARK  status: ('A' for Active; 'I' for Inactive)
REMARK    1  A    between atoms: C_1  and  O_2
REMARK    2  A    between atoms: O_2  and  C_3
REMARK    3  A    between atoms: C_6  and  C_7
REMARK    4  A    between atoms: C_12  and  O_13
REMARK    5  A    between atoms: O_13  and  C_14
REMARK    6  A    between atoms: C_14  and  C_15
REMARK    7  A    between atoms: C_15  and  C_16
REMARK    8  A    between atoms: C_16  and  C_17
REMARK    9  A    between atoms: C_16  and  C_18
REMARK   10  A    between atoms: C_25  and  N_26
REMARK   11  A    between atoms: N_26  and  C_27
REMARK   12  A    between atoms: N_26  and  C_30
REMARK   13  A    between atoms: C_27  and  C_28
REMARK   14  A    between atoms: C_30  and  C_31
REMARK                            x       y       z     vdW  Elec       q    Type
REMARK                         _______ _______ _______ _____ _____    ______ ____
ROOT
ATOM      1  C   UNL     1       1.907   7.644  19.718  0.00  0.00    +0.000 A 
ATOM      2  C   UNL     1       2.421   7.973  18.517  0.00  0.00    +0.000 A 
ATOM      3  O   UNL     1       2.878   7.140  17.534  0.00  0.00    +0.000 OA
ATOM      4  C   UNL     1       3.270   5.900  17.935  0.00  0.00    +0.000 A 
ATOM      5  C   UNL     1       4.096   5.220  17.049  0.00  0.00    +0.000 A 
ATOM      6  C   UNL     1       4.719   4.045  17.442  0.00  0.00    +0.000 A 
ATOM      7  C   UNL     1       4.478   3.544  18.723  0.00  0.00    +0.000 A 
ATOM      8  C   UNL     1       3.566   4.197  19.587  0.00  0.00    +0.000 A 
ATOM      9  C   UNL     1       2.952   5.387  19.183  0.00  0.00    +0.000 A 
ATOM     10  C   UNL     1       2.014   6.177  20.039  0.00  0.00    +0.000 A 
ATOM     11  O   UNL     1       1.397   5.638  20.949  0.00  0.00    +0.000 OA
ENDROOT
BRANCH   1  15
ATOM     12  C   UNL     1      -0.106  10.819  21.935  0.00  0.00    +0.000 A 
ATOM     13  C   UNL     1       0.506   9.738  22.619  0.00  0.00    +0.000 A 
ATOM     14  C   UNL     1       1.143   8.677  21.939  0.00  0.00    +0.000 A 
ATOM     15  C   UNL     1       1.266   8.707  20.558  0.00  0.00    +0.000 A 
ATOM     16  C   UNL     1       0.685   9.828  19.924  0.00  0.00    +0.000 A 
ATOM     17  C   UNL     1      -0.050  10.874  20.524  0.00  0.00    +0.000 A 
BRANCH  12  19
ATOM     18  C   UNL     1      -2.078  11.621  23.106  0.00  0.00    +0.000 C 
ATOM     19  O   UNL     1      -0.776  11.828  22.577  0.00  0.00    +0.000 OA
ENDBRANCH  12  19
BRANCH  17  20
ATOM     20  N   UNL     1      -0.691  11.808  19.686  0.00  0.00    +0.000 N 
BRANCH  20  21
ATOM     21  C   UNL     1      -2.045  11.594  19.132  0.00  0.00    +0.000 C 
BRANCH  21  22
ATOM     22  C   UNL     1      -2.074  10.971  17.733  0.00  0.00    +0.000 C 
ATOM     23 CL   UNL     1      -3.260   9.642  17.581  0.00  0.00    +0.000 Cl
ENDBRANCH  21  22
ENDBRANCH  20  21
BRANCH  20  24
ATOM     24  C   UNL     1      -0.201  13.215  19.577  0.00  0.00    +0.000 C 
BRANCH  24  25
ATOM     25  C   UNL     1       1.092  13.357  18.760  0.00  0.00    +0.000 C 
ATOM     26 CL   UNL     1       2.512  13.303  19.843  0.00  0.00    +0.000 Cl
ENDBRANCH  24  25
ENDBRANCH  20  24
ENDBRANCH  17  20
ENDBRANCH   1  15
BRANCH   6  27
ATOM     27  O   UNL     1       5.605   3.575  16.519  0.00  0.00    +0.000 OA
BRANCH  27  28
ATOM     28  C   UNL     1       6.658   4.435  16.106  0.00  0.00    +0.000 C 
BRANCH  28  29
ATOM     29  C   UNL     1       7.613   4.629  17.303  0.00  0.00    +0.000 C 
BRANCH  29  30
ATOM     30  C   UNL     1       7.299   5.838  18.214  0.00  0.00    +0.000 C 
ATOM     31  C   UNL     1       8.049   5.773  19.543  0.00  0.00    +0.000 C 
ATOM     32  C   UNL     1       7.646   7.153  17.506  0.00  0.00    +0.000 C 
ENDBRANCH  29  30
ENDBRANCH  28  29
ENDBRANCH  27  28
ENDBRANCH   6  27
TORSDOF 11
ENDMDL
MODEL 2
REMARK VINA RESULT:      -7.4      3.358      9.645
REMARK  Name = 
REMARK  14 active torsions:
REMARK  status: ('A' for Active; 'I' for Inactive)
REMARK    1  A    between atoms: C_1  and  O_2
REMARK    2  A    between atoms: O_2  and  C_3
REMARK    3  A    between atoms: C_6  and  C_7
REMARK    4  A    between atoms: C_12  and  O_13
REMARK    5  A    between atoms: O_13  and  C_14
REMARK    6  A    between atoms: C_14  and  C_15
REMARK    7  A    between atoms: C_15  and  C_16
REMARK    8  A    between atoms: C_16  and  C_17
REMARK    9  A    between atoms: C_16  and  C_18
REMARK   10  A    between atoms: C_25  and  N_26
REMARK   11  A    between atoms: N_26  and  C_27
REMARK   12  A    between atoms: N_26  and  C_30
REMARK   13  A    between atoms: C_27  and  C_28
REMARK   14  A    between atoms: C_30  and  C_31
REMARK                            x       y       z     vdW  Elec       q    Type
REMARK                         _______ _______ _______ _____ _____    ______ ____
ROOT
ATOM      1  C   UNL     1       2.253   7.645  19.201  0.00  0.00    +0.000 A 
ATOM      2  C   UNL     1       1.814   7.285  20.423  0.00  0.00    +0.000 A 
ATOM      3  O   UNL     1       0.811   7.847  21.163  0.00  0.00    +0.000 OA
ATOM      4  C   UNL     1       0.507   9.141  20.872  0.00  0.00    +0.000 A 
ATOM      5  C   UNL     1      -0.190   9.826  21.860  0.00  0.00    +0.000 A 
ATOM      6  C   UNL     1      -0.371  11.197  21.759  0.00  0.00    +0.000 A 
ATOM      7  C   UNL     1       0.130  11.868  20.641  0.00  0.00    +0.000 A 
ATOM      8  C   UNL     1       0.761  11.148  19.597  0.00  0.00    +0.000 A 
ATOM      9  C   UNL     1       0.946   9.767  19.716  0.00  0.00    +0.000 A 
ATOM     10  C   UNL     1       1.644   8.926  18.695  0.00  0.00    +0.000 A 
ATOM     11  O   UNL     1       1.713   9.291  17.528  0.00  0.00    +0.000 OA
ENDROOT
BRANCH   1  15
ATOM     12  C   UNL     1       4.936   4.839  17.208  0.00  0.00    +0.000 A 
ATOM     13  C   UNL     1       4.795   6.166  16.729  0.00  0.00    +0.000 A 
ATOM     14  C   UNL     1       3.917   7.096  17.328  0.00  0.00    +0.000 A 
ATOM     15  C   UNL     1       3.219   6.758  18.477  0.00  0.00    +0.000 A 
ATOM     16  C   UNL     1       3.429   5.442  18.946  0.00  0.00    +0.000 A 
ATOM     17  C   UNL     1       4.211   4.428  18.350  0.00  0.00    +0.000 A 
BRANCH  12  19
ATOM     18  C   UNL     1       5.991   3.948  15.209  0.00  0.00    +0.000 C 
ATOM     19  O   UNL     1       5.742   3.906  16.607  0.00  0.00    +0.000 OA
ENDBRANCH  12  19
BRANCH  17  20
ATOM     20  N   UNL     1       4.149   3.129  18.892  0.00  0.00    +0.000 N 
BRANCH  20  21
ATOM     21  C   UNL     1       4.404   2.842  20.320  0.00  0.00    +0.000 C 
BRANCH  21  22
ATOM     22  C   UNL     1       3.184   2.344  21.102  0.00  0.00    +0.000 C 
ATOM     23 CL   UNL     1       2.171   3.672  21.740  0.00  0.00    +0.000 Cl
ENDBRANCH  21  22
ENDBRANCH  20  21
BRANCH  20  24
ATOM     24  C   UNL     1       3.492   2.011  18.152  0.00  0.00    +0.000 C 
BRANCH  24  25
ATOM     25  C   UNL     1       2.201   2.423  17.429  0.00  0.00    +0.000 C 
ATOM     26 CL   UNL     1       0.874   2.619  18.609  0.00  0.00    +0.000 Cl
ENDBRANCH  24  25
ENDBRANCH  20  24
ENDBRANCH  17  20
ENDBRANCH   1  15
BRANCH   6  27
ATOM     27  O   UNL     1      -0.945  11.744  22.867  0.00  0.00    +0.000 OA
BRANCH  27  28
ATOM     28  C   UNL     1      -1.110  13.155  22.905  0.00  0.00    +0.000 C 
BRANCH  28  29
ATOM     29  C   UNL     1      -2.518  13.486  22.365  0.00  0.00    +0.000 C 
BRANCH  29  30
ATOM     30  C   UNL     1      -3.655  12.569  22.871  0.00  0.00    +0.000 C 
ATOM     31  C   UNL     1      -3.939  12.765  24.359  0.00  0.00    +0.000 C 
ATOM     32  C   UNL     1      -4.944  12.819  22.078  0.00  0.00    +0.000 C 
ENDBRANCH  29  30
ENDBRANCH  28  29
ENDBRANCH  27  28
ENDBRANCH   6  27
TORSDOF 11
ENDMDL
MODEL 3
REMARK VINA RESULT:      -7.4      3.503      9.223
REMARK  Name = 
REMARK  14 active torsions:
REMARK  status: ('A' for Active; 'I' for Inactive)
REMARK    1  A    between atoms: C_1  and  O_2
REMARK    2  A    between atoms: O_2  and  C_3
REMARK    3  A    between atoms: C_6  and  C_7
REMARK    4  A    between atoms: C_12  and  O_13
REMARK    5  A    between atoms: O_13  and  C_14
REMARK    6  A    between atoms: C_14  and  C_15
REMARK    7  A    between atoms: C_15  and  C_16
REMARK    8  A    between atoms: C_16  and  C_17
REMARK    9  A    between atoms: C_16  and  C_18
REMARK   10  A    between atoms: C_25  and  N_26
REMARK   11  A    between atoms: N_26  and  C_27
REMARK   12  A    between atoms: N_26  and  C_30
REMARK   13  A    between atoms: C_27  and  C_28
REMARK   14  A    between atoms: C_30  and  C_31
REMARK                            x       y       z     vdW  Elec       q    Type
REMARK                         _______ _______ _______ _____ _____    ______ ____
ROOT
ATOM      1  C   UNL     1       2.041   7.893  18.620  0.00  0.00    +0.000 A 
ATOM      2  C   UNL     1       2.189   8.868  17.701  0.00  0.00    +0.000 A 
ATOM      3  O   UNL     1       2.025  10.215  17.862  0.00  0.00    +0.000 OA
ATOM      4  C   UNL     1       1.223  10.601  18.892  0.00  0.00    +0.000 A 
ATOM      5  C   UNL     1       0.730  11.897  18.810  0.00  0.00    +0.000 A 
ATOM      6  C   UNL     1      -0.254  12.323  19.690  0.00  0.00    +0.000 A 
ATOM      7  C   UNL     1      -0.714  11.442  20.672  0.00  0.00    +0.000 A 
ATOM      8  C   UNL     1      -0.142  10.154  20.804  0.00  0.00    +0.000 A 
ATOM      9  C   UNL     1       0.842   9.733  19.904  0.00  0.00    +0.000 A 
ATOM     10  C   UNL     1       1.471   8.376  19.926  0.00  0.00    +0.000 A 
ATOM     11  O   UNL     1       1.491   7.716  20.957  0.00  0.00    +0.000 OA
ENDROOT
BRANCH   1  15
ATOM     12  C   UNL     1       3.574   3.895  17.773  0.00  0.00    +0.000 A 
ATOM     13  C   UNL     1       2.178   4.146  17.781  0.00  0.00    +0.000 A 
ATOM     14  C   UNL     1       1.641   5.417  18.078  0.00  0.00    +0.000 A 
ATOM     15  C   UNL     1       2.482   6.500  18.288  0.00  0.00    +0.000 A 
ATOM     16  C   UNL     1       3.863   6.212  18.220  0.00  0.00    +0.000 A 
ATOM     17  C   UNL     1       4.475   4.953  18.027  0.00  0.00    +0.000 A 
BRANCH  12  19
ATOM     18  C   UNL     1       3.634   1.510  18.234  0.00  0.00    +0.000 C 
ATOM     19  O   UNL     1       4.111   2.655  17.541  0.00  0.00    +0.000 OA
ENDBRANCH  12  19
BRANCH  17  20
ATOM     20  N   UNL     1       5.873   4.861  18.163  0.00  0.00    +0.000 N 
BRANCH  20  21
ATOM     21  C   UNL     1       6.769   4.504  17.042  0.00  0.00    +0.000 C 
BRANCH  21  22
ATOM     22  C   UNL     1       6.481   5.244  15.731  0.00  0.00    +0.000 C 
ATOM     23 CL   UNL     1       5.482   4.293  14.594  0.00  0.00    +0.000 Cl
ENDBRANCH  21  22
ENDBRANCH  20  21
BRANCH  20  24
ATOM     24  C   UNL     1       6.577   5.445  19.344  0.00  0.00    +0.000 C 
BRANCH  24  25
ATOM     25  C   UNL     1       8.030   5.854  19.058  0.00  0.00    +0.000 C 
ATOM     26 CL   UNL     1       8.080   7.503  18.373  0.00  0.00    +0.000 Cl
ENDBRANCH  24  25
ENDBRANCH  20  24
ENDBRANCH  17  20
ENDBRANCH   1  15
BRANCH   6  27
ATOM     27  O   UNL     1      -0.735  13.563  19.395  0.00  0.00    +0.000 OA
BRANCH  27  28
ATOM     28  C   UNL     1       0.163  14.511  18.832  0.00  0.00    +0.000 C 
BRANCH  28  29
ATOM     29  C   UNL     1       0.310  15.681  19.828  0.00  0.00    +0.000 C 
BRANCH  29  30
ATOM     30  C   UNL     1      -0.468  16.966  19.461  0.00  0.00    +0.000 C 
ATOM     31  C   UNL     1      -0.543  17.187  17.952  0.00  0.00    +0.000 C 
ATOM     32  C   UNL     1      -1.890  16.917  20.032  0.00  0.00    +0.000 C 
ENDBRANCH  29  30
ENDBRANCH  28  29
ENDBRANCH  27  28
ENDBRANCH   6  27
TORSDOF 11
ENDMDL
MODEL 4
REMARK VINA RESULT:      -7.3      1.108      1.938
REMARK  Name = 
REMARK  14 active torsions:
REMARK  status: ('A' for Active; 'I' for Inactive)
REMARK    1  A    between atoms: C_1  and  O_2
REMARK    2  A    between atoms: O_2  and  C_3
REMARK    3  A    between atoms: C_6  and  C_7
REMARK    4  A    between atoms: C_12  and  O_13
REMARK    5  A    between atoms: O_13  and  C_14
REMARK    6  A    between atoms: C_14  and  C_15
REMARK    7  A    between atoms: C_15  and  C_16
REMARK    8  A    between atoms: C_16  and  C_17
REMARK    9  A    between atoms: C_16  and  C_18
REMARK   10  A    between atoms: C_25  and  N_26
REMARK   11  A    between atoms: N_26  and  C_27
REMARK   12  A    between atoms: N_26  and  C_30
REMARK   13  A    between atoms: C_27  and  C_28
REMARK   14  A    between atoms: C_30  and  C_31
REMARK                            x       y       z     vdW  Elec       q    Type
REMARK                         _______ _______ _______ _____ _____    ______ ____
ROOT
ATOM      1  C   UNL     1       1.903   7.577  19.815  0.00  0.00    +0.000 A 
ATOM      2  C   UNL     1       2.409   7.962  18.628  0.00  0.00    +0.000 A 
ATOM      3  O   UNL     1       2.857   7.175  17.603  0.00  0.00    +0.000 OA
ATOM      4  C   UNL     1       3.249   5.917  17.942  0.00  0.00    +0.000 A 
ATOM      5  C   UNL     1       4.068   5.279  17.019  0.00  0.00    +0.000 A 
ATOM      6  C   UNL     1       4.690   4.085  17.351  0.00  0.00    +0.000 A 
ATOM      7  C   UNL     1       4.457   3.524  18.609  0.00  0.00    +0.000 A 
ATOM      8  C   UNL     1       3.552   4.137  19.509  0.00  0.00    +0.000 A 
ATOM      9  C   UNL     1       2.939   5.346  19.166  0.00  0.00    +0.000 A 
ATOM     10  C   UNL     1       2.008   6.096  20.065  0.00  0.00    +0.000 A 
ATOM     11  O   UNL     1       1.396   5.516  20.953  0.00  0.00    +0.000 OA
ENDROOT
BRANCH   1  15
ATOM     12  C   UNL     1      -0.019  10.698  22.186  0.00  0.00    +0.000 A 
ATOM     13  C   UNL     1       0.247   9.424  22.750  0.00  0.00    +0.000 A 
ATOM     14  C   UNL     1       0.841   8.379  22.009  0.00  0.00    +0.000 A 
ATOM     15  C   UNL     1       1.269   8.600  20.709  0.00  0.00    +0.000 A 
ATOM     16  C   UNL     1       1.029   9.898  20.207  0.00  0.00    +0.000 A 
ATOM     17  C   UNL     1       0.356  10.962  20.849  0.00  0.00    +0.000 A 
BRANCH  12  19
ATOM     18  C   UNL     1      -2.001  11.584  23.276  0.00  0.00    +0.000 C 
ATOM     19  O   UNL     1      -0.644  11.706  22.873  0.00  0.00    +0.000 OA
ENDBRANCH  12  19
BRANCH  17  20
ATOM     20  N   UNL     1       0.074  12.122  20.103  0.00  0.00    +0.000 N 
BRANCH  20  21
ATOM     21  C   UNL     1       0.980  13.290  20.060  0.00  0.00    +0.000 C 
BRANCH  21  22
ATOM     22  C   UNL     1       1.516  13.635  18.666  0.00  0.00    +0.000 C 
ATOM     23 CL   UNL     1       2.550  12.351  17.975  0.00  0.00    +0.000 Cl
ENDBRANCH  21  22
ENDBRANCH  20  21
BRANCH  20  24
ATOM     24  C   UNL     1      -0.977  12.125  19.041  0.00  0.00    +0.000 C 
BRANCH  24  25
ATOM     25  C   UNL     1      -2.408  12.233  19.589  0.00  0.00    +0.000 C 
ATOM     26 CL   UNL     1      -2.601  13.757  20.502  0.00  0.00    +0.000 Cl
ENDBRANCH  24  25
ENDBRANCH  20  24
ENDBRANCH  17  20
ENDBRANCH   1  15
BRANCH   6  27
ATOM     27  O   UNL     1       5.569   3.657  16.401  0.00  0.00    +0.000 OA
BRANCH  27  28
ATOM     28  C   UNL     1       6.649   4.514  16.057  0.00  0.00    +0.000 C 
BRANCH  28  29
ATOM     29  C   UNL     1       7.571   4.638  17.289  0.00  0.00    +0.000 C 
BRANCH  29  30
ATOM     30  C   UNL     1       7.281   5.842  18.217  0.00  0.00    +0.000 C 
ATOM     31  C   UNL     1       8.012   5.732  19.553  0.00  0.00    +0.000 C 
ATOM     32  C   UNL     1       7.678   7.157  17.534  0.00  0.00    +0.000 C 
ENDBRANCH  29  30
ENDBRANCH  28  29
ENDBRANCH  27  28
ENDBRANCH   6  27
TORSDOF 11
ENDMDL
MODEL 5
REMARK VINA RESULT:      -7.3      1.802      3.425
REMARK  Name = 
REMARK  14 active torsions:
REMARK  status: ('A' for Active; 'I' for Inactive)
REMARK    1  A    between atoms: C_1  and  O_2
REMARK    2  A    between atoms: O_2  and  C_3
REMARK    3  A    between atoms: C_6  and  C_7
REMARK    4  A    between atoms: C_12  and  O_13
REMARK    5  A    between atoms: O_13  and  C_14
REMARK    6  A    between atoms: C_14  and  C_15
REMARK    7  A    between atoms: C_15  and  C_16
REMARK    8  A    between atoms: C_16  and  C_17
REMARK    9  A    between atoms: C_16  and  C_18
REMARK   10  A    between atoms: C_25  and  N_26
REMARK   11  A    between atoms: N_26  and  C_27
REMARK   12  A    between atoms: N_26  and  C_30
REMARK   13  A    between atoms: C_27  and  C_28
REMARK   14  A    between atoms: C_30  and  C_31
REMARK                            x       y       z     vdW  Elec       q    Type
REMARK                         _______ _______ _______ _____ _____    ______ ____
ROOT
ATOM      1  C   UNL     1       2.364   7.860  18.857  0.00  0.00    +0.000 A 
ATOM      2  C   UNL     1       2.953   8.390  17.766  0.00  0.00    +0.000 A 
ATOM      3  O   UNL     1       3.649   7.746  16.782  0.00  0.00    +0.000 OA
ATOM      4  C   UNL     1       4.190   6.544  17.120  0.00  0.00    +0.000 A 
ATOM      5  C   UNL     1       5.212   6.095  16.293  0.00  0.00    +0.000 A 
ATOM      6  C   UNL     1       5.968   4.992  16.659  0.00  0.00    +0.000 A 
ATOM      7  C   UNL     1       5.666   4.326  17.849  0.00  0.00    +0.000 A 
ATOM      8  C   UNL     1       4.566   4.736  18.640  0.00  0.00    +0.000 A 
ATOM      9  C   UNL     1       3.818   5.856  18.266  0.00  0.00    +0.000 A 
ATOM     10  C   UNL     1       2.671   6.400  19.058  0.00  0.00    +0.000 A 
ATOM     11  O   UNL     1       2.049   5.679  19.828  0.00  0.00    +0.000 OA
ENDROOT
BRANCH   1  15
ATOM     12  C   UNL     1      -0.392  10.425  21.064  0.00  0.00    +0.000 A 
ATOM     13  C   UNL     1       0.361   9.428  21.736  0.00  0.00    +0.000 A 
ATOM     14  C   UNL     1       1.242   8.560  21.055  0.00  0.00    +0.000 A 
ATOM     15  C   UNL     1       1.466   8.717  19.695  0.00  0.00    +0.000 A 
ATOM     16  C   UNL     1       0.732   9.755  19.079  0.00  0.00    +0.000 A 
ATOM     17  C   UNL     1      -0.236  10.597  19.670  0.00  0.00    +0.000 A 
BRANCH  12  19
ATOM     18  C   UNL     1      -1.418  11.226  23.115  0.00  0.00    +0.000 C 
ATOM     19  O   UNL     1      -1.292  11.239  21.700  0.00  0.00    +0.000 OA
ENDBRANCH  12  19
BRANCH  17  20
ATOM     20  N   UNL     1      -0.976  11.455  18.834  0.00  0.00    +0.000 N 
BRANCH  20  21
ATOM     21  C   UNL     1      -0.511  12.808  18.459  0.00  0.00    +0.000 C 
BRANCH  21  22
ATOM     22  C   UNL     1       0.631  13.357  19.322  0.00  0.00    +0.000 C 
ATOM     23 CL   UNL     1       2.017  13.944  18.360  0.00  0.00    +0.000 Cl
ENDBRANCH  21  22
ENDBRANCH  20  21
BRANCH  20  24
ATOM     24  C   UNL     1      -2.101  10.942  17.997  0.00  0.00    +0.000 C 
BRANCH  24  25
ATOM     25  C   UNL     1      -3.437  11.656  18.254  0.00  0.00    +0.000 C 
ATOM     26 CL   UNL     1      -4.545  11.397  16.877  0.00  0.00    +0.000 Cl
ENDBRANCH  24  25
ENDBRANCH  20  24
ENDBRANCH  17  20
ENDBRANCH   1  15
BRANCH   6  27
ATOM     27  O   UNL     1       7.019   4.763  15.822  0.00  0.00    +0.000 OA
BRANCH  27  28
ATOM     28  C   UNL     1       6.800   4.897  14.424  0.00  0.00    +0.000 C 
BRANCH  28  29
ATOM     29  C   UNL     1       5.884   3.740  13.971  0.00  0.00    +0.000 C 
BRANCH  29  30
ATOM     30  C   UNL     1       6.081   3.271  12.511  0.00  0.00    +0.000 C 
ATOM     31  C   UNL     1       4.780   3.305  11.710  0.00  0.00    +0.000 C 
ATOM     32  C   UNL     1       7.129   4.138  11.801  0.00  0.00    +0.000 C 
ENDBRANCH  29  30
ENDBRANCH  28  29
ENDBRANCH  27  28
ENDBRANCH   6  27
TORSDOF 11
ENDMDL
MODEL 6
REMARK VINA RESULT:      -7.2      3.565      9.212
REMARK  Name = 
REMARK  14 active torsions:
REMARK  status: ('A' for Active; 'I' for Inactive)
REMARK    1  A    between atoms: C_1  and  O_2
REMARK    2  A    between atoms: O_2  and  C_3
REMARK    3  A    between atoms: C_6  and  C_7
REMARK    4  A    between atoms: C_12  and  O_13
REMARK    5  A    between atoms: O_13  and  C_14
REMARK    6  A    between atoms: C_14  and  C_15
REMARK    7  A    between atoms: C_15  and  C_16
REMARK    8  A    between atoms: C_16  and  C_17
REMARK    9  A    between atoms: C_16  and  C_18
REMARK   10  A    between atoms: C_25  and  N_26
REMARK   11  A    between atoms: N_26  and  C_27
REMARK   12  A    between atoms: N_26  and  C_30
REMARK   13  A    between atoms: C_27  and  C_28
REMARK   14  A    between atoms: C_30  and  C_31
REMARK                            x       y       z     vdW  Elec       q    Type
REMARK                         _______ _______ _______ _____ _____    ______ ____
ROOT
ATOM      1  C   UNL     1       1.981   8.222  18.725  0.00  0.00    +0.000 A 
ATOM      2  C   UNL     1       2.137   9.230  17.845  0.00  0.00    +0.000 A 
ATOM      3  O   UNL     1       1.994  10.573  18.061  0.00  0.00    +0.000 OA
ATOM      4  C   UNL     1       1.205  10.928  19.111  0.00  0.00    +0.000 A 
ATOM      5  C   UNL     1       0.730  12.234  19.085  0.00  0.00    +0.000 A 
ATOM      6  C   UNL     1      -0.241  12.638  19.989  0.00  0.00    +0.000 A 
ATOM      7  C   UNL     1      -0.708  11.726  20.938  0.00  0.00    +0.000 A 
ATOM      8  C   UNL     1      -0.154  10.425  21.014  0.00  0.00    +0.000 A 
ATOM      9  C   UNL     1       0.818  10.026  20.090  0.00  0.00    +0.000 A 
ATOM     10  C   UNL     1       1.427   8.661  20.054  0.00  0.00    +0.000 A 
ATOM     11  O   UNL     1       1.444   7.959  21.057  0.00  0.00    +0.000 OA
ENDROOT
BRANCH   1  15
ATOM     12  C   UNL     1       3.467   4.273  17.608  0.00  0.00    +0.000 A 
ATOM     13  C   UNL     1       2.145   4.435  18.095  0.00  0.00    +0.000 A 
ATOM     14  C   UNL     1       1.636   5.690  18.493  0.00  0.00    +0.000 A 
ATOM     15  C   UNL     1       2.399   6.837  18.335  0.00  0.00    +0.000 A 
ATOM     16  C   UNL     1       3.691   6.632  17.800  0.00  0.00    +0.000 A 
ATOM     17  C   UNL     1       4.304   5.403  17.471  0.00  0.00    +0.000 A 
BRANCH  12  19
ATOM     18  C   UNL     1       3.535   1.860  17.884  0.00  0.00    +0.000 C 
ATOM     19  O   UNL     1       3.996   3.054  17.269  0.00  0.00    +0.000 OA
ENDBRANCH  12  19
BRANCH  17  20
ATOM     20  N   UNL     1       5.666   5.410  17.110  0.00  0.00    +0.000 N 
BRANCH  20  21
ATOM     21  C   UNL     1       6.722   4.800  17.946  0.00  0.00    +0.000 C 
BRANCH  21  22
ATOM     22  C   UNL     1       7.282   5.714  19.041  0.00  0.00    +0.000 C 
ATOM     23 CL   UNL     1       8.053   7.191  18.395  0.00  0.00    +0.000 Cl
ENDBRANCH  21  22
ENDBRANCH  20  21
BRANCH  20  24
ATOM     24  C   UNL     1       6.096   5.723  15.714  0.00  0.00    +0.000 C 
BRANCH  24  25
ATOM     25  C   UNL     1       7.024   4.664  15.102  0.00  0.00    +0.000 C 
ATOM     26 CL   UNL     1       6.157   3.744  13.839  0.00  0.00    +0.000 Cl
ENDBRANCH  24  25
ENDBRANCH  20  24
ENDBRANCH  17  20
ENDBRANCH   1  15
BRANCH   6  27
ATOM     27  O   UNL     1      -0.706  13.896  19.747  0.00  0.00    +0.000 OA
BRANCH  27  28
ATOM     28  C   UNL     1      -0.275  14.550  18.560  0.00  0.00    +0.000 C 
BRANCH  28  29
ATOM     29  C   UNL     1      -0.197  16.064  18.850  0.00  0.00    +0.000 C 
BRANCH  29  30
ATOM     30  C   UNL     1       1.213  16.688  18.742  0.00  0.00    +0.000 C 
ATOM     31  C   UNL     1       2.295  15.638  18.497  0.00  0.00    +0.000 C 
ATOM     32  C   UNL     1       1.259  17.727  17.614  0.00  0.00    +0.000 C 
ENDBRANCH  29  30
ENDBRANCH  28  29
ENDBRANCH  27  28
ENDBRANCH   6  27
TORSDOF 11
ENDMDL
MODEL 7
REMARK VINA RESULT:      -7.2      3.663      9.301
REMARK  Name = 
REMARK  14 active torsions:
REMARK  status: ('A' for Active; 'I' for Inactive)
REMARK    1  A    between atoms: C_1  and  O_2
REMARK    2  A    between atoms: O_2  and  C_3
REMARK    3  A    between atoms: C_6  and  C_7
REMARK    4  A    between atoms: C_12  and  O_13
REMARK    5  A    between atoms: O_13  and  C_14
REMARK    6  A    between atoms: C_14  and  C_15
REMARK    7  A    between atoms: C_15  and  C_16
REMARK    8  A    between atoms: C_16  and  C_17
REMARK    9  A    between atoms: C_16  and  C_18
REMARK   10  A    between atoms: C_25  and  N_26
REMARK   11  A    between atoms: N_26  and  C_27
REMARK   12  A    between atoms: N_26  and  C_30
REMARK   13  A    between atoms: C_27  and  C_28
REMARK   14  A    between atoms: C_30  and  C_31
REMARK                            x       y       z     vdW  Elec       q    Type
REMARK                         _______ _______ _______ _____ _____    ______ ____
ROOT
ATOM      1  C   UNL     1       1.996   7.983  19.349  0.00  0.00    +0.000 A 
ATOM      2  C   UNL     1       2.203   8.772  18.276  0.00  0.00    +0.000 A 
ATOM      3  O   UNL     1       2.032  10.124  18.172  0.00  0.00    +0.000 OA
ATOM      4  C   UNL     1       1.167  10.687  19.060  0.00  0.00    +0.000 A 
ATOM      5  C   UNL     1       0.683  11.940  18.707  0.00  0.00    +0.000 A 
ATOM      6  C   UNL     1      -0.354  12.512  19.429  0.00  0.00    +0.000 A 
ATOM      7  C   UNL     1      -0.877  11.826  20.527  0.00  0.00    +0.000 A 
ATOM      8  C   UNL     1      -0.317  10.590  20.932  0.00  0.00    +0.000 A 
ATOM      9  C   UNL     1       0.721  10.018  20.190  0.00  0.00    +0.000 A 
ATOM     10  C   UNL     1       1.345   8.696  20.504  0.00  0.00    +0.000 A 
ATOM     11  O   UNL     1       1.298   8.239  21.639  0.00  0.00    +0.000 OA
ENDROOT
BRANCH   1  15
ATOM     12  C   UNL     1       3.571   3.919  19.122  0.00  0.00    +0.000 A 
ATOM     13  C   UNL     1       2.507   4.232  20.006  0.00  0.00    +0.000 A 
ATOM     14  C   UNL     1       1.988   5.540  20.130  0.00  0.00    +0.000 A 
ATOM     15  C   UNL     1       2.454   6.557  19.311  0.00  0.00    +0.000 A 
ATOM     16  C   UNL     1       3.479   6.187  18.412  0.00  0.00    +0.000 A 
ATOM     17  C   UNL     1       4.115   4.930  18.298  0.00  0.00    +0.000 A 
BRANCH  12  19
ATOM     18  C   UNL     1       3.466   1.629  18.318  0.00  0.00    +0.000 C 
ATOM     19  O   UNL     1       4.124   2.668  19.029  0.00  0.00    +0.000 OA
ENDBRANCH  12  19
BRANCH  17  20
ATOM     20  N   UNL     1       5.234   4.822  17.450  0.00  0.00    +0.000 N 
BRANCH  20  21
ATOM     21  C   UNL     1       6.610   4.633  17.956  0.00  0.00    +0.000 C 
BRANCH  21  22
ATOM     22  C   UNL     1       7.235   5.879  18.593  0.00  0.00    +0.000 C 
ATOM     23 CL   UNL     1       7.426   7.235  17.443  0.00  0.00    +0.000 Cl
ENDBRANCH  21  22
ENDBRANCH  20  21
BRANCH  20  24
ATOM     24  C   UNL     1       5.076   4.545  15.990  0.00  0.00    +0.000 C 
BRANCH  24  25
ATOM     25  C   UNL     1       6.253   3.771  15.378  0.00  0.00    +0.000 C 
ATOM     26 CL   UNL     1       6.292   4.013  13.608  0.00  0.00    +0.000 Cl
ENDBRANCH  24  25
ENDBRANCH  20  24
ENDBRANCH  17  20
ENDBRANCH   1  15
BRANCH   6  27
ATOM     27  O   UNL     1      -0.813  13.671  18.878  0.00  0.00    +0.000 OA
BRANCH  27  28
ATOM     28  C   UNL     1       0.094  14.760  18.764  0.00  0.00    +0.000 C 
BRANCH  28  29
ATOM     29  C   UNL     1      -0.683  16.062  19.056  0.00  0.00    +0.000 C 
BRANCH  29  30
ATOM     30  C   UNL     1       0.044  17.370  18.669  0.00  0.00    +0.000 C 
ATOM     31  C   UNL     1       1.557  17.184  18.568  0.00  0.00    +0.000 C 
ATOM     32  C   UNL     1      -0.484  17.906  17.333  0.00  0.00    +0.000 C 
ENDBRANCH  29  30
ENDBRANCH  28  29
ENDBRANCH  27  28
ENDBRANCH   6  27
TORSDOF 11
ENDMDL
MODEL 8
REMARK VINA RESULT:      -7.2      1.561      2.430
REMARK  Name = 
REMARK  14 active torsions:
REMARK  status: ('A' for Active; 'I' for Inactive)
REMARK    1  A    between atoms: C_1  and  O_2
REMARK    2  A    between atoms: O_2  and  C_3
REMARK    3  A    between atoms: C_6  and  C_7
REMARK    4  A    between atoms: C_12  and  O_13
REMARK    5  A    between atoms: O_13  and  C_14
REMARK    6  A    between atoms: C_14  and  C_15
REMARK    7  A    between atoms: C_15  and  C_16
REMARK    8  A    between atoms: C_16  and  C_17
REMARK    9  A    between atoms: C_16  and  C_18
REMARK   10  A    between atoms: C_25  and  N_26
REMARK   11  A    between atoms: N_26  and  C_27
REMARK   12  A    between atoms: N_26  and  C_30
REMARK   13  A    between atoms: C_27  and  C_28
REMARK   14  A    between atoms: C_30  and  C_31
REMARK                            x       y       z     vdW  Elec       q    Type
REMARK                         _______ _______ _______ _____ _____    ______ ____
ROOT
ATOM      1  C   UNL     1       2.096   7.830  19.325  0.00  0.00    +0.000 A 
ATOM      2  C   UNL     1       2.583   8.260  18.144  0.00  0.00    +0.000 A 
ATOM      3  O   UNL     1       3.231   7.538  17.181  0.00  0.00    +0.000 OA
ATOM      4  C   UNL     1       3.841   6.396  17.599  0.00  0.00    +0.000 A 
ATOM      5  C   UNL     1       4.818   5.896  16.748  0.00  0.00    +0.000 A 
ATOM      6  C   UNL     1       5.641   4.862  17.166  0.00  0.00    +0.000 A 
ATOM      7  C   UNL     1       5.453   4.315  18.438  0.00  0.00    +0.000 A 
ATOM      8  C   UNL     1       4.398   4.772  19.264  0.00  0.00    +0.000 A 
ATOM      9  C   UNL     1       3.581   5.823  18.835  0.00  0.00    +0.000 A 
ATOM     10  C   UNL     1       2.474   6.410  19.652  0.00  0.00    +0.000 A 
ATOM     11  O   UNL     1       1.938   5.756  20.537  0.00  0.00    +0.000 OA
ENDROOT
BRANCH   1  15
ATOM     12  C   UNL     1      -0.539  10.587  21.448  0.00  0.00    +0.000 A 
ATOM     13  C   UNL     1       0.015   9.462  22.112  0.00  0.00    +0.000 A 
ATOM     14  C   UNL     1       0.849   8.532  21.454  0.00  0.00    +0.000 A 
ATOM     15  C   UNL     1       1.228   8.742  20.137  0.00  0.00    +0.000 A 
ATOM     16  C   UNL     1       0.692   9.901  19.532  0.00  0.00    +0.000 A 
ATOM     17  C   UNL     1      -0.222  10.823  20.091  0.00  0.00    +0.000 A 
BRANCH  12  19
ATOM     18  C   UNL     1      -0.898  12.556  22.824  0.00  0.00    +0.000 C 
ATOM     19  O   UNL     1      -1.394  11.470  22.055  0.00  0.00    +0.000 OA
ENDBRANCH  12  19
BRANCH  17  20
ATOM     20  N   UNL     1      -0.762  11.819  19.255  0.00  0.00    +0.000 N 
BRANCH  20  21
ATOM     21  C   UNL     1      -2.063  11.672  18.567  0.00  0.00    +0.000 C 
BRANCH  21  22
ATOM     22  C   UNL     1      -2.027  10.799  17.308  0.00  0.00    +0.000 C 
ATOM     23 CL   UNL     1      -3.369   9.622  17.231  0.00  0.00    +0.000 Cl
ENDBRANCH  21  22
ENDBRANCH  20  21
BRANCH  20  24
ATOM     24  C   UNL     1      -0.237  13.217  19.276  0.00  0.00    +0.000 C 
BRANCH  24  25
ATOM     25  C   UNL     1       1.077  13.394  18.501  0.00  0.00    +0.000 C 
ATOM     26 CL   UNL     1       2.469  13.240  19.610  0.00  0.00    +0.000 Cl
ENDBRANCH  24  25
ENDBRANCH  20  24
ENDBRANCH  17  20
ENDBRANCH   1  15
BRANCH   6  27
ATOM     27  O   UNL     1       6.637   4.579  16.280  0.00  0.00    +0.000 OA
BRANCH  27  28
ATOM     28  C   UNL     1       6.457   4.972  14.926  0.00  0.00    +0.000 C 
BRANCH  28  29
ATOM     29  C   UNL     1       6.037   3.725  14.119  0.00  0.00    +0.000 C 
BRANCH  29  30
ATOM     30  C   UNL     1       5.930   3.930  12.590  0.00  0.00    +0.000 C 
ATOM     31  C   UNL     1       7.128   3.349  11.841  0.00  0.00    +0.000 C 
ATOM     32  C   UNL     1       4.644   3.292  12.049  0.00  0.00    +0.000 C 
ENDBRANCH  29  30
ENDBRANCH  28  29
ENDBRANCH  27  28
ENDBRANCH   6  27
TORSDOF 11
ENDMDL
MODEL 9
REMARK VINA RESULT:      -7.2      1.643      3.270
REMARK  Name = 
REMARK  14 active torsions:
REMARK  status: ('A' for Active; 'I' for Inactive)
REMARK    1  A    between atoms: C_1  and  O_2
REMARK    2  A    between atoms: O_2  and  C_3
REMARK    3  A    between atoms: C_6  and  C_7
REMARK    4  A    between atoms: C_12  and  O_13
REMARK    5  A    between atoms: O_13  and  C_14
REMARK    6  A    between atoms: C_14  and  C_15
REMARK    7  A    between atoms: C_15  and  C_16
REMARK    8  A    between atoms: C_16  and  C_17
REMARK    9  A    between atoms: C_16  and  C_18
REMARK   10  A    between atoms: C_25  and  N_26
REMARK   11  A    between atoms: N_26  and  C_27
REMARK   12  A    between atoms: N_26  and  C_30
REMARK   13  A    between atoms: C_27  and  C_28
REMARK   14  A    between atoms: C_30  and  C_31
REMARK                            x       y       z     vdW  Elec       q    Type
REMARK                         _______ _______ _______ _____ _____    ______ ____
ROOT
ATOM      1  C   UNL     1       2.191   7.868  19.282  0.00  0.00    +0.000 A 
ATOM      2  C   UNL     1       2.680   8.296  18.101  0.00  0.00    +0.000 A 
ATOM      3  O   UNL     1       3.323   7.570  17.137  0.00  0.00    +0.000 OA
ATOM      4  C   UNL     1       3.926   6.424  17.555  0.00  0.00    +0.000 A 
ATOM      5  C   UNL     1       4.899   5.918  16.702  0.00  0.00    +0.000 A 
ATOM      6  C   UNL     1       5.716   4.878  17.120  0.00  0.00    +0.000 A 
ATOM      7  C   UNL     1       5.525   4.333  18.392  0.00  0.00    +0.000 A 
ATOM      8  C   UNL     1       4.474   4.796  19.219  0.00  0.00    +0.000 A 
ATOM      9  C   UNL     1       3.663   5.851  18.790  0.00  0.00    +0.000 A 
ATOM     10  C   UNL     1       2.561   6.445  19.608  0.00  0.00    +0.000 A 
ATOM     11  O   UNL     1       2.021   5.794  20.493  0.00  0.00    +0.000 OA
ENDROOT
BRANCH   1  15
ATOM     12  C   UNL     1      -0.431  10.634  21.408  0.00  0.00    +0.000 A 
ATOM     13  C   UNL     1       0.146   9.527  22.080  0.00  0.00    +0.000 A 
ATOM     14  C   UNL     1       0.977   8.594  21.422  0.00  0.00    +0.000 A 
ATOM     15  C   UNL     1       1.329   8.785  20.095  0.00  0.00    +0.000 A 
ATOM     16  C   UNL     1       0.770   9.929  19.481  0.00  0.00    +0.000 A 
ATOM     17  C   UNL     1      -0.142  10.850  20.041  0.00  0.00    +0.000 A 
BRANCH  12  19
ATOM     18  C   UNL     1      -0.800  12.730  22.580  0.00  0.00    +0.000 C 
ATOM     19  O   UNL     1      -1.283  11.519  22.016  0.00  0.00    +0.000 OA
ENDBRANCH  12  19
BRANCH  17  20
ATOM     20  N   UNL     1      -0.708  11.827  19.199  0.00  0.00    +0.000 N 
BRANCH  20  21
ATOM     21  C   UNL     1       0.091  12.882  18.541  0.00  0.00    +0.000 C 
BRANCH  21  22
ATOM     22  C   UNL     1      -0.233  14.309  18.993  0.00  0.00    +0.000 C 
ATOM     23 CL   UNL     1       1.221  15.326  19.206  0.00  0.00    +0.000 Cl
ENDBRANCH  21  22
ENDBRANCH  20  21
BRANCH  20  24
ATOM     24  C   UNL     1      -2.084  11.665  18.641  0.00  0.00    +0.000 C 
BRANCH  24  25
ATOM     25  C   UNL     1      -2.125  10.889  17.316  0.00  0.00    +0.000 C 
ATOM     26 CL   UNL     1      -3.300   9.547  17.426  0.00  0.00    +0.000 Cl
ENDBRANCH  24  25
ENDBRANCH  20  24
ENDBRANCH  17  20
ENDBRANCH   1  15
BRANCH   6  27
ATOM     27  O   UNL     1       6.710   4.589  16.233  0.00  0.00    +0.000 OA
BRANCH  27  28
ATOM     28  C   UNL     1       6.530   4.981  14.878  0.00  0.00    +0.000 C 
BRANCH  28  29
ATOM     29  C   UNL     1       5.957   3.775  14.104  0.00  0.00    +0.000 C 
BRANCH  29  30
ATOM     30  C   UNL     1       6.017   3.886  12.563  0.00  0.00    +0.000 C 
ATOM     31  C   UNL     1       7.321   4.517  12.078  0.00  0.00    +0.000 C 
ATOM     32  C   UNL     1       5.858   2.505  11.915  0.00  0.00    +0.000 C 
ENDBRANCH  29  30
ENDBRANCH  28  29
ENDBRANCH  27  28
ENDBRANCH   6  27
TORSDOF 11
ENDMDL
