MODEL 1
REMARK VINA RESULT:      -7.5      0.000      0.000
REMARK  Name = 
REMARK  6 active torsions:
REMARK  status: ('A' for Active; 'I' for Inactive)
REMARK    1  A    between atoms: C_1  and  O_2
REMARK    2  A    between atoms: O_2  and  C_3
REMARK    3  A    between atoms: C_6  and  N_7
REMARK    4  A    between atoms: N_7  and  C_8
REMARK    5  A    between atoms: N_7  and  C_9
REMARK    6  A    between atoms: C_11  and  C_12
REMARK                            x       y       z     vdW  Elec       q    Type
REMARK                         _______ _______ _______ _____ _____    ______ ____
ROOT
ATOM      1  C   UNL     1       4.721   4.507  17.288  0.00  0.00    +0.000 A 
ATOM      2  N   UNL     1       4.943   4.205  15.967  0.00  0.00    +0.000 NA
ATOM      3  C   UNL     1       6.186   4.284  15.393  0.00  0.00    +0.000 A 
ATOM      4  C   UNL     1       6.369   3.961  13.947  0.00  0.00    +0.000 C 
ATOM      5  N   UNL     1       7.263   4.667  16.138  0.00  0.00    +0.000 NA
ATOM      6  C   UNL     1       7.076   4.932  17.450  0.00  0.00    +0.000 A 
ATOM      7  C   UNL     1       8.002   5.298  18.396  0.00  0.00    +0.000 A 
ATOM      8  C   UNL     1       7.283   5.407  19.578  0.00  0.00    +0.000 A 
ATOM      9  N   UNL     1       5.976   5.125  19.366  0.00  0.00    +0.000 N 
ATOM     10  C   UNL     1       5.853   4.857  18.048  0.00  0.00    +0.000 A 
ATOM     11  H   UNL     1       5.240   5.116  20.106  0.00  0.00    +0.000 HD
ENDROOT
BRANCH   1  12
ATOM     12  N   UNL     1       3.386   4.436  17.816  0.00  0.00    +0.000 N 
ATOM     13  C   UNL     1       2.568   3.295  17.412  0.00  0.00    +0.000 C 
BRANCH  12  17
ATOM     14  C   UNL     1       1.753   7.587  20.211  0.00  0.00    +0.000 A 
ATOM     15  C   UNL     1       2.244   7.856  18.921  0.00  0.00    +0.000 A 
ATOM     16  C   UNL     1       2.764   6.829  18.130  0.00  0.00    +0.000 A 
ATOM     17  C   UNL     1       2.802   5.499  18.601  0.00  0.00    +0.000 A 
ATOM     18  C   UNL     1       2.294   5.243  19.895  0.00  0.00    +0.000 A 
ATOM     19  C   UNL     1       1.772   6.272  20.683  0.00  0.00    +0.000 A 
BRANCH  14  21
ATOM     20  C   UNL     1      -0.028   8.682  21.457  0.00  0.00    +0.000 C 
ATOM     21  O   UNL     1       1.280   8.562  21.030  0.00  0.00    +0.000 OA
ENDBRANCH  14  21
ENDBRANCH  12  17
ENDBRANCH   1  12
TORSDOF 3
ENDMDL
MODEL 2
REMARK VINA RESULT:      -7.3      0.425      1.161
REMARK  Name = 
REMARK  6 active torsions:
REMARK  status: ('A' for Active; 'I' for Inactive)
REMARK    1  A    between atoms: C_1  and  O_2
REMARK    2  A    between atoms: O_2  and  C_3
REMARK    3  A    between atoms: C_6  and  N_7
REMARK    4  A    between atoms: N_7  and  C_8
REMARK    5  A    between atoms: N_7  and  C_9
REMARK    6  A    between atoms: C_11  and  C_12
REMARK                            x       y       z     vdW  Elec       q    Type
REMARK                         _______ _______ _______ _____ _____    ______ ____
ROOT
ATOM      1  C   UNL     1       4.729   4.507  17.282  0.00  0.00    +0.000 A 
ATOM      2  N   UNL     1       4.936   4.188  15.963  0.00  0.00    +0.000 NA
ATOM      3  C   UNL     1       6.176   4.235  15.379  0.00  0.00    +0.000 A 
ATOM      4  C   UNL     1       6.342   3.895  13.936  0.00  0.00    +0.000 C 
ATOM      5  N   UNL     1       7.266   4.602  16.114  0.00  0.00    +0.000 NA
ATOM      6  C   UNL     1       7.093   4.883  17.424  0.00  0.00    +0.000 A 
ATOM      7  C   UNL     1       8.034   5.239  18.360  0.00  0.00    +0.000 A 
ATOM      8  C   UNL     1       7.325   5.374  19.546  0.00  0.00    +0.000 A 
ATOM      9  N   UNL     1       6.012   5.119  19.345  0.00  0.00    +0.000 N 
ATOM     10  C   UNL     1       5.873   4.840  18.031  0.00  0.00    +0.000 A 
ATOM     11  H   UNL     1       5.281   5.133  20.090  0.00  0.00    +0.000 HD
ENDROOT
BRANCH   1  12
ATOM     12  N   UNL     1       3.397   4.471  17.820  0.00  0.00    +0.000 N 
ATOM     13  C   UNL     1       2.540   3.363  17.404  0.00  0.00    +0.000 C 
BRANCH  12  17
ATOM     14  C   UNL     1       1.686   7.633  20.144  0.00  0.00    +0.000 A 
ATOM     15  C   UNL     1       1.742   6.325  20.657  0.00  0.00    +0.000 A 
ATOM     16  C   UNL     1       2.314   5.293  19.908  0.00  0.00    +0.000 A 
ATOM     17  C   UNL     1       2.853   5.538  18.627  0.00  0.00    +0.000 A 
ATOM     18  C   UNL     1       2.798   6.860  18.132  0.00  0.00    +0.000 A 
ATOM     19  C   UNL     1       2.229   7.890  18.883  0.00  0.00    +0.000 A 
BRANCH  14  21
ATOM     20  C   UNL     1       0.764   9.881  20.277  0.00  0.00    +0.000 C 
ATOM     21  O   UNL     1       1.101   8.656  20.819  0.00  0.00    +0.000 OA
ENDBRANCH  14  21
ENDBRANCH  12  17
ENDBRANCH   1  12
TORSDOF 3
ENDMDL
MODEL 3
REMARK VINA RESULT:      -7.3      2.397      3.723
REMARK  Name = 
REMARK  6 active torsions:
REMARK  status: ('A' for Active; 'I' for Inactive)
REMARK    1  A    between atoms: C_1  and  O_2
REMARK    2  A    between atoms: O_2  and  C_3
REMARK    3  A    between atoms: C_6  and  N_7
REMARK    4  A    between atoms: N_7  and  C_8
REMARK    5  A    between atoms: N_7  and  C_9
REMARK    6  A    between atoms: C_11  and  C_12
REMARK                            x       y       z     vdW  Elec       q    Type
REMARK                         _______ _______ _______ _____ _____    ______ ____
ROOT
ATOM      1  C   UNL     1       4.964   6.649  17.269  0.00  0.00    +0.000 A 
ATOM      2  N   UNL     1       5.871   7.584  17.699  0.00  0.00    +0.000 NA
ATOM      3  C   UNL     1       7.201   7.529  17.367  0.00  0.00    +0.000 A 
ATOM      4  C   UNL     1       8.148   8.563  17.876  0.00  0.00    +0.000 C 
ATOM      5  N   UNL     1       7.668   6.521  16.574  0.00  0.00    +0.000 NA
ATOM      6  C   UNL     1       6.787   5.609  16.107  0.00  0.00    +0.000 A 
ATOM      7  C   UNL     1       7.014   4.538  15.278  0.00  0.00    +0.000 A 
ATOM      8  C   UNL     1       5.765   3.961  15.088  0.00  0.00    +0.000 A 
ATOM      9  N   UNL     1       4.819   4.644  15.774  0.00  0.00    +0.000 N 
ATOM     10  C   UNL     1       5.460   5.643  16.417  0.00  0.00    +0.000 A 
ATOM     11  H   UNL     1       3.800   4.417  15.770  0.00  0.00    +0.000 HD
ENDROOT
BRANCH   1  12
ATOM     12  N   UNL     1       3.592   6.748  17.684  0.00  0.00    +0.000 N 
ATOM     13  C   UNL     1       2.901   8.005  17.407  0.00  0.00    +0.000 C 
BRANCH  12  17
ATOM     14  C   UNL     1       1.577   3.796  20.042  0.00  0.00    +0.000 A 
ATOM     15  C   UNL     1       1.385   3.847  18.650  0.00  0.00    +0.000 A 
ATOM     16  C   UNL     1       2.052   4.798  17.874  0.00  0.00    +0.000 A 
ATOM     17  C   UNL     1       2.938   5.724  18.466  0.00  0.00    +0.000 A 
ATOM     18  C   UNL     1       3.129   5.652  19.864  0.00  0.00    +0.000 A 
ATOM     19  C   UNL     1       2.463   4.699  20.636  0.00  0.00    +0.000 A 
BRANCH  14  21
ATOM     20  C   UNL     1       1.420   2.350  21.992  0.00  0.00    +0.000 C 
ATOM     21  O   UNL     1       0.916   2.917  20.838  0.00  0.00    +0.000 OA
ENDBRANCH  14  21
ENDBRANCH  12  17
ENDBRANCH   1  12
TORSDOF 3
ENDMDL
MODEL 4
REMARK VINA RESULT:      -7.2      2.431      3.781
REMARK  Name = 
REMARK  6 active torsions:
REMARK  status: ('A' for Active; 'I' for Inactive)
REMARK    1  A    between atoms: C_1  and  O_2
REMARK    2  A    between atoms: O_2  and  C_3
REMARK    3  A    between atoms: C_6  and  N_7
REMARK    4  A    between atoms: N_7  and  C_8
REMARK    5  A    between atoms: N_7  and  C_9
REMARK    6  A    between atoms: C_11  and  C_12
REMARK                            x       y       z     vdW  Elec       q    Type
REMARK                         _______ _______ _______ _____ _____    ______ ____
ROOT
ATOM      1  C   UNL     1       4.959   6.666  17.285  0.00  0.00    +0.000 A 
ATOM      2  N   UNL     1       5.871   7.604  17.699  0.00  0.00    +0.000 NA
ATOM      3  C   UNL     1       7.202   7.529  17.375  0.00  0.00    +0.000 A 
ATOM      4  C   UNL     1       8.156   8.567  17.867  0.00  0.00    +0.000 C 
ATOM      5  N   UNL     1       7.665   6.501  16.607  0.00  0.00    +0.000 NA
ATOM      6  C   UNL     1       6.779   5.587  16.156  0.00  0.00    +0.000 A 
ATOM      7  C   UNL     1       7.000   4.496  15.351  0.00  0.00    +0.000 A 
ATOM      8  C   UNL     1       5.748   3.925  15.167  0.00  0.00    +0.000 A 
ATOM      9  N   UNL     1       4.804   4.631  15.832  0.00  0.00    +0.000 N 
ATOM     10  C   UNL     1       5.450   5.638  16.457  0.00  0.00    +0.000 A 
ATOM     11  H   UNL     1       3.784   4.413  15.828  0.00  0.00    +0.000 HD
ENDROOT
BRANCH   1  12
ATOM     12  N   UNL     1       3.585   6.786  17.690  0.00  0.00    +0.000 N 
ATOM     13  C   UNL     1       2.908   8.045  17.386  0.00  0.00    +0.000 C 
BRANCH  12  17
ATOM     14  C   UNL     1       1.676   3.728  20.000  0.00  0.00    +0.000 A 
ATOM     15  C   UNL     1       2.560   4.635  20.612  0.00  0.00    +0.000 A 
ATOM     16  C   UNL     1       3.173   5.644  19.866  0.00  0.00    +0.000 A 
ATOM     17  C   UNL     1       2.917   5.783  18.485  0.00  0.00    +0.000 A 
ATOM     18  C   UNL     1       2.017   4.870  17.887  0.00  0.00    +0.000 A 
ATOM     19  C   UNL     1       1.404   3.864  18.636  0.00  0.00    +0.000 A 
BRANCH  14  21
ATOM     20  C   UNL     1       1.367   2.356  21.985  0.00  0.00    +0.000 C 
ATOM     21  O   UNL     1       1.093   2.706  20.678  0.00  0.00    +0.000 OA
ENDBRANCH  14  21
ENDBRANCH  12  17
ENDBRANCH   1  12
TORSDOF 3
ENDMDL
MODEL 5
REMARK VINA RESULT:      -7.1      3.071      6.451
REMARK  Name = 
REMARK  6 active torsions:
REMARK  status: ('A' for Active; 'I' for Inactive)
REMARK    1  A    between atoms: C_1  and  O_2
REMARK    2  A    between atoms: O_2  and  C_3
REMARK    3  A    between atoms: C_6  and  N_7
REMARK    4  A    between atoms: N_7  and  C_8
REMARK    5  A    between atoms: N_7  and  C_9
REMARK    6  A    between atoms: C_11  and  C_12
REMARK                            x       y       z     vdW  Elec       q    Type
REMARK                         _______ _______ _______ _____ _____    ______ ____
ROOT
ATOM      1  C   UNL     1       4.939   5.099  18.570  0.00  0.00    +0.000 A 
ATOM      2  N   UNL     1       4.162   6.230  18.589  0.00  0.00    +0.000 NA
ATOM      3  C   UNL     1       2.974   6.296  19.273  0.00  0.00    +0.000 A 
ATOM      4  C   UNL     1       2.159   7.546  19.246  0.00  0.00    +0.000 C 
ATOM      5  N   UNL     1       2.525   5.216  19.975  0.00  0.00    +0.000 NA
ATOM      6  C   UNL     1       3.292   4.104  20.002  0.00  0.00    +0.000 A 
ATOM      7  C   UNL     1       3.068   2.919  20.660  0.00  0.00    +0.000 A 
ATOM      8  C   UNL     1       4.181   2.137  20.380  0.00  0.00    +0.000 A 
ATOM      9  N   UNL     1       5.044   2.811  19.584  0.00  0.00    +0.000 N 
ATOM     10  C   UNL     1       4.479   4.011  19.337  0.00  0.00    +0.000 A 
ATOM     11  H   UNL     1       5.964   2.442  19.257  0.00  0.00    +0.000 HD
ENDROOT
BRANCH   1  12
ATOM     12  N   UNL     1       6.155   5.087  17.805  0.00  0.00    +0.000 N 
ATOM     13  C   UNL     1       7.369   5.546  18.476  0.00  0.00    +0.000 C 
BRANCH  12  17
ATOM     14  C   UNL     1       6.327   4.077  13.648  0.00  0.00    +0.000 A 
ATOM     15  C   UNL     1       5.219   3.697  14.427  0.00  0.00    +0.000 A 
ATOM     16  C   UNL     1       5.151   4.038  15.780  0.00  0.00    +0.000 A 
ATOM     17  C   UNL     1       6.186   4.775  16.395  0.00  0.00    +0.000 A 
ATOM     18  C   UNL     1       7.287   5.158  15.596  0.00  0.00    +0.000 A 
ATOM     19  C   UNL     1       7.350   4.818  14.243  0.00  0.00    +0.000 A 
BRANCH  14  21
ATOM     20  C   UNL     1       5.846   2.644  11.741  0.00  0.00    +0.000 C 
ATOM     21  O   UNL     1       6.454   3.729  12.342  0.00  0.00    +0.000 OA
ENDBRANCH  14  21
ENDBRANCH  12  17
ENDBRANCH   1  12
TORSDOF 3
ENDMDL
MODEL 6
REMARK VINA RESULT:      -7.1      3.049      6.373
REMARK  Name = 
REMARK  6 active torsions:
REMARK  status: ('A' for Active; 'I' for Inactive)
REMARK    1  A    between atoms: C_1  and  O_2
REMARK    2  A    between atoms: O_2  and  C_3
REMARK    3  A    between atoms: C_6  and  N_7
REMARK    4  A    between atoms: N_7  and  C_8
REMARK    5  A    between atoms: N_7  and  C_9
REMARK    6  A    between atoms: C_11  and  C_12
REMARK                            x       y       z     vdW  Elec       q    Type
REMARK                         _______ _______ _______ _____ _____    ______ ____
ROOT
ATOM      1  C   UNL     1       4.961   5.086  18.582  0.00  0.00    +0.000 A 
ATOM      2  N   UNL     1       4.182   6.216  18.593  0.00  0.00    +0.000 NA
ATOM      3  C   UNL     1       2.977   6.274  19.246  0.00  0.00    +0.000 A 
ATOM      4  C   UNL     1       2.161   7.523  19.212  0.00  0.00    +0.000 C 
ATOM      5  N   UNL     1       2.512   5.185  19.925  0.00  0.00    +0.000 NA
ATOM      6  C   UNL     1       3.280   4.074  19.960  0.00  0.00    +0.000 A 
ATOM      7  C   UNL     1       3.040   2.881  20.598  0.00  0.00    +0.000 A 
ATOM      8  C   UNL     1       4.161   2.104  20.339  0.00  0.00    +0.000 A 
ATOM      9  N   UNL     1       5.044   2.787  19.573  0.00  0.00    +0.000 N 
ATOM     10  C   UNL     1       4.483   3.990  19.324  0.00  0.00    +0.000 A 
ATOM     11  H   UNL     1       5.972   2.423  19.266  0.00  0.00    +0.000 HD
ENDROOT
BRANCH   1  12
ATOM     12  N   UNL     1       6.197   5.084  17.848  0.00  0.00    +0.000 N 
ATOM     13  C   UNL     1       7.376   5.616  18.527  0.00  0.00    +0.000 C 
BRANCH  12  17
ATOM     14  C   UNL     1       6.343   4.058  13.694  0.00  0.00    +0.000 A 
ATOM     15  C   UNL     1       7.360   4.841  14.269  0.00  0.00    +0.000 A 
ATOM     16  C   UNL     1       7.325   5.165  15.628  0.00  0.00    +0.000 A 
ATOM     17  C   UNL     1       6.275   4.711  16.455  0.00  0.00    +0.000 A 
ATOM     18  C   UNL     1       5.267   3.916  15.864  0.00  0.00    +0.000 A 
ATOM     19  C   UNL     1       5.307   3.591  14.506  0.00  0.00    +0.000 A 
BRANCH  14  21
ATOM     20  C   UNL     1       5.547   2.765  11.793  0.00  0.00    +0.000 C 
ATOM     21  O   UNL     1       6.315   3.756  12.371  0.00  0.00    +0.000 OA
ENDBRANCH  14  21
ENDBRANCH  12  17
ENDBRANCH   1  12
TORSDOF 3
ENDMDL
MODEL 7
REMARK VINA RESULT:      -7.0      2.887      6.487
REMARK  Name = 
REMARK  6 active torsions:
REMARK  status: ('A' for Active; 'I' for Inactive)
REMARK    1  A    between atoms: C_1  and  O_2
REMARK    2  A    between atoms: O_2  and  C_3
REMARK    3  A    between atoms: C_6  and  N_7
REMARK    4  A    between atoms: N_7  and  C_8
REMARK    5  A    between atoms: N_7  and  C_9
REMARK    6  A    between atoms: C_11  and  C_12
REMARK                            x       y       z     vdW  Elec       q    Type
REMARK                         _______ _______ _______ _____ _____    ______ ____
ROOT
ATOM      1  C   UNL     1       4.285   4.794  18.983  0.00  0.00    +0.000 A 
ATOM      2  N   UNL     1       3.608   5.859  19.523  0.00  0.00    +0.000 NA
ATOM      3  C   UNL     1       2.337   5.745  20.026  0.00  0.00    +0.000 A 
ATOM      4  C   UNL     1       1.640   6.939  20.586  0.00  0.00    +0.000 C 
ATOM      5  N   UNL     1       1.699   4.539  20.010  0.00  0.00    +0.000 NA
ATOM      6  C   UNL     1       2.359   3.468  19.518  0.00  0.00    +0.000 A 
ATOM      7  C   UNL     1       1.940   2.163  19.429  0.00  0.00    +0.000 A 
ATOM      8  C   UNL     1       3.017   1.477  18.884  0.00  0.00    +0.000 A 
ATOM      9  N   UNL     1       4.046   2.323  18.645  0.00  0.00    +0.000 N 
ATOM     10  C   UNL     1       3.624   3.551  19.016  0.00  0.00    +0.000 A 
ATOM     11  H   UNL     1       4.973   2.040  18.259  0.00  0.00    +0.000 HD
ENDROOT
BRANCH   1  12
ATOM     12  N   UNL     1       5.602   4.991  18.441  0.00  0.00    +0.000 N 
ATOM     13  C   UNL     1       6.633   5.477  19.355  0.00  0.00    +0.000 C 
BRANCH  12  17
ATOM     14  C   UNL     1       6.513   4.490  14.288  0.00  0.00    +0.000 A 
ATOM     15  C   UNL     1       5.190   4.360  14.746  0.00  0.00    +0.000 A 
ATOM     16  C   UNL     1       4.885   4.538  16.098  0.00  0.00    +0.000 A 
ATOM     17  C   UNL     1       5.893   4.859  17.032  0.00  0.00    +0.000 A 
ATOM     18  C   UNL     1       7.216   4.997  16.554  0.00  0.00    +0.000 A 
ATOM     19  C   UNL     1       7.517   4.821  15.202  0.00  0.00    +0.000 A 
BRANCH  14  21
ATOM     20  C   UNL     1       6.244   3.395  12.132  0.00  0.00    +0.000 C 
ATOM     21  O   UNL     1       6.860   4.283  12.991  0.00  0.00    +0.000 OA
ENDBRANCH  14  21
ENDBRANCH  12  17
ENDBRANCH   1  12
TORSDOF 3
ENDMDL
MODEL 8
REMARK VINA RESULT:      -6.8      1.315      3.013
REMARK  Name = 
REMARK  6 active torsions:
REMARK  status: ('A' for Active; 'I' for Inactive)
REMARK    1  A    between atoms: C_1  and  O_2
REMARK    2  A    between atoms: O_2  and  C_3
REMARK    3  A    between atoms: C_6  and  N_7
REMARK    4  A    between atoms: N_7  and  C_8
REMARK    5  A    between atoms: N_7  and  C_9
REMARK    6  A    between atoms: C_11  and  C_12
REMARK                            x       y       z     vdW  Elec       q    Type
REMARK                         _______ _______ _______ _____ _____    ______ ____
ROOT
ATOM      1  C   UNL     1       4.916   5.222  17.826  0.00  0.00    +0.000 A 
ATOM      2  N   UNL     1       5.847   5.484  18.799  0.00  0.00    +0.000 NA
ATOM      3  C   UNL     1       7.197   5.385  18.573  0.00  0.00    +0.000 A 
ATOM      4  C   UNL     1       8.166   5.664  19.673  0.00  0.00    +0.000 C 
ATOM      5  N   UNL     1       7.661   5.023  17.343  0.00  0.00    +0.000 NA
ATOM      6  C   UNL     1       6.764   4.798  16.358  0.00  0.00    +0.000 A 
ATOM      7  C   UNL     1       6.992   4.458  15.047  0.00  0.00    +0.000 A 
ATOM      8  C   UNL     1       5.731   4.386  14.471  0.00  0.00    +0.000 A 
ATOM      9  N   UNL     1       4.775   4.663  15.388  0.00  0.00    +0.000 N 
ATOM     10  C   UNL     1       5.418   4.893  16.552  0.00  0.00    +0.000 A 
ATOM     11  H   UNL     1       3.751   4.696  15.190  0.00  0.00    +0.000 HD
ENDROOT
BRANCH   1  12
ATOM     12  N   UNL     1       3.516   5.311  18.141  0.00  0.00    +0.000 N 
ATOM     13  C   UNL     1       2.699   4.127  17.886  0.00  0.00    +0.000 C 
BRANCH  12  17
ATOM     14  C   UNL     1       1.559   8.931  19.319  0.00  0.00    +0.000 A 
ATOM     15  C   UNL     1       1.685   7.864  20.226  0.00  0.00    +0.000 A 
ATOM     16  C   UNL     1       2.336   6.687  19.851  0.00  0.00    +0.000 A 
ATOM     17  C   UNL     1       2.888   6.542  18.560  0.00  0.00    +0.000 A 
ATOM     18  C   UNL     1       2.763   7.629  17.665  0.00  0.00    +0.000 A 
ATOM     19  C   UNL     1       2.113   8.806  18.043  0.00  0.00    +0.000 A 
BRANCH  14  21
ATOM     20  C   UNL     1       0.992  11.266  18.935  0.00  0.00    +0.000 C 
ATOM     21  O   UNL     1       0.895  10.076  19.627  0.00  0.00    +0.000 OA
ENDBRANCH  14  21
ENDBRANCH  12  17
ENDBRANCH   1  12
TORSDOF 3
ENDMDL
MODEL 9
REMARK VINA RESULT:      -6.8      1.133      2.726
REMARK  Name = 
REMARK  6 active torsions:
REMARK  status: ('A' for Active; 'I' for Inactive)
REMARK    1  A    between atoms: C_1  and  O_2
REMARK    2  A    between atoms: O_2  and  C_3
REMARK    3  A    between atoms: C_6  and  N_7
REMARK    4  A    between atoms: N_7  and  C_8
REMARK    5  A    between atoms: N_7  and  C_9
REMARK    6  A    between atoms: C_11  and  C_12
REMARK                            x       y       z     vdW  Elec       q    Type
REMARK                         _______ _______ _______ _____ _____    ______ ____
ROOT
ATOM      1  C   UNL     1       4.961   5.114  18.219  0.00  0.00    +0.000 A 
ATOM      2  N   UNL     1       5.946   5.424  19.122  0.00  0.00    +0.000 NA
ATOM      3  C   UNL     1       7.280   5.374  18.803  0.00  0.00    +0.000 A 
ATOM      4  C   UNL     1       8.312   5.705  19.829  0.00  0.00    +0.000 C 
ATOM      5  N   UNL     1       7.672   5.013  17.547  0.00  0.00    +0.000 NA
ATOM      6  C   UNL     1       6.718   4.740  16.630  0.00  0.00    +0.000 A 
ATOM      7  C   UNL     1       6.867   4.391  15.310  0.00  0.00    +0.000 A 
ATOM      8  C   UNL     1       5.572   4.262  14.824  0.00  0.00    +0.000 A 
ATOM      9  N   UNL     1       4.672   4.516  15.803  0.00  0.00    +0.000 N 
ATOM     10  C   UNL     1       5.386   4.786  16.917  0.00  0.00    +0.000 A 
ATOM     11  H   UNL     1       3.637   4.507  15.677  0.00  0.00    +0.000 HD
ENDROOT
BRANCH   1  12
ATOM     12  N   UNL     1       3.584   5.153  18.630  0.00  0.00    +0.000 N 
ATOM     13  C   UNL     1       2.868   3.881  18.684  0.00  0.00    +0.000 C 
BRANCH  12  17
ATOM     14  C   UNL     1       1.565   8.858  19.355  0.00  0.00    +0.000 A 
ATOM     15  C   UNL     1       2.162   8.606  18.107  0.00  0.00    +0.000 A 
ATOM     16  C   UNL     1       2.808   7.393  17.860  0.00  0.00    +0.000 A 
ATOM     17  C   UNL     1       2.872   6.390  18.852  0.00  0.00    +0.000 A 
ATOM     18  C   UNL     1       2.257   6.655  20.097  0.00  0.00    +0.000 A 
ATOM     19  C   UNL     1       1.610   7.868  20.339  0.00  0.00    +0.000 A 
BRANCH  14  21
ATOM     20  C   UNL     1      -0.364  10.198  19.989  0.00  0.00    +0.000 C 
ATOM     21  O   UNL     1       0.965  10.040  19.652  0.00  0.00    +0.000 OA
ENDBRANCH  14  21
ENDBRANCH  12  17
ENDBRANCH   1  12
TORSDOF 3
ENDMDL
