MODEL 1
REMARK VINA RESULT:      -8.2      0.000      0.000
REMARK  Name = 
REMARK  5 active torsions:
REMARK  status: ('A' for Active; 'I' for Inactive)
REMARK    1  A    between atoms: C_7  and  C_8
REMARK    2  A    between atoms: C_8  and  N_9
REMARK    3  A    between atoms: N_11  and  C_12
REMARK    4  A    between atoms: C_12  and  C_13
REMARK    5  A    between atoms: C_14  and  C_15
REMARK                            x       y       z     vdW  Elec       q    Type
REMARK                         _______ _______ _______ _____ _____    ______ ____
ROOT
ATOM      1  N   UNL     1      -4.578  12.058  18.171  0.00  0.00    +0.000 N 
ATOM      2  C   UNL     1      -3.681  12.252  19.144  0.00  0.00    +0.000 A 
ATOM      3  N   UNL     1      -2.631  11.467  18.911  0.00  0.00    +0.000 N 
ATOM      4  C   UNL     1      -2.741  10.892  17.652  0.00  0.00    +0.000 A 
ATOM      5  C   UNL     1      -1.852  10.108  16.920  0.00  0.00    +0.000 A 
ATOM      6  C   UNL     1      -2.269   9.751  15.636  0.00  0.00    +0.000 A 
ATOM      7  C   UNL     1      -3.514  10.166  15.123  0.00  0.00    +0.000 A 
ATOM      8  C   UNL     1      -4.408  10.950  15.873  0.00  0.00    +0.000 A 
ATOM      9  C   UNL     1      -3.988  11.300  17.155  0.00  0.00    +0.000 A 
ENDROOT
BRANCH   1  10
ATOM     10  C   UNL     1      -5.934  12.610  18.219  0.00  0.00    +0.000 C 
BRANCH  10  17
ATOM     11 BR   UNL     1      -6.272  14.840  20.687  0.00  0.00    +0.000 Br
ATOM     12  C   UNL     1      -6.776  13.011  20.629  0.00  0.00    +0.000 A 
ATOM     13  C   UNL     1      -7.383  12.522  21.793  0.00  0.00    +0.000 A 
ATOM     14  C   UNL     1      -7.903  11.233  21.826  0.00  0.00    +0.000 A 
ATOM     15  C   UNL     1      -7.823  10.429  20.697  0.00  0.00    +0.000 A 
ATOM     16  C   UNL     1      -7.182  10.897  19.547  0.00  0.00    +0.000 A 
ATOM     17  C   UNL     1      -6.625  12.190  19.494  0.00  0.00    +0.000 A 
ENDBRANCH  10  17
ENDBRANCH   1  10
BRANCH   3  18
ATOM     18  C   UNL     1      -1.564  11.257  19.865  0.00  0.00    +0.000 C 
BRANCH  18  19
ATOM     19  C   UNL     1      -0.294  11.917  19.465  0.00  0.00    +0.000 A 
ATOM     20  C   UNL     1       0.879  11.224  19.179  0.00  0.00    +0.000 A 
ATOM     21  O   UNL     1       1.873  12.092  18.846  0.00  0.00    +0.000 OA
ATOM     22  C   UNL     1       1.352  13.351  18.900  0.00  0.00    +0.000 A 
ATOM     23  C   UNL     1       2.035  14.528  18.596  0.00  0.00    +0.000 A 
ATOM     24  C   UNL     1       1.325  15.727  18.725  0.00  0.00    +0.000 A 
ATOM     25  C   UNL     1       0.005  15.736  19.161  0.00  0.00    +0.000 A 
ATOM     26  C   UNL     1      -0.652  14.539  19.464  0.00  0.00    +0.000 A 
ATOM     27  C   UNL     1       0.023  13.308  19.308  0.00  0.00    +0.000 A 
BRANCH  20  28
ATOM     28  C   UNL     1       1.219   9.801  19.223  0.00  0.00    +0.000 A 
ATOM     29  C   UNL     1       1.033   9.063  20.405  0.00  0.00    +0.000 A 
ATOM     30  C   UNL     1       1.558   7.778  20.548  0.00  0.00    +0.000 A 
ATOM     31  C   UNL     1       2.229   7.185  19.485  0.00  0.00    +0.000 A 
ATOM     32  C   UNL     1       2.345   7.868  18.274  0.00  0.00    +0.000 A 
ATOM     33  C   UNL     1       1.845   9.169  18.142  0.00  0.00    +0.000 A 
ENDBRANCH  20  28
ENDBRANCH  18  19
ENDBRANCH   3  18
TORSDOF 5
ENDMDL
MODEL 2
REMARK VINA RESULT:      -8.0      2.708      4.937
REMARK  Name = 
REMARK  5 active torsions:
REMARK  status: ('A' for Active; 'I' for Inactive)
REMARK    1  A    between atoms: C_7  and  C_8
REMARK    2  A    between atoms: C_8  and  N_9
REMARK    3  A    between atoms: N_11  and  C_12
REMARK    4  A    between atoms: C_12  and  C_13
REMARK    5  A    between atoms: C_14  and  C_15
REMARK                            x       y       z     vdW  Elec       q    Type
REMARK                         _______ _______ _______ _____ _____    ______ ____
ROOT
ATOM      1  N   UNL     1      -4.809  12.073  19.518  0.00  0.00    +0.000 N 
ATOM      2  C   UNL     1      -3.889  12.810  20.152  0.00  0.00    +0.000 A 
ATOM      3  N   UNL     1      -2.704  12.578  19.590  0.00  0.00    +0.000 N 
ATOM      4  C   UNL     1      -2.868  11.832  18.432  0.00  0.00    +0.000 A 
ATOM      5  C   UNL     1      -1.958  11.449  17.449  0.00  0.00    +0.000 A 
ATOM      6  C   UNL     1      -2.488  10.746  16.366  0.00  0.00    +0.000 A 
ATOM      7  C   UNL     1      -3.863  10.449  16.283  0.00  0.00    +0.000 A 
ATOM      8  C   UNL     1      -4.773  10.832  17.283  0.00  0.00    +0.000 A 
ATOM      9  C   UNL     1      -4.237  11.531  18.363  0.00  0.00    +0.000 A 
ENDROOT
BRANCH   1  10
ATOM     10  C   UNL     1      -6.183  11.931  20.002  0.00  0.00    +0.000 C 
BRANCH  10  17
ATOM     11 BR   UNL     1      -6.868  15.052  19.019  0.00  0.00    +0.000 Br
ATOM     12  C   UNL     1      -6.722  14.338  20.772  0.00  0.00    +0.000 A 
ATOM     13  C   UNL     1      -6.936  15.254  21.809  0.00  0.00    +0.000 A 
ATOM     14  C   UNL     1      -6.975  14.824  23.131  0.00  0.00    +0.000 A 
ATOM     15  C   UNL     1      -6.805  13.477  23.421  0.00  0.00    +0.000 A 
ATOM     16  C   UNL     1      -6.551  12.565  22.394  0.00  0.00    +0.000 A 
ATOM     17  C   UNL     1      -6.482  12.978  21.048  0.00  0.00    +0.000 A 
ENDBRANCH  10  17
ENDBRANCH   1  10
BRANCH   3  18
ATOM     18  C   UNL     1      -1.452  13.039  20.150  0.00  0.00    +0.000 C 
BRANCH  18  19
ATOM     19  C   UNL     1      -0.897  12.109  21.166  0.00  0.00    +0.000 A 
ATOM     20  C   UNL     1      -1.020  12.304  22.539  0.00  0.00    +0.000 A 
ATOM     21  O   UNL     1      -0.412  11.292  23.218  0.00  0.00    +0.000 OA
ATOM     22  C   UNL     1       0.097  10.429  22.295  0.00  0.00    +0.000 A 
ATOM     23  C   UNL     1       0.770   9.241  22.576  0.00  0.00    +0.000 A 
ATOM     24  C   UNL     1       1.229   8.495  21.485  0.00  0.00    +0.000 A 
ATOM     25  C   UNL     1       1.040   8.939  20.181  0.00  0.00    +0.000 A 
ATOM     26  C   UNL     1       0.365  10.139  19.930  0.00  0.00    +0.000 A 
ATOM     27  C   UNL     1      -0.144  10.898  21.007  0.00  0.00    +0.000 A 
BRANCH  20  28
ATOM     28  C   UNL     1      -1.616  13.380  23.333  0.00  0.00    +0.000 A 
ATOM     29  C   UNL     1      -0.825  14.454  23.779  0.00  0.00    +0.000 A 
ATOM     30  C   UNL     1      -1.303  15.365  24.722  0.00  0.00    +0.000 A 
ATOM     31  C   UNL     1      -2.607  15.251  25.191  0.00  0.00    +0.000 A 
ATOM     32  C   UNL     1      -3.435  14.245  24.693  0.00  0.00    +0.000 A 
ATOM     33  C   UNL     1      -2.943  13.313  23.771  0.00  0.00    +0.000 A 
ENDBRANCH  20  28
ENDBRANCH  18  19
ENDBRANCH   3  18
TORSDOF 5
ENDMDL
MODEL 3
REMARK VINA RESULT:      -8.0      2.623      4.944
REMARK  Name = 
REMARK  5 active torsions:
REMARK  status: ('A' for Active; 'I' for Inactive)
REMARK    1  A    between atoms: C_7  and  C_8
REMARK    2  A    between atoms: C_8  and  N_9
REMARK    3  A    between atoms: N_11  and  C_12
REMARK    4  A    between atoms: C_12  and  C_13
REMARK    5  A    between atoms: C_14  and  C_15
REMARK                            x       y       z     vdW  Elec       q    Type
REMARK                         _______ _______ _______ _____ _____    ______ ____
ROOT
ATOM      1  N   UNL     1      -4.809  11.989  19.110  0.00  0.00    +0.000 N 
ATOM      2  C   UNL     1      -3.903  12.648  19.841  0.00  0.00    +0.000 A 
ATOM      3  N   UNL     1      -2.692  12.365  19.363  0.00  0.00    +0.000 N 
ATOM      4  C   UNL     1      -2.806  11.668  18.168  0.00  0.00    +0.000 A 
ATOM      5  C   UNL     1      -1.843  11.264  17.245  0.00  0.00    +0.000 A 
ATOM      6  C   UNL     1      -2.326  10.630  16.099  0.00  0.00    +0.000 A 
ATOM      7  C   UNL     1      -3.705  10.419  15.898  0.00  0.00    +0.000 A 
ATOM      8  C   UNL     1      -4.667  10.822  16.840  0.00  0.00    +0.000 A 
ATOM      9  C   UNL     1      -4.179  11.451  17.983  0.00  0.00    +0.000 A 
ENDROOT
BRANCH   1  10
ATOM     10  C   UNL     1      -6.223  11.912  19.481  0.00  0.00    +0.000 C 
BRANCH  10  17
ATOM     11 BR   UNL     1      -7.273  12.952  22.480  0.00  0.00    +0.000 Br
ATOM     12  C   UNL     1      -7.342  13.832  20.800  0.00  0.00    +0.000 A 
ATOM     13  C   UNL     1      -7.916  15.110  20.820  0.00  0.00    +0.000 A 
ATOM     14  C   UNL     1      -7.912  15.899  19.675  0.00  0.00    +0.000 A 
ATOM     15  C   UNL     1      -7.332  15.418  18.508  0.00  0.00    +0.000 A 
ATOM     16  C   UNL     1      -6.795  14.129  18.473  0.00  0.00    +0.000 A 
ATOM     17  C   UNL     1      -6.807  13.299  19.611  0.00  0.00    +0.000 A 
ENDBRANCH  10  17
ENDBRANCH   1  10
BRANCH   3  18
ATOM     18  C   UNL     1      -1.464  12.732  20.034  0.00  0.00    +0.000 C 
BRANCH  18  19
ATOM     19  C   UNL     1      -1.012  11.708  21.012  0.00  0.00    +0.000 A 
ATOM     20  C   UNL     1      -1.339  11.736  22.365  0.00  0.00    +0.000 A 
ATOM     21  O   UNL     1      -0.783  10.673  23.008  0.00  0.00    +0.000 OA
ATOM     22  C   UNL     1      -0.104   9.942  22.080  0.00  0.00    +0.000 A 
ATOM     23  C   UNL     1       0.582   8.752  22.323  0.00  0.00    +0.000 A 
ATOM     24  C   UNL     1       1.229   8.157  21.235  0.00  0.00    +0.000 A 
ATOM     25  C   UNL     1       1.204   8.745  19.975  0.00  0.00    +0.000 A 
ATOM     26  C   UNL     1       0.512   9.942  19.763  0.00  0.00    +0.000 A 
ATOM     27  C   UNL     1      -0.184  10.550  20.831  0.00  0.00    +0.000 A 
BRANCH  20  28
ATOM     28  C   UNL     1      -2.096  12.690  23.177  0.00  0.00    +0.000 A 
ATOM     29  C   UNL     1      -1.495  13.883  23.614  0.00  0.00    +0.000 A 
ATOM     30  C   UNL     1      -2.104  14.695  24.572  0.00  0.00    +0.000 A 
ATOM     31  C   UNL     1      -3.358  14.354  25.066  0.00  0.00    +0.000 A 
ATOM     32  C   UNL     1      -4.009  13.221  24.579  0.00  0.00    +0.000 A 
ATOM     33  C   UNL     1      -3.382  12.391  23.641  0.00  0.00    +0.000 A 
ENDBRANCH  20  28
ENDBRANCH  18  19
ENDBRANCH   3  18
TORSDOF 5
ENDMDL
MODEL 4
REMARK VINA RESULT:      -7.9      2.918      7.172
REMARK  Name = 
REMARK  5 active torsions:
REMARK  status: ('A' for Active; 'I' for Inactive)
REMARK    1  A    between atoms: C_7  and  C_8
REMARK    2  A    between atoms: C_8  and  N_9
REMARK    3  A    between atoms: N_11  and  C_12
REMARK    4  A    between atoms: C_12  and  C_13
REMARK    5  A    between atoms: C_14  and  C_15
REMARK                            x       y       z     vdW  Elec       q    Type
REMARK                         _______ _______ _______ _____ _____    ______ ____
ROOT
ATOM      1  N   UNL     1      -2.685  12.073  19.224  0.00  0.00    +0.000 N 
ATOM      2  C   UNL     1      -3.875  12.137  19.832  0.00  0.00    +0.000 A 
ATOM      3  N   UNL     1      -4.825  11.941  18.918  0.00  0.00    +0.000 N 
ATOM      4  C   UNL     1      -4.252  11.538  17.720  0.00  0.00    +0.000 A 
ATOM      5  C   UNL     1      -4.827  11.104  16.527  0.00  0.00    +0.000 A 
ATOM      6  C   UNL     1      -3.936  10.704  15.530  0.00  0.00    +0.000 A 
ATOM      7  C   UNL     1      -2.541  10.741  15.730  0.00  0.00    +0.000 A 
ATOM      8  C   UNL     1      -1.970  11.189  16.934  0.00  0.00    +0.000 A 
ATOM      9  C   UNL     1      -2.865  11.589  17.924  0.00  0.00    +0.000 A 
ENDROOT
BRANCH   1  10
ATOM     10  C   UNL     1      -1.434  12.439  19.890  0.00  0.00    +0.000 C 
BRANCH  10  17
ATOM     11 BR   UNL     1      -1.845  13.041  23.152  0.00  0.00    +0.000 Br
ATOM     12  C   UNL     1      -1.100  11.527  22.284  0.00  0.00    +0.000 A 
ATOM     13  C   UNL     1      -0.660  10.507  23.137  0.00  0.00    +0.000 A 
ATOM     14  C   UNL     1      -0.208   9.300  22.615  0.00  0.00    +0.000 A 
ATOM     15  C   UNL     1      -0.198   9.105  21.240  0.00  0.00    +0.000 A 
ATOM     16  C   UNL     1      -0.598  10.134  20.383  0.00  0.00    +0.000 A 
ATOM     17  C   UNL     1      -1.038  11.375  20.885  0.00  0.00    +0.000 A 
ENDBRANCH  10  17
ENDBRANCH   1  10
BRANCH   3  18
ATOM     18  C   UNL     1      -6.233  12.150  19.174  0.00  0.00    +0.000 C 
BRANCH  18  19
ATOM     19  C   UNL     1      -6.610  13.587  19.191  0.00  0.00    +0.000 A 
ATOM     20  C   UNL     1      -6.814  14.317  20.359  0.00  0.00    +0.000 A 
ATOM     21  O   UNL     1      -7.150  15.603  20.061  0.00  0.00    +0.000 OA
ATOM     22  C   UNL     1      -7.153  15.720  18.703  0.00  0.00    +0.000 A 
ATOM     23  C   UNL     1      -7.416  16.888  17.989  0.00  0.00    +0.000 A 
ATOM     24  C   UNL     1      -7.383  16.801  16.592  0.00  0.00    +0.000 A 
ATOM     25  C   UNL     1      -7.124  15.594  15.954  0.00  0.00    +0.000 A 
ATOM     26  C   UNL     1      -6.870  14.437  16.699  0.00  0.00    +0.000 A 
ATOM     27  C   UNL     1      -6.858  14.497  18.110  0.00  0.00    +0.000 A 
BRANCH  20  28
ATOM     28  C   UNL     1      -6.781  13.944  21.774  0.00  0.00    +0.000 A 
ATOM     29  C   UNL     1      -5.579  14.019  22.499  0.00  0.00    +0.000 A 
ATOM     30  C   UNL     1      -5.462  13.457  23.772  0.00  0.00    +0.000 A 
ATOM     31  C   UNL     1      -6.569  12.862  24.365  0.00  0.00    +0.000 A 
ATOM     32  C   UNL     1      -7.793  12.858  23.698  0.00  0.00    +0.000 A 
ATOM     33  C   UNL     1      -7.900  13.394  22.408  0.00  0.00    +0.000 A 
ENDBRANCH  20  28
ENDBRANCH  18  19
ENDBRANCH   3  18
TORSDOF 5
ENDMDL
MODEL 5
REMARK VINA RESULT:      -7.8      3.402      7.260
REMARK  Name = 
REMARK  5 active torsions:
REMARK  status: ('A' for Active; 'I' for Inactive)
REMARK    1  A    between atoms: C_7  and  C_8
REMARK    2  A    between atoms: C_8  and  N_9
REMARK    3  A    between atoms: N_11  and  C_12
REMARK    4  A    between atoms: C_12  and  C_13
REMARK    5  A    between atoms: C_14  and  C_15
REMARK                            x       y       z     vdW  Elec       q    Type
REMARK                         _______ _______ _______ _____ _____    ______ ____
ROOT
ATOM      1  N   UNL     1      -2.357  12.113  19.414  0.00  0.00    +0.000 N 
ATOM      2  C   UNL     1      -3.472  12.372  20.107  0.00  0.00    +0.000 A 
ATOM      3  N   UNL     1      -4.512  12.278  19.281  0.00  0.00    +0.000 N 
ATOM      4  C   UNL     1      -4.103  11.747  18.065  0.00  0.00    +0.000 A 
ATOM      5  C   UNL     1      -4.831  11.351  16.945  0.00  0.00    +0.000 A 
ATOM      6  C   UNL     1      -4.091  10.788  15.904  0.00  0.00    +0.000 A 
ATOM      7  C   UNL     1      -2.693  10.632  15.995  0.00  0.00    +0.000 A 
ATOM      8  C   UNL     1      -1.967  11.042  17.126  0.00  0.00    +0.000 A 
ATOM      9  C   UNL     1      -2.711  11.607  18.159  0.00  0.00    +0.000 A 
ENDROOT
BRANCH   1  10
ATOM     10  C   UNL     1      -1.016  12.324  19.961  0.00  0.00    +0.000 C 
BRANCH  10  17
ATOM     11 BR   UNL     1       0.936   9.808  18.941  0.00  0.00    +0.000 Br
ATOM     12  C   UNL     1       0.088  10.081  20.617  0.00  0.00    +0.000 A 
ATOM     13  C   UNL     1       0.316   9.081  21.570  0.00  0.00    +0.000 A 
ATOM     14  C   UNL     1      -0.152   9.230  22.872  0.00  0.00    +0.000 A 
ATOM     15  C   UNL     1      -0.846  10.380  23.226  0.00  0.00    +0.000 A 
ATOM     16  C   UNL     1      -1.111  11.362  22.268  0.00  0.00    +0.000 A 
ATOM     17  C   UNL     1      -0.669  11.225  20.937  0.00  0.00    +0.000 A 
ENDBRANCH  10  17
ENDBRANCH   1  10
BRANCH   3  18
ATOM     18  C   UNL     1      -5.851  12.697  19.633  0.00  0.00    +0.000 C 
BRANCH  18  19
ATOM     19  C   UNL     1      -6.146  14.093  19.222  0.00  0.00    +0.000 A 
ATOM     20  C   UNL     1      -5.892  15.204  20.022  0.00  0.00    +0.000 A 
ATOM     21  O   UNL     1      -6.267  16.345  19.382  0.00  0.00    +0.000 OA
ATOM     22  C   UNL     1      -6.753  15.988  18.160  0.00  0.00    +0.000 A 
ATOM     23  C   UNL     1      -7.214  16.865  17.179  0.00  0.00    +0.000 A 
ATOM     24  C   UNL     1      -7.687  16.299  15.990  0.00  0.00    +0.000 A 
ATOM     25  C   UNL     1      -7.716  14.921  15.813  0.00  0.00    +0.000 A 
ATOM     26  C   UNL     1      -7.253  14.065  16.818  0.00  0.00    +0.000 A 
ATOM     27  C   UNL     1      -6.733  14.604  18.016  0.00  0.00    +0.000 A 
BRANCH  20  28
ATOM     28  C   UNL     1      -5.366  15.340  21.382  0.00  0.00    +0.000 A 
ATOM     29  C   UNL     1      -4.007  15.631  21.590  0.00  0.00    +0.000 A 
ATOM     30  C   UNL     1      -3.431  15.539  22.859  0.00  0.00    +0.000 A 
ATOM     31  C   UNL     1      -4.224  15.211  23.952  0.00  0.00    +0.000 A 
ATOM     32  C   UNL     1      -5.592  15.006  23.778  0.00  0.00    +0.000 A 
ATOM     33  C   UNL     1      -6.162  15.069  22.500  0.00  0.00    +0.000 A 
ENDBRANCH  20  28
ENDBRANCH  18  19
ENDBRANCH   3  18
TORSDOF 5
ENDMDL
MODEL 6
REMARK VINA RESULT:      -7.8      3.310      7.632
REMARK  Name = 
REMARK  5 active torsions:
REMARK  status: ('A' for Active; 'I' for Inactive)
REMARK    1  A    between atoms: C_7  and  C_8
REMARK    2  A    between atoms: C_8  and  N_9
REMARK    3  A    between atoms: N_11  and  C_12
REMARK    4  A    between atoms: C_12  and  C_13
REMARK    5  A    between atoms: C_14  and  C_15
REMARK                            x       y       z     vdW  Elec       q    Type
REMARK                         _______ _______ _______ _____ _____    ______ ____
ROOT
ATOM      1  N   UNL     1       1.903   7.997  20.251  0.00  0.00    +0.000 N 
ATOM      2  C   UNL     1       1.718   8.601  19.071  0.00  0.00    +0.000 A 
ATOM      3  N   UNL     1       0.704   9.457  19.192  0.00  0.00    +0.000 N 
ATOM      4  C   UNL     1       0.341   9.575  20.526  0.00  0.00    +0.000 A 
ATOM      5  C   UNL     1      -0.566  10.422  21.159  0.00  0.00    +0.000 A 
ATOM      6  C   UNL     1      -0.633  10.314  22.549  0.00  0.00    +0.000 A 
ATOM      7  C   UNL     1       0.174   9.401  23.258  0.00  0.00    +0.000 A 
ATOM      8  C   UNL     1       1.079   8.544  22.609  0.00  0.00    +0.000 A 
ATOM      9  C   UNL     1       1.139   8.654  21.221  0.00  0.00    +0.000 A 
ENDROOT
BRANCH   1  10
ATOM     10  C   UNL     1       2.801   6.855  20.425  0.00  0.00    +0.000 C 
BRANCH  10  17
ATOM     11 BR   UNL     1       3.970   6.051  17.398  0.00  0.00    +0.000 Br
ATOM     12  C   UNL     1       2.604   5.229  18.428  0.00  0.00    +0.000 A 
ATOM     13  C   UNL     1       1.996   4.116  17.831  0.00  0.00    +0.000 A 
ATOM     14  C   UNL     1       1.068   3.360  18.538  0.00  0.00    +0.000 A 
ATOM     15  C   UNL     1       0.746   3.708  19.844  0.00  0.00    +0.000 A 
ATOM     16  C   UNL     1       1.320   4.840  20.429  0.00  0.00    +0.000 A 
ATOM     17  C   UNL     1       2.245   5.638  19.726  0.00  0.00    +0.000 A 
ENDBRANCH  10  17
ENDBRANCH   1  10
BRANCH   3  18
ATOM     18  C   UNL     1       0.090  10.128  18.067  0.00  0.00    +0.000 C 
BRANCH  18  19
ATOM     19  C   UNL     1      -0.033  11.595  18.267  0.00  0.00    +0.000 A 
ATOM     20  C   UNL     1      -1.250  12.270  18.300  0.00  0.00    +0.000 A 
ATOM     21  O   UNL     1      -1.047  13.603  18.496  0.00  0.00    +0.000 OA
ATOM     22  C   UNL     1       0.297  13.800  18.605  0.00  0.00    +0.000 A 
ATOM     23  C   UNL     1       0.923  15.023  18.844  0.00  0.00    +0.000 A 
ATOM     24  C   UNL     1       2.321  15.021  18.909  0.00  0.00    +0.000 A 
ATOM     25  C   UNL     1       3.046  13.850  18.719  0.00  0.00    +0.000 A 
ATOM     26  C   UNL     1       2.390  12.639  18.475  0.00  0.00    +0.000 A 
ATOM     27  C   UNL     1       0.979  12.599  18.440  0.00  0.00    +0.000 A 
BRANCH  20  28
ATOM     28  C   UNL     1      -2.631  11.823  18.119  0.00  0.00    +0.000 A 
ATOM     29  C   UNL     1      -3.048  11.287  16.888  0.00  0.00    +0.000 A 
ATOM     30  C   UNL     1      -4.399  11.069  16.611  0.00  0.00    +0.000 A 
ATOM     31  C   UNL     1      -5.353  11.329  17.588  0.00  0.00    +0.000 A 
ATOM     32  C   UNL     1      -4.950  11.776  18.846  0.00  0.00    +0.000 A 
ATOM     33  C   UNL     1      -3.598  12.024  19.112  0.00  0.00    +0.000 A 
ENDBRANCH  20  28
ENDBRANCH  18  19
ENDBRANCH   3  18
TORSDOF 5
ENDMDL
MODEL 7
REMARK VINA RESULT:      -7.7      4.014      7.215
REMARK  Name = 
REMARK  5 active torsions:
REMARK  status: ('A' for Active; 'I' for Inactive)
REMARK    1  A    between atoms: C_7  and  C_8
REMARK    2  A    between atoms: C_8  and  N_9
REMARK    3  A    between atoms: N_11  and  C_12
REMARK    4  A    between atoms: C_12  and  C_13
REMARK    5  A    between atoms: C_14  and  C_15
REMARK                            x       y       z     vdW  Elec       q    Type
REMARK                         _______ _______ _______ _____ _____    ______ ____
ROOT
ATOM      1  N   UNL     1       0.310  12.210  19.885  0.00  0.00    +0.000 N 
ATOM      2  C   UNL     1       1.528  12.725  19.681  0.00  0.00    +0.000 A 
ATOM      3  N   UNL     1       1.663  13.802  20.452  0.00  0.00    +0.000 N 
ATOM      4  C   UNL     1       0.596  13.888  21.335  0.00  0.00    +0.000 A 
ATOM      5  C   UNL     1       0.352  14.753  22.400  0.00  0.00    +0.000 A 
ATOM      6  C   UNL     1      -0.812  14.509  23.131  0.00  0.00    +0.000 A 
ATOM      7  C   UNL     1      -1.679  13.447  22.802  0.00  0.00    +0.000 A 
ATOM      8  C   UNL     1      -1.429  12.586  21.720  0.00  0.00    +0.000 A 
ATOM      9  C   UNL     1      -0.268  12.837  20.992  0.00  0.00    +0.000 A 
ENDROOT
BRANCH   1  10
ATOM     10  C   UNL     1      -0.247  11.139  19.056  0.00  0.00    +0.000 C 
BRANCH  10  17
ATOM     11 BR   UNL     1      -0.158   9.211  21.786  0.00  0.00    +0.000 Br
ATOM     12  C   UNL     1       0.842   9.082  20.178  0.00  0.00    +0.000 A 
ATOM     13  C   UNL     1       1.750   8.018  20.125  0.00  0.00    +0.000 A 
ATOM     14  C   UNL     1       2.451   7.749  18.954  0.00  0.00    +0.000 A 
ATOM     15  C   UNL     1       2.244   8.539  17.831  0.00  0.00    +0.000 A 
ATOM     16  C   UNL     1       1.368   9.626  17.890  0.00  0.00    +0.000 A 
ATOM     17  C   UNL     1       0.664   9.935  19.071  0.00  0.00    +0.000 A 
ENDBRANCH  10  17
ENDBRANCH   1  10
BRANCH   3  18
ATOM     18  C   UNL     1       2.767  14.731  20.339  0.00  0.00    +0.000 C 
BRANCH  18  19
ATOM     19  C   UNL     1       2.574  15.728  19.255  0.00  0.00    +0.000 A 
ATOM     20  C   UNL     1       3.605  16.200  18.448  0.00  0.00    +0.000 A 
ATOM     21  O   UNL     1       3.127  17.103  17.548  0.00  0.00    +0.000 OA
ATOM     22  C   UNL     1       1.784  17.214  17.754  0.00  0.00    +0.000 A 
ATOM     23  C   UNL     1       0.912  18.015  17.018  0.00  0.00    +0.000 A 
ATOM     24  C   UNL     1      -0.436  18.001  17.394  0.00  0.00    +0.000 A 
ATOM     25  C   UNL     1      -0.872  17.238  18.471  0.00  0.00    +0.000 A 
ATOM     26  C   UNL     1       0.028  16.449  19.195  0.00  0.00    +0.000 A 
ATOM     27  C   UNL     1       1.389  16.411  18.819  0.00  0.00    +0.000 A 
BRANCH  20  28
ATOM     28  C   UNL     1       5.046  15.942  18.437  0.00  0.00    +0.000 A 
ATOM     29  C   UNL     1       5.946  16.925  18.884  0.00  0.00    +0.000 A 
ATOM     30  C   UNL     1       7.320  16.802  18.672  0.00  0.00    +0.000 A 
ATOM     31  C   UNL     1       7.822  15.660  18.060  0.00  0.00    +0.000 A 
ATOM     32  C   UNL     1       6.953  14.634  17.691  0.00  0.00    +0.000 A 
ATOM     33  C   UNL     1       5.572  14.773  17.876  0.00  0.00    +0.000 A 
ENDBRANCH  20  28
ENDBRANCH  18  19
ENDBRANCH   3  18
TORSDOF 5
ENDMDL
MODEL 8
REMARK VINA RESULT:      -7.6      7.626     12.242
REMARK  Name = 
REMARK  5 active torsions:
REMARK  status: ('A' for Active; 'I' for Inactive)
REMARK    1  A    between atoms: C_7  and  C_8
REMARK    2  A    between atoms: C_8  and  N_9
REMARK    3  A    between atoms: N_11  and  C_12
REMARK    4  A    between atoms: C_12  and  C_13
REMARK    5  A    between atoms: C_14  and  C_15
REMARK                            x       y       z     vdW  Elec       q    Type
REMARK                         _______ _______ _______ _____ _____    ______ ____
ROOT
ATOM      1  N   UNL     1       9.043  13.175  22.123  0.00  0.00    +0.000 N 
ATOM      2  C   UNL     1       8.634  14.358  21.649  0.00  0.00    +0.000 A 
ATOM      3  N   UNL     1       7.378  14.558  22.044  0.00  0.00    +0.000 N 
ATOM      4  C   UNL     1       7.013  13.588  22.967  0.00  0.00    +0.000 A 
ATOM      5  C   UNL     1       5.865  13.446  23.745  0.00  0.00    +0.000 A 
ATOM      6  C   UNL     1       5.859  12.369  24.633  0.00  0.00    +0.000 A 
ATOM      7  C   UNL     1       6.955  11.487  24.728  0.00  0.00    +0.000 A 
ATOM      8  C   UNL     1       8.104  11.633  23.933  0.00  0.00    +0.000 A 
ATOM      9  C   UNL     1       8.103  12.708  23.047  0.00  0.00    +0.000 A 
ENDROOT
BRANCH   1  10
ATOM     10  C   UNL     1      10.302  12.549  21.715  0.00  0.00    +0.000 C 
BRANCH  10  17
ATOM     11 BR   UNL     1      12.318  13.721  19.320  0.00  0.00    +0.000 Br
ATOM     12  C   UNL     1      10.923  12.439  19.209  0.00  0.00    +0.000 A 
ATOM     13  C   UNL     1      10.707  11.901  17.934  0.00  0.00    +0.000 A 
ATOM     14  C   UNL     1       9.795  10.867  17.753  0.00  0.00    +0.000 A 
ATOM     15  C   UNL     1       9.098  10.364  18.844  0.00  0.00    +0.000 A 
ATOM     16  C   UNL     1       9.280  10.924  20.111  0.00  0.00    +0.000 A 
ATOM     17  C   UNL     1      10.180  11.989  20.318  0.00  0.00    +0.000 A 
ENDBRANCH  10  17
ENDBRANCH   1  10
BRANCH   3  18
ATOM     18  C   UNL     1       6.546  15.630  21.544  0.00  0.00    +0.000 C 
BRANCH  18  19
ATOM     19  C   UNL     1       5.767  15.243  20.340  0.00  0.00    +0.000 A 
ATOM     20  C   UNL     1       6.225  15.416  19.036  0.00  0.00    +0.000 A 
ATOM     21  O   UNL     1       5.296  14.971  18.145  0.00  0.00    +0.000 OA
ATOM     22  C   UNL     1       4.238  14.495  18.861  0.00  0.00    +0.000 A 
ATOM     23  C   UNL     1       3.087  13.918  18.325  0.00  0.00    +0.000 A 
ATOM     24  C   UNL     1       2.104  13.501  19.229  0.00  0.00    +0.000 A 
ATOM     25  C   UNL     1       2.266  13.679  20.598  0.00  0.00    +0.000 A 
ATOM     26  C   UNL     1       3.430  14.267  21.106  0.00  0.00    +0.000 A 
ATOM     27  C   UNL     1       4.458  14.666  20.224  0.00  0.00    +0.000 A 
BRANCH  20  28
ATOM     28  C   UNL     1       7.446  16.010  18.490  0.00  0.00    +0.000 A 
ATOM     29  C   UNL     1       8.477  15.189  18.002  0.00  0.00    +0.000 A 
ATOM     30  C   UNL     1       9.734  15.709  17.693  0.00  0.00    +0.000 A 
ATOM     31  C   UNL     1       9.963  17.074  17.812  0.00  0.00    +0.000 A 
ATOM     32  C   UNL     1       8.925  17.917  18.209  0.00  0.00    +0.000 A 
ATOM     33  C   UNL     1       7.673  17.390  18.549  0.00  0.00    +0.000 A 
ENDBRANCH  20  28
ENDBRANCH  18  19
ENDBRANCH   3  18
TORSDOF 5
ENDMDL
MODEL 9
REMARK VINA RESULT:      -7.5      4.199      7.594
REMARK  Name = 
REMARK  5 active torsions:
REMARK  status: ('A' for Active; 'I' for Inactive)
REMARK    1  A    between atoms: C_7  and  C_8
REMARK    2  A    between atoms: C_8  and  N_9
REMARK    3  A    between atoms: N_11  and  C_12
REMARK    4  A    between atoms: C_12  and  C_13
REMARK    5  A    between atoms: C_14  and  C_15
REMARK                            x       y       z     vdW  Elec       q    Type
REMARK                         _______ _______ _______ _____ _____    ______ ____
ROOT
ATOM      1  N   UNL     1       1.944   9.827  18.464  0.00  0.00    +0.000 N 
ATOM      2  C   UNL     1       2.217   8.861  17.579  0.00  0.00    +0.000 A 
ATOM      3  N   UNL     1       2.207   7.692  18.217  0.00  0.00    +0.000 N 
ATOM      4  C   UNL     1       1.718   7.860  19.505  0.00  0.00    +0.000 A 
ATOM      5  C   UNL     1       1.409   6.933  20.498  0.00  0.00    +0.000 A 
ATOM      6  C   UNL     1       0.864   7.456  21.673  0.00  0.00    +0.000 A 
ATOM      7  C   UNL     1       0.644   8.839  21.831  0.00  0.00    +0.000 A 
ATOM      8  C   UNL     1       0.968   9.767  20.826  0.00  0.00    +0.000 A 
ATOM      9  C   UNL     1       1.514   9.240  19.658  0.00  0.00    +0.000 A 
ENDROOT
BRANCH   1  10
ATOM     10  C   UNL     1       2.069  11.251  18.148  0.00  0.00    +0.000 C 
BRANCH  10  17
ATOM     11 BR   UNL     1       2.672  13.759  20.275  0.00  0.00    +0.000 Br
ATOM     12  C   UNL     1       1.017  13.053  19.671  0.00  0.00    +0.000 A 
ATOM     13  C   UNL     1      -0.123  13.678  20.192  0.00  0.00    +0.000 A 
ATOM     14  C   UNL     1      -1.388  13.329  19.732  0.00  0.00    +0.000 A 
ATOM     15  C   UNL     1      -1.519  12.358  18.748  0.00  0.00    +0.000 A 
ATOM     16  C   UNL     1      -0.388  11.703  18.254  0.00  0.00    +0.000 A 
ATOM     17  C   UNL     1       0.903  12.020  18.720  0.00  0.00    +0.000 A 
ENDBRANCH  10  17
ENDBRANCH   1  10
BRANCH   3  18
ATOM     18  C   UNL     1       2.666   6.455  17.623  0.00  0.00    +0.000 C 
BRANCH  18  19
ATOM     19  C   UNL     1       3.941   5.971  18.210  0.00  0.00    +0.000 A 
ATOM     20  C   UNL     1       4.027   4.891  19.085  0.00  0.00    +0.000 A 
ATOM     21  O   UNL     1       5.321   4.684  19.456  0.00  0.00    +0.000 OA
ATOM     22  C   UNL     1       6.084   5.615  18.817  0.00  0.00    +0.000 A 
ATOM     23  C   UNL     1       7.471   5.727  18.902  0.00  0.00    +0.000 A 
ATOM     24  C   UNL     1       8.071   6.762  18.177  0.00  0.00    +0.000 A 
ATOM     25  C   UNL     1       7.308   7.651  17.428  0.00  0.00    +0.000 A 
ATOM     26  C   UNL     1       5.917   7.517  17.367  0.00  0.00    +0.000 A 
ATOM     27  C   UNL     1       5.282   6.460  18.057  0.00  0.00    +0.000 A 
BRANCH  20  28
ATOM     28  C   UNL     1       3.012   4.020  19.680  0.00  0.00    +0.000 A 
ATOM     29  C   UNL     1       1.962   3.515  18.894  0.00  0.00    +0.000 A 
ATOM     30  C   UNL     1       0.862   2.880  19.474  0.00  0.00    +0.000 A 
ATOM     31  C   UNL     1       0.824   2.688  20.850  0.00  0.00    +0.000 A 
ATOM     32  C   UNL     1       1.899   3.103  21.636  0.00  0.00    +0.000 A 
ATOM     33  C   UNL     1       2.987   3.767  21.056  0.00  0.00    +0.000 A 
ENDBRANCH  20  28
ENDBRANCH  18  19
ENDBRANCH   3  18
TORSDOF 5
ENDMDL
