MODEL 1
REMARK VINA RESULT:      -9.2      0.000      0.000
REMARK  Name = 
REMARK  7 active torsions:
REMARK  status: ('A' for Active; 'I' for Inactive)
REMARK    1  A    between atoms: C_1  and  O_2
REMARK    2  A    between atoms: O_2  and  C_3
REMARK    3  A    between atoms: C_5  and  N_6
REMARK    4  A    between atoms: N_9  and  C_10
REMARK    5  A    between atoms: N_13  and  C_14
REMARK    6  A    between atoms: C_19  and  C_20
REMARK    7  A    between atoms: C_22  and  C_23
REMARK                            x       y       z     vdW  Elec       q    Type
REMARK                         _______ _______ _______ _____ _____    ______ ____
ROOT
ATOM      1  N   UNL     1       2.512   7.438  18.817  0.00  0.00    +0.000 N 
ATOM      2  C   UNL     1       1.972   7.378  20.180  0.00  0.00    +0.000 C 
ATOM      3  C   UNL     1       1.793   8.837  20.717  0.00  0.00    +0.000 C 
ATOM      4  N   UNL     1       1.097   9.814  19.837  0.00  0.00    +0.000 NA
ATOM      5  C   UNL     1       1.569   9.681  18.457  0.00  0.00    +0.000 C 
ATOM      6  C   UNL     1       1.681   8.246  17.918  0.00  0.00    +0.000 C 
ENDROOT
BRANCH   1   9
ATOM      7  C   UNL     1       2.116   3.977  17.742  0.00  0.00    +0.000 A 
ATOM      8  C   UNL     1       1.930   5.245  18.250  0.00  0.00    +0.000 A 
ATOM      9  C   UNL     1       2.898   6.263  18.137  0.00  0.00    +0.000 A 
ATOM     10  C   UNL     1       4.131   5.999  17.500  0.00  0.00    +0.000 A 
ATOM     11  N   UNL     1       5.138   6.909  17.415  0.00  0.00    +0.000 NA
ATOM     12  C   UNL     1       6.299   6.552  16.817  0.00  0.00    +0.000 A 
ATOM     13  C   UNL     1       6.537   5.313  16.267  0.00  0.00    +0.000 A 
ATOM     14  C   UNL     1       5.523   4.370  16.355  0.00  0.00    +0.000 A 
ATOM     15  C   UNL     1       4.313   4.689  16.978  0.00  0.00    +0.000 A 
ATOM     16  C   UNL     1       3.319   3.701  17.112  0.00  0.00    +0.000 A 
BRANCH   7  18
ATOM     17  C   UNL     1       1.069   2.431  19.167  0.00  0.00    +0.000 C 
ATOM     18  O   UNL     1       1.199   2.971  17.849  0.00  0.00    +0.000 OA
ENDBRANCH   7  18
ENDBRANCH   1   9
BRANCH   4  19
ATOM     19  C   UNL     1      -0.350   9.964  20.080  0.00  0.00    +0.000 C 
ATOM     20  C   UNL     1      -1.019  11.258  19.610  0.00  0.00    +0.000 C 
ATOM     21  C   UNL     1      -0.952  12.384  20.622  0.00  0.00    +0.000 C 
ATOM     22  N   UNL     1      -1.540  11.931  21.856  0.00  0.00    +0.000 N 
ATOM     23  C   UNL     1      -0.898  10.784  22.506  0.00  0.00    +0.000 C 
ATOM     24  C   UNL     1      -0.812   9.610  21.520  0.00  0.00    +0.000 C 
BRANCH  22  25
ATOM     25  C   UNL     1      -2.099  12.920  22.686  0.00  0.00    +0.000 A 
ATOM     26  C   UNL     1      -1.290  13.720  23.516  0.00  0.00    +0.000 A 
ATOM     27  C   UNL     1      -1.822  14.798  24.207  0.00  0.00    +0.000 A 
ATOM     28  C   UNL     1      -3.182  15.067  24.107  0.00  0.00    +0.000 A 
ATOM     29  C   UNL     1      -4.037  14.265  23.311  0.00  0.00    +0.000 A 
ATOM     30  C   UNL     1      -5.429  14.481  23.155  0.00  0.00    +0.000 A 
ATOM     31  C   UNL     1      -6.205  15.521  23.914  0.00  0.00    +0.000 C 
ATOM     32  C   UNL     1      -6.155  13.685  22.253  0.00  0.00    +0.000 A 
ATOM     33  C   UNL     1      -5.504  12.684  21.559  0.00  0.00    +0.000 A 
ATOM     34  C   UNL     1      -6.169  11.838  20.523  0.00  0.00    +0.000 C 
ATOM     35  N   UNL     1      -4.201  12.438  21.740  0.00  0.00    +0.000 NA
ATOM     36  C   UNL     1      -3.474  13.188  22.584  0.00  0.00    +0.000 A 
ENDBRANCH  22  25
ENDBRANCH   4  19
TORSDOF 4
ENDMDL
MODEL 2
REMARK VINA RESULT:      -8.7      1.165      2.515
REMARK  Name = 
REMARK  7 active torsions:
REMARK  status: ('A' for Active; 'I' for Inactive)
REMARK    1  A    between atoms: C_1  and  O_2
REMARK    2  A    between atoms: O_2  and  C_3
REMARK    3  A    between atoms: C_5  and  N_6
REMARK    4  A    between atoms: N_9  and  C_10
REMARK    5  A    between atoms: N_13  and  C_14
REMARK    6  A    between atoms: C_19  and  C_20
REMARK    7  A    between atoms: C_22  and  C_23
REMARK                            x       y       z     vdW  Elec       q    Type
REMARK                         _______ _______ _______ _____ _____    ______ ____
ROOT
ATOM      1  N   UNL     1       2.582   7.326  19.007  0.00  0.00    +0.000 N 
ATOM      2  C   UNL     1       2.051   7.349  20.375  0.00  0.00    +0.000 C 
ATOM      3  C   UNL     1       1.838   8.837  20.810  0.00  0.00    +0.000 C 
ATOM      4  N   UNL     1       1.110   9.731  19.869  0.00  0.00    +0.000 NA
ATOM      5  C   UNL     1       1.577   9.514  18.498  0.00  0.00    +0.000 C 
ATOM      6  C   UNL     1       1.724   8.047  18.060  0.00  0.00    +0.000 C 
ENDROOT
BRANCH   1   9
ATOM      7  C   UNL     1       4.553   5.298  16.706  0.00  0.00    +0.000 A 
ATOM      8  C   UNL     1       4.038   6.315  17.482  0.00  0.00    +0.000 A 
ATOM      9  C   UNL     1       2.994   6.117  18.408  0.00  0.00    +0.000 A 
ATOM     10  C   UNL     1       2.415   4.837  18.558  0.00  0.00    +0.000 A 
ATOM     11  N   UNL     1       1.361   4.585  19.379  0.00  0.00    +0.000 NA
ATOM     12  C   UNL     1       0.849   3.333  19.428  0.00  0.00    +0.000 A 
ATOM     13  C   UNL     1       1.334   2.269  18.702  0.00  0.00    +0.000 A 
ATOM     14  C   UNL     1       2.403   2.513  17.851  0.00  0.00    +0.000 A 
ATOM     15  C   UNL     1       2.954   3.794  17.756  0.00  0.00    +0.000 A 
ATOM     16  C   UNL     1       3.998   4.035  16.842  0.00  0.00    +0.000 A 
BRANCH   7  18
ATOM     17  C   UNL     1       6.564   4.453  15.837  0.00  0.00    +0.000 C 
ATOM     18  O   UNL     1       5.555   5.467  15.795  0.00  0.00    +0.000 OA
ENDBRANCH   7  18
ENDBRANCH   1   9
BRANCH   4  19
ATOM     19  C   UNL     1      -0.339   9.860  20.113  0.00  0.00    +0.000 C 
ATOM     20  C   UNL     1      -1.030  11.136  19.626  0.00  0.00    +0.000 C 
ATOM     21  C   UNL     1      -0.980  12.277  20.623  0.00  0.00    +0.000 C 
ATOM     22  N   UNL     1      -1.559  11.831  21.864  0.00  0.00    +0.000 N 
ATOM     23  C   UNL     1      -0.897  10.703  22.528  0.00  0.00    +0.000 C 
ATOM     24  C   UNL     1      -0.792   9.518  21.558  0.00  0.00    +0.000 C 
BRANCH  22  25
ATOM     25  C   UNL     1      -2.133  12.821  22.681  0.00  0.00    +0.000 A 
ATOM     26  C   UNL     1      -1.341  13.615  23.533  0.00  0.00    +0.000 A 
ATOM     27  C   UNL     1      -1.884  14.695  24.212  0.00  0.00    +0.000 A 
ATOM     28  C   UNL     1      -3.240  14.971  24.079  0.00  0.00    +0.000 A 
ATOM     29  C   UNL     1      -4.079  14.175  23.260  0.00  0.00    +0.000 A 
ATOM     30  C   UNL     1      -5.465  14.400  23.069  0.00  0.00    +0.000 A 
ATOM     31  C   UNL     1      -6.255  15.442  23.810  0.00  0.00    +0.000 C 
ATOM     32  C   UNL     1      -6.173  13.609  22.147  0.00  0.00    +0.000 A 
ATOM     33  C   UNL     1      -5.510  12.605  21.469  0.00  0.00    +0.000 A 
ATOM     34  C   UNL     1      -6.154  11.765  20.414  0.00  0.00    +0.000 C 
ATOM     35  N   UNL     1      -4.214  12.352  21.682  0.00  0.00    +0.000 NA
ATOM     36  C   UNL     1      -3.504  13.097  22.545  0.00  0.00    +0.000 A 
ENDBRANCH  22  25
ENDBRANCH   4  19
TORSDOF 4
ENDMDL
MODEL 3
REMARK VINA RESULT:      -8.6      1.434      1.465
REMARK  Name = 
REMARK  7 active torsions:
REMARK  status: ('A' for Active; 'I' for Inactive)
REMARK    1  A    between atoms: C_1  and  O_2
REMARK    2  A    between atoms: O_2  and  C_3
REMARK    3  A    between atoms: C_5  and  N_6
REMARK    4  A    between atoms: N_9  and  C_10
REMARK    5  A    between atoms: N_13  and  C_14
REMARK    6  A    between atoms: C_19  and  C_20
REMARK    7  A    between atoms: C_22  and  C_23
REMARK                            x       y       z     vdW  Elec       q    Type
REMARK                         _______ _______ _______ _____ _____    ______ ____
ROOT
ATOM      1  N   UNL     1       2.558   7.370  18.789  0.00  0.00    +0.000 N 
ATOM      2  C   UNL     1       1.872   7.291  20.084  0.00  0.00    +0.000 C 
ATOM      3  C   UNL     1       1.662   8.742  20.633  0.00  0.00    +0.000 C 
ATOM      4  N   UNL     1       1.081   9.751  19.707  0.00  0.00    +0.000 NA
ATOM      5  C   UNL     1       1.697   9.639  18.383  0.00  0.00    +0.000 C 
ATOM      6  C   UNL     1       1.842   8.214  17.825  0.00  0.00    +0.000 C 
ENDROOT
BRANCH   1   9
ATOM      7  C   UNL     1       2.292   3.891  17.732  0.00  0.00    +0.000 A 
ATOM      8  C   UNL     1       2.056   5.157  18.225  0.00  0.00    +0.000 A 
ATOM      9  C   UNL     1       2.995   6.203  18.126  0.00  0.00    +0.000 A 
ATOM     10  C   UNL     1       4.250   5.973  17.519  0.00  0.00    +0.000 A 
ATOM     11  N   UNL     1       5.230   6.913  17.450  0.00  0.00    +0.000 NA
ATOM     12  C   UNL     1       6.414   6.588  16.881  0.00  0.00    +0.000 A 
ATOM     13  C   UNL     1       6.703   5.353  16.346  0.00  0.00    +0.000 A 
ATOM     14  C   UNL     1       5.716   4.380  16.419  0.00  0.00    +0.000 A 
ATOM     15  C   UNL     1       4.483   4.666  17.011  0.00  0.00    +0.000 A 
ATOM     16  C   UNL     1       3.517   3.648  17.130  0.00  0.00    +0.000 A 
BRANCH   7  18
ATOM     17  C   UNL     1       1.429   2.173  19.081  0.00  0.00    +0.000 C 
ATOM     18  O   UNL     1       1.404   2.858  17.825  0.00  0.00    +0.000 OA
ENDBRANCH   7  18
ENDBRANCH   1   9
BRANCH   4  19
ATOM     19  C   UNL     1      -0.381   9.924  19.797  0.00  0.00    +0.000 C 
ATOM     20  C   UNL     1      -1.054  10.831  18.764  0.00  0.00    +0.000 C 
ATOM     21  C   UNL     1      -1.074  12.295  19.156  0.00  0.00    +0.000 C 
ATOM     22  N   UNL     1      -1.721  12.420  20.437  0.00  0.00    +0.000 N 
ATOM     23  C   UNL     1      -1.090  11.723  21.562  0.00  0.00    +0.000 C 
ATOM     24  C   UNL     1      -0.916  10.237  21.221  0.00  0.00    +0.000 C 
BRANCH  22  25
ATOM     25  C   UNL     1      -2.353  13.649  20.704  0.00  0.00    +0.000 A 
ATOM     26  C   UNL     1      -1.608  14.834  20.860  0.00  0.00    +0.000 A 
ATOM     27  C   UNL     1      -2.238  16.065  20.959  0.00  0.00    +0.000 A 
ATOM     28  C   UNL     1      -3.627  16.122  20.945  0.00  0.00    +0.000 A 
ATOM     29  C   UNL     1      -4.413  14.950  20.826  0.00  0.00    +0.000 A 
ATOM     30  C   UNL     1      -5.830  14.931  20.796  0.00  0.00    +0.000 A 
ATOM     31  C   UNL     1      -6.689  16.145  21.011  0.00  0.00    +0.000 C 
ATOM     32  C   UNL     1      -6.500  13.716  20.565  0.00  0.00    +0.000 A 
ATOM     33  C   UNL     1      -5.765  12.559  20.405  0.00  0.00    +0.000 A 
ATOM     34  C   UNL     1      -6.378  11.236  20.078  0.00  0.00    +0.000 C 
ATOM     35  N   UNL     1      -4.429  12.559  20.484  0.00  0.00    +0.000 NA
ATOM     36  C   UNL     1      -3.756  13.704  20.690  0.00  0.00    +0.000 A 
ENDBRANCH  22  25
ENDBRANCH   4  19
TORSDOF 4
ENDMDL
MODEL 4
REMARK VINA RESULT:      -8.4      2.113      3.963
REMARK  Name = 
REMARK  7 active torsions:
REMARK  status: ('A' for Active; 'I' for Inactive)
REMARK    1  A    between atoms: C_1  and  O_2
REMARK    2  A    between atoms: O_2  and  C_3
REMARK    3  A    between atoms: C_5  and  N_6
REMARK    4  A    between atoms: N_9  and  C_10
REMARK    5  A    between atoms: N_13  and  C_14
REMARK    6  A    between atoms: C_19  and  C_20
REMARK    7  A    between atoms: C_22  and  C_23
REMARK                            x       y       z     vdW  Elec       q    Type
REMARK                         _______ _______ _______ _____ _____    ______ ____
ROOT
ATOM      1  N   UNL     1       2.144   7.520  18.375  0.00  0.00    +0.000 N 
ATOM      2  C   UNL     1       2.125   8.885  17.837  0.00  0.00    +0.000 C 
ATOM      3  C   UNL     1       0.813   9.595  18.310  0.00  0.00    +0.000 C 
ATOM      4  N   UNL     1       0.469   9.515  19.755  0.00  0.00    +0.000 NA
ATOM      5  C   UNL     1       0.690   8.156  20.255  0.00  0.00    +0.000 C 
ATOM      6  C   UNL     1       2.010   7.490  19.836  0.00  0.00    +0.000 C 
ENDROOT
BRANCH   1   9
ATOM      7  C   UNL     1       5.398   6.576  17.028  0.00  0.00    +0.000 A 
ATOM      8  C   UNL     1       4.310   7.256  17.533  0.00  0.00    +0.000 A 
ATOM      9  C   UNL     1       3.150   6.605  17.998  0.00  0.00    +0.000 A 
ATOM     10  C   UNL     1       3.059   5.196  17.938  0.00  0.00    +0.000 A 
ATOM     11  N   UNL     1       1.946   4.503  18.303  0.00  0.00    +0.000 NA
ATOM     12  C   UNL     1       1.939   3.156  18.176  0.00  0.00    +0.000 A 
ATOM     13  C   UNL     1       3.000   2.417  17.706  0.00  0.00    +0.000 A 
ATOM     14  C   UNL     1       4.139   3.110  17.320  0.00  0.00    +0.000 A 
ATOM     15  C   UNL     1       4.186   4.503  17.418  0.00  0.00    +0.000 A 
ATOM     16  C   UNL     1       5.327   5.193  16.965  0.00  0.00    +0.000 A 
BRANCH   7  18
ATOM     17  C   UNL     1       7.499   7.473  17.572  0.00  0.00    +0.000 C 
ATOM     18  O   UNL     1       6.528   7.185  16.562  0.00  0.00    +0.000 OA
ENDBRANCH   7  18
ENDBRANCH   1   9
BRANCH   4  19
ATOM     19  C   UNL     1       0.919  10.655  20.576  0.00  0.00    +0.000 C 
ATOM     20  C   UNL     1       0.774  10.537  22.095  0.00  0.00    +0.000 C 
ATOM     21  C   UNL     1      -0.580  10.976  22.616  0.00  0.00    +0.000 C 
ATOM     22  N   UNL     1      -0.822  12.330  22.188  0.00  0.00    +0.000 N 
ATOM     23  C   UNL     1      -0.867  12.563  20.741  0.00  0.00    +0.000 C 
ATOM     24  C   UNL     1       0.425  12.045  20.092  0.00  0.00    +0.000 C 
BRANCH  22  25
ATOM     25  C   UNL     1      -1.676  13.101  22.998  0.00  0.00    +0.000 A 
ATOM     26  C   UNL     1      -2.862  12.560  23.532  0.00  0.00    +0.000 A 
ATOM     27  C   UNL     1      -3.615  13.265  24.458  0.00  0.00    +0.000 A 
ATOM     28  C   UNL     1      -3.211  14.542  24.833  0.00  0.00    +0.000 A 
ATOM     29  C   UNL     1      -2.044  15.136  24.293  0.00  0.00    +0.000 A 
ATOM     30  C   UNL     1      -1.567  16.427  24.633  0.00  0.00    +0.000 A 
ATOM     31  C   UNL     1      -2.307  17.386  25.522  0.00  0.00    +0.000 C 
ATOM     32  C   UNL     1      -0.337  16.868  24.113  0.00  0.00    +0.000 A 
ATOM     33  C   UNL     1       0.367  16.047  23.254  0.00  0.00    +0.000 A 
ATOM     34  C   UNL     1       1.716  16.392  22.714  0.00  0.00    +0.000 C 
ATOM     35  N   UNL     1      -0.102  14.849  22.887  0.00  0.00    +0.000 NA
ATOM     36  C   UNL     1      -1.267  14.391  23.374  0.00  0.00    +0.000 A 
ENDBRANCH  22  25
ENDBRANCH   4  19
TORSDOF 4
ENDMDL
MODEL 5
REMARK VINA RESULT:      -8.3      1.877      2.901
REMARK  Name = 
REMARK  7 active torsions:
REMARK  status: ('A' for Active; 'I' for Inactive)
REMARK    1  A    between atoms: C_1  and  O_2
REMARK    2  A    between atoms: O_2  and  C_3
REMARK    3  A    between atoms: C_5  and  N_6
REMARK    4  A    between atoms: N_9  and  C_10
REMARK    5  A    between atoms: N_13  and  C_14
REMARK    6  A    between atoms: C_19  and  C_20
REMARK    7  A    between atoms: C_22  and  C_23
REMARK                            x       y       z     vdW  Elec       q    Type
REMARK                         _______ _______ _______ _____ _____    ______ ____
ROOT
ATOM      1  N   UNL     1       2.653   7.383  18.869  0.00  0.00    +0.000 N 
ATOM      2  C   UNL     1       1.922   7.384  20.141  0.00  0.00    +0.000 C 
ATOM      3  C   UNL     1       1.671   8.865  20.577  0.00  0.00    +0.000 C 
ATOM      4  N   UNL     1       1.111   9.797  19.562  0.00  0.00    +0.000 NA
ATOM      5  C   UNL     1       1.776   9.602  18.272  0.00  0.00    +0.000 C 
ATOM      6  C   UNL     1       1.962   8.144  17.822  0.00  0.00    +0.000 C 
ENDROOT
BRANCH   1   9
ATOM      7  C   UNL     1       4.785   5.389  16.684  0.00  0.00    +0.000 A 
ATOM      8  C   UNL     1       4.205   6.400  17.421  0.00  0.00    +0.000 A 
ATOM      9  C   UNL     1       3.131   6.179  18.306  0.00  0.00    +0.000 A 
ATOM     10  C   UNL     1       2.589   4.882  18.452  0.00  0.00    +0.000 A 
ATOM     11  N   UNL     1       1.510   4.607  19.233  0.00  0.00    +0.000 NA
ATOM     12  C   UNL     1       1.040   3.339  19.282  0.00  0.00    +0.000 A 
ATOM     13  C   UNL     1       1.590   2.282  18.593  0.00  0.00    +0.000 A 
ATOM     14  C   UNL     1       2.685   2.549  17.783  0.00  0.00    +0.000 A 
ATOM     15  C   UNL     1       3.195   3.847  17.690  0.00  0.00    +0.000 A 
ATOM     16  C   UNL     1       4.268   4.110  16.817  0.00  0.00    +0.000 A 
BRANCH   7  18
ATOM     17  C   UNL     1       6.676   4.443  15.661  0.00  0.00    +0.000 C 
ATOM     18  O   UNL     1       5.819   5.579  15.812  0.00  0.00    +0.000 OA
ENDBRANCH   7  18
ENDBRANCH   1   9
BRANCH   4  19
ATOM     19  C   UNL     1      -0.357   9.951  19.587  0.00  0.00    +0.000 C 
ATOM     20  C   UNL     1      -0.985  10.933  18.595  0.00  0.00    +0.000 C 
ATOM     21  C   UNL     1      -1.042  12.360  19.101  0.00  0.00    +0.000 C 
ATOM     22  N   UNL     1      -1.758  12.378  20.351  0.00  0.00    +0.000 N 
ATOM     23  C   UNL     1      -1.178  11.599  21.449  0.00  0.00    +0.000 C 
ATOM     24  C   UNL     1      -0.970  10.145  21.001  0.00  0.00    +0.000 C 
BRANCH  22  25
ATOM     25  C   UNL     1      -2.416  13.577  20.680  0.00  0.00    +0.000 A 
ATOM     26  C   UNL     1      -1.696  14.754  20.958  0.00  0.00    +0.000 A 
ATOM     27  C   UNL     1      -2.345  15.968  21.121  0.00  0.00    +0.000 A 
ATOM     28  C   UNL     1      -3.733  16.012  21.048  0.00  0.00    +0.000 A 
ATOM     29  C   UNL     1      -4.497  14.844  20.807  0.00  0.00    +0.000 A 
ATOM     30  C   UNL     1      -5.912  14.813  20.711  0.00  0.00    +0.000 A 
ATOM     31  C   UNL     1      -6.796  16.000  20.978  0.00  0.00    +0.000 C 
ATOM     32  C   UNL     1      -6.554  13.613  20.360  0.00  0.00    +0.000 A 
ATOM     33  C   UNL     1      -5.797  12.478  20.147  0.00  0.00    +0.000 A 
ATOM     34  C   UNL     1      -6.378  11.178  19.695  0.00  0.00    +0.000 C 
ATOM     35  N   UNL     1      -4.467  12.486  20.286  0.00  0.00    +0.000 NA
ATOM     36  C   UNL     1      -3.819  13.618  20.608  0.00  0.00    +0.000 A 
ENDBRANCH  22  25
ENDBRANCH   4  19
TORSDOF 4
ENDMDL
MODEL 6
REMARK VINA RESULT:      -8.2      1.413      2.606
REMARK  Name = 
REMARK  7 active torsions:
REMARK  status: ('A' for Active; 'I' for Inactive)
REMARK    1  A    between atoms: C_1  and  O_2
REMARK    2  A    between atoms: O_2  and  C_3
REMARK    3  A    between atoms: C_5  and  N_6
REMARK    4  A    between atoms: N_9  and  C_10
REMARK    5  A    between atoms: N_13  and  C_14
REMARK    6  A    between atoms: C_19  and  C_20
REMARK    7  A    between atoms: C_22  and  C_23
REMARK                            x       y       z     vdW  Elec       q    Type
REMARK                         _______ _______ _______ _____ _____    ______ ____
ROOT
ATOM      1  N   UNL     1       2.585   7.203  18.966  0.00  0.00    +0.000 N 
ATOM      2  C   UNL     1       2.050   7.051  20.324  0.00  0.00    +0.000 C 
ATOM      3  C   UNL     1       1.833   8.471  20.943  0.00  0.00    +0.000 C 
ATOM      4  N   UNL     1       1.108   9.477  20.122  0.00  0.00    +0.000 NA
ATOM      5  C   UNL     1       1.579   9.436  18.736  0.00  0.00    +0.000 C 
ATOM      6  C   UNL     1       1.729   8.038  18.115  0.00  0.00    +0.000 C 
ENDROOT
BRANCH   1   9
ATOM      7  C   UNL     1       2.309   3.781  17.740  0.00  0.00    +0.000 A 
ATOM      8  C   UNL     1       2.083   5.014  18.312  0.00  0.00    +0.000 A 
ATOM      9  C   UNL     1       3.001   6.080  18.219  0.00  0.00    +0.000 A 
ATOM     10  C   UNL     1       4.224   5.903  17.534  0.00  0.00    +0.000 A 
ATOM     11  N   UNL     1       5.186   6.861  17.462  0.00  0.00    +0.000 NA
ATOM     12  C   UNL     1       6.341   6.586  16.813  0.00  0.00    +0.000 A 
ATOM     13  C   UNL     1       6.617   5.386  16.198  0.00  0.00    +0.000 A 
ATOM     14  C   UNL     1       5.649   4.394  16.272  0.00  0.00    +0.000 A 
ATOM     15  C   UNL     1       4.447   4.628  16.945  0.00  0.00    +0.000 A 
ATOM     16  C   UNL     1       3.503   3.590  17.061  0.00  0.00    +0.000 A 
BRANCH   7  18
ATOM     17  C   UNL     1       1.060   2.390  19.161  0.00  0.00    +0.000 C 
ATOM     18  O   UNL     1       1.442   2.730  17.825  0.00  0.00    +0.000 OA
ENDBRANCH   7  18
ENDBRANCH   1   9
BRANCH   4  19
ATOM     19  C   UNL     1      -0.343   9.573  20.376  0.00  0.00    +0.000 C 
ATOM     20  C   UNL     1      -1.069  10.825  19.879  0.00  0.00    +0.000 C 
ATOM     21  C   UNL     1      -1.040  11.979  20.861  0.00  0.00    +0.000 C 
ATOM     22  N   UNL     1      -1.598  11.534  22.112  0.00  0.00    +0.000 N 
ATOM     23  C   UNL     1      -0.903  10.432  22.785  0.00  0.00    +0.000 C 
ATOM     24  C   UNL     1      -0.776   9.238  21.829  0.00  0.00    +0.000 C 
BRANCH  22  25
ATOM     25  C   UNL     1      -2.191  12.520  22.921  0.00  0.00    +0.000 A 
ATOM     26  C   UNL     1      -3.364  12.256  23.654  0.00  0.00    +0.000 A 
ATOM     27  C   UNL     1      -3.854  13.171  24.573  0.00  0.00    +0.000 A 
ATOM     28  C   UNL     1      -3.196  14.383  24.743  0.00  0.00    +0.000 A 
ATOM     29  C   UNL     1      -2.033  14.703  24.000  0.00  0.00    +0.000 A 
ATOM     30  C   UNL     1      -1.305  15.913  24.125  0.00  0.00    +0.000 A 
ATOM     31  C   UNL     1      -1.745  17.071  24.977  0.00  0.00    +0.000 C 
ATOM     32  C   UNL     1      -0.104  16.074  23.413  0.00  0.00    +0.000 A 
ATOM     33  C   UNL     1       0.329  15.061  22.580  0.00  0.00    +0.000 A 
ATOM     34  C   UNL     1       1.628  15.104  21.844  0.00  0.00    +0.000 C 
ATOM     35  N   UNL     1      -0.379  13.938  22.415  0.00  0.00    +0.000 NA
ATOM     36  C   UNL     1      -1.525  13.746  23.090  0.00  0.00    +0.000 A 
ENDBRANCH  22  25
ENDBRANCH   4  19
TORSDOF 4
ENDMDL
MODEL 7
REMARK VINA RESULT:      -8.1      2.559     11.209
REMARK  Name = 
REMARK  7 active torsions:
REMARK  status: ('A' for Active; 'I' for Inactive)
REMARK    1  A    between atoms: C_1  and  O_2
REMARK    2  A    between atoms: O_2  and  C_3
REMARK    3  A    between atoms: C_5  and  N_6
REMARK    4  A    between atoms: N_9  and  C_10
REMARK    5  A    between atoms: N_13  and  C_14
REMARK    6  A    between atoms: C_19  and  C_20
REMARK    7  A    between atoms: C_22  and  C_23
REMARK                            x       y       z     vdW  Elec       q    Type
REMARK                         _______ _______ _______ _____ _____    ______ ____
ROOT
ATOM      1  N   UNL     1      -0.857  12.331  22.646  0.00  0.00    +0.000 N 
ATOM      2  C   UNL     1      -0.596  12.501  21.212  0.00  0.00    +0.000 C 
ATOM      3  C   UNL     1       0.703  11.712  20.839  0.00  0.00    +0.000 C 
ATOM      4  N   UNL     1       0.811  10.304  21.306  0.00  0.00    +0.000 NA
ATOM      5  C   UNL     1       0.359  10.193  22.694  0.00  0.00    +0.000 C 
ATOM      6  C   UNL     1      -0.952  10.920  23.037  0.00  0.00    +0.000 C 
ENDROOT
BRANCH   1   9
ATOM      7  C   UNL     1      -4.325  12.971  23.572  0.00  0.00    +0.000 A 
ATOM      8  C   UNL     1      -3.148  12.421  23.113  0.00  0.00    +0.000 A 
ATOM      9  C   UNL     1      -1.895  13.044  23.284  0.00  0.00    +0.000 A 
ATOM     10  C   UNL     1      -1.811  14.297  23.932  0.00  0.00    +0.000 A 
ATOM     11  N   UNL     1      -0.649  14.990  24.071  0.00  0.00    +0.000 NA
ATOM     12  C   UNL     1      -0.673  16.201  24.675  0.00  0.00    +0.000 A 
ATOM     13  C   UNL     1      -1.810  16.793  25.178  0.00  0.00    +0.000 A 
ATOM     14  C   UNL     1      -3.006  16.103  25.033  0.00  0.00    +0.000 A 
ATOM     15  C   UNL     1      -3.030  14.856  24.403  0.00  0.00    +0.000 A 
ATOM     16  C   UNL     1      -4.261  14.199  24.212  0.00  0.00    +0.000 A 
BRANCH   7  18
ATOM     17  C   UNL     1      -6.299  12.902  22.300  0.00  0.00    +0.000 C 
ATOM     18  O   UNL     1      -5.551  12.393  23.409  0.00  0.00    +0.000 OA
ENDBRANCH   7  18
ENDBRANCH   1   9
BRANCH   4  19
ATOM     19  C   UNL     1       0.379   9.281  20.335  0.00  0.00    +0.000 C 
ATOM     20  C   UNL     1       0.729   7.822  20.637  0.00  0.00    +0.000 C 
ATOM     21  C   UNL     1       2.098   7.405  20.139  0.00  0.00    +0.000 C 
ATOM     22  N   UNL     1       2.170   7.659  18.723  0.00  0.00    +0.000 N 
ATOM     23  C   UNL     1       2.007   9.053  18.298  0.00  0.00    +0.000 C 
ATOM     24  C   UNL     1       0.690   9.615  18.851  0.00  0.00    +0.000 C 
BRANCH  22  25
ATOM     25  C   UNL     1       3.055   6.853  17.985  0.00  0.00    +0.000 A 
ATOM     26  C   UNL     1       4.130   7.413  17.268  0.00  0.00    +0.000 A 
ATOM     27  C   UNL     1       5.092   6.608  16.678  0.00  0.00    +0.000 A 
ATOM     28  C   UNL     1       4.968   5.226  16.762  0.00  0.00    +0.000 A 
ATOM     29  C   UNL     1       3.883   4.622  17.443  0.00  0.00    +0.000 A 
ATOM     30  C   UNL     1       3.695   3.224  17.578  0.00  0.00    +0.000 A 
ATOM     31  C   UNL     1       4.561   2.193  16.908  0.00  0.00    +0.000 C 
ATOM     32  C   UNL     1       2.638   2.741  18.369  0.00  0.00    +0.000 A 
ATOM     33  C   UNL     1       1.781   3.640  18.974  0.00  0.00    +0.000 A 
ATOM     34  C   UNL     1       0.679   3.230  19.894  0.00  0.00    +0.000 C 
ATOM     35  N   UNL     1       1.919   4.960  18.809  0.00  0.00    +0.000 NA
ATOM     36  C   UNL     1       2.927   5.456  18.070  0.00  0.00    +0.000 A 
ENDBRANCH  22  25
ENDBRANCH   4  19
TORSDOF 4
ENDMDL
MODEL 8
REMARK VINA RESULT:      -8.0      2.550     11.597
REMARK  Name = 
REMARK  7 active torsions:
REMARK  status: ('A' for Active; 'I' for Inactive)
REMARK    1  A    between atoms: C_1  and  O_2
REMARK    2  A    between atoms: O_2  and  C_3
REMARK    3  A    between atoms: C_5  and  N_6
REMARK    4  A    between atoms: N_9  and  C_10
REMARK    5  A    between atoms: N_13  and  C_14
REMARK    6  A    between atoms: C_19  and  C_20
REMARK    7  A    between atoms: C_22  and  C_23
REMARK                            x       y       z     vdW  Elec       q    Type
REMARK                         _______ _______ _______ _____ _____    ______ ____
ROOT
ATOM      1  N   UNL     1      -1.375  11.726  21.596  0.00  0.00    +0.000 N 
ATOM      2  C   UNL     1      -0.715  10.640  22.328  0.00  0.00    +0.000 C 
ATOM      3  C   UNL     1      -0.629   9.384  21.398  0.00  0.00    +0.000 C 
ATOM      4  N   UNL     1      -0.108   9.583  20.019  0.00  0.00    +0.000 NA
ATOM      5  C   UNL     1      -0.683  10.793  19.427  0.00  0.00    +0.000 C 
ATOM      6  C   UNL     1      -0.706  12.038  20.328  0.00  0.00    +0.000 C 
ENDROOT
BRANCH   1   9
ATOM      7  C   UNL     1      -0.628  14.943  23.141  0.00  0.00    +0.000 A 
ATOM      8  C   UNL     1      -0.573  13.749  22.454  0.00  0.00    +0.000 A 
ATOM      9  C   UNL     1      -1.706  12.939  22.239  0.00  0.00    +0.000 A 
ATOM     10  C   UNL     1      -2.963  13.329  22.753  0.00  0.00    +0.000 A 
ATOM     11  N   UNL     1      -4.084  12.567  22.645  0.00  0.00    +0.000 NA
ATOM     12  C   UNL     1      -5.236  13.008  23.201  0.00  0.00    +0.000 A 
ATOM     13  C   UNL     1      -5.363  14.202  23.875  0.00  0.00    +0.000 A 
ATOM     14  C   UNL     1      -4.225  14.986  24.003  0.00  0.00    +0.000 A 
ATOM     15  C   UNL     1      -3.010  14.563  23.457  0.00  0.00    +0.000 A 
ATOM     16  C   UNL     1      -1.853  15.343  23.649  0.00  0.00    +0.000 A 
BRANCH   7  18
ATOM     17  C   UNL     1       1.367  15.828  22.271  0.00  0.00    +0.000 C 
ATOM     18  O   UNL     1       0.457  15.740  23.372  0.00  0.00    +0.000 OA
ENDBRANCH   7  18
ENDBRANCH   1   9
BRANCH   4  19
ATOM     19  C   UNL     1       1.335   9.326  19.845  0.00  0.00    +0.000 C 
ATOM     20  C   UNL     1       1.873   9.233  18.415  0.00  0.00    +0.000 C 
ATOM     21  C   UNL     1       1.773   7.846  17.813  0.00  0.00    +0.000 C 
ATOM     22  N   UNL     1       2.463   6.919  18.673  0.00  0.00    +0.000 N 
ATOM     23  C   UNL     1       1.950   6.788  20.041  0.00  0.00    +0.000 C 
ATOM     24  C   UNL     1       1.902   8.168  20.712  0.00  0.00    +0.000 C 
BRANCH  22  25
ATOM     25  C   UNL     1       2.988   5.767  18.061  0.00  0.00    +0.000 A 
ATOM     26  C   UNL     1       2.184   4.634  17.826  0.00  0.00    +0.000 A 
ATOM     27  C   UNL     1       2.657   3.566  17.080  0.00  0.00    +0.000 A 
ATOM     28  C   UNL     1       3.958   3.599  16.592  0.00  0.00    +0.000 A 
ATOM     29  C   UNL     1       4.810   4.703  16.836  0.00  0.00    +0.000 A 
ATOM     30  C   UNL     1       6.143   4.811  16.365  0.00  0.00    +0.000 A 
ATOM     31  C   UNL     1       6.870   3.709  15.646  0.00  0.00    +0.000 C 
ATOM     32  C   UNL     1       6.857   6.003  16.580  0.00  0.00    +0.000 A 
ATOM     33  C   UNL     1       6.257   7.035  17.274  0.00  0.00    +0.000 A 
ATOM     34  C   UNL     1       6.903   8.366  17.484  0.00  0.00    +0.000 C 
ATOM     35  N   UNL     1       5.019   6.922  17.768  0.00  0.00    +0.000 NA
ATOM     36  C   UNL     1       4.303   5.802  17.570  0.00  0.00    +0.000 A 
ENDBRANCH  22  25
ENDBRANCH   4  19
TORSDOF 4
ENDMDL
MODEL 9
REMARK VINA RESULT:      -7.9      2.202      3.284
REMARK  Name = 
REMARK  7 active torsions:
REMARK  status: ('A' for Active; 'I' for Inactive)
REMARK    1  A    between atoms: C_1  and  O_2
REMARK    2  A    between atoms: O_2  and  C_3
REMARK    3  A    between atoms: C_5  and  N_6
REMARK    4  A    between atoms: N_9  and  C_10
REMARK    5  A    between atoms: N_13  and  C_14
REMARK    6  A    between atoms: C_19  and  C_20
REMARK    7  A    between atoms: C_22  and  C_23
REMARK                            x       y       z     vdW  Elec       q    Type
REMARK                         _______ _______ _______ _____ _____    ______ ____
ROOT
ATOM      1  N   UNL     1       2.670   7.118  18.757  0.00  0.00    +0.000 N 
ATOM      2  C   UNL     1       1.989   7.031  20.053  0.00  0.00    +0.000 C 
ATOM      3  C   UNL     1       1.831   8.474  20.638  0.00  0.00    +0.000 C 
ATOM      4  N   UNL     1       1.281   9.524  19.739  0.00  0.00    +0.000 NA
ATOM      5  C   UNL     1       1.886   9.424  18.410  0.00  0.00    +0.000 C 
ATOM      6  C   UNL     1       1.979   8.008  17.817  0.00  0.00    +0.000 C 
ENDROOT
BRANCH   1   9
ATOM      7  C   UNL     1       2.327   3.647  17.693  0.00  0.00    +0.000 A 
ATOM      8  C   UNL     1       2.125   4.911  18.207  0.00  0.00    +0.000 A 
ATOM      9  C   UNL     1       3.063   5.953  18.064  0.00  0.00    +0.000 A 
ATOM     10  C   UNL     1       4.282   5.719  17.387  0.00  0.00    +0.000 A 
ATOM     11  N   UNL     1       5.262   6.654  17.271  0.00  0.00    +0.000 NA
ATOM     12  C   UNL     1       6.412   6.327  16.636  0.00  0.00    +0.000 A 
ATOM     13  C   UNL     1       6.664   5.094  16.078  0.00  0.00    +0.000 A 
ATOM     14  C   UNL     1       5.677   4.126  16.199  0.00  0.00    +0.000 A 
ATOM     15  C   UNL     1       4.480   4.415  16.859  0.00  0.00    +0.000 A 
ATOM     16  C   UNL     1       3.516   3.402  17.024  0.00  0.00    +0.000 A 
BRANCH   7  18
ATOM     17  C   UNL     1       0.745   2.601  19.079  0.00  0.00    +0.000 C 
ATOM     18  O   UNL     1       1.439   2.619  17.828  0.00  0.00    +0.000 OA
ENDBRANCH   7  18
ENDBRANCH   1   9
BRANCH   4  19
ATOM     19  C   UNL     1      -0.174   9.745  19.842  0.00  0.00    +0.000 C 
ATOM     20  C   UNL     1      -0.850  10.552  18.731  0.00  0.00    +0.000 C 
ATOM     21  C   UNL     1      -0.826  12.050  18.961  0.00  0.00    +0.000 C 
ATOM     22  N   UNL     1      -1.438  12.331  20.234  0.00  0.00    +0.000 N 
ATOM     23  C   UNL     1      -0.796  11.745  21.415  0.00  0.00    +0.000 C 
ATOM     24  C   UNL     1      -0.667  10.226  21.234  0.00  0.00    +0.000 C 
BRANCH  22  25
ATOM     25  C   UNL     1      -2.033  13.598  20.378  0.00  0.00    +0.000 A 
ATOM     26  C   UNL     1      -3.348  13.737  20.863  0.00  0.00    +0.000 A 
ATOM     27  C   UNL     1      -3.872  14.985  21.157  0.00  0.00    +0.000 A 
ATOM     28  C   UNL     1      -3.100  16.119  20.932  0.00  0.00    +0.000 A 
ATOM     29  C   UNL     1      -1.785  16.025  20.412  0.00  0.00    +0.000 A 
ATOM     30  C   UNL     1      -0.936  17.133  20.165  0.00  0.00    +0.000 A 
ATOM     31  C   UNL     1      -1.367  18.567  20.307  0.00  0.00    +0.000 C 
ATOM     32  C   UNL     1       0.388  16.910  19.750  0.00  0.00    +0.000 A 
ATOM     33  C   UNL     1       0.827  15.615  19.559  0.00  0.00    +0.000 A 
ATOM     34  C   UNL     1       2.235  15.272  19.196  0.00  0.00    +0.000 C 
ATOM     35  N   UNL     1       0.017  14.566  19.739  0.00  0.00    +0.000 NA
ATOM     36  C   UNL     1      -1.250  14.742  20.149  0.00  0.00    +0.000 A 
ENDBRANCH  22  25
ENDBRANCH   4  19
TORSDOF 4
ENDMDL
