MODEL 1
REMARK VINA RESULT:      -8.4      0.000      0.000
REMARK  Name = 
REMARK  6 active torsions:
REMARK  status: ('A' for Active; 'I' for Inactive)
REMARK    1  A    between atoms: C_1  and  N_2
REMARK    2  A    between atoms: N_2  and  C_3
REMARK    3  A    between atoms: N_2  and  C_4
REMARK    4  A    between atoms: C_4  and  C_5
REMARK    5  A    between atoms: C_5  and  N_6
REMARK    6  A    between atoms: C_19  and  C_20
REMARK                            x       y       z     vdW  Elec       q    Type
REMARK                         _______ _______ _______ _____ _____    ______ ____
ROOT
ATOM      1  N   UNL     1       5.800   5.208  16.587  0.00  0.00    +0.000 N 
ATOM      2  C   UNL     1       5.976   4.619  17.825  0.00  0.00    +0.000 C 
ATOM      3  O   UNL     1       7.040   4.240  18.300  0.00  0.00    +0.000 OA
ATOM      4  C   UNL     1       4.753   4.560  18.638  0.00  0.00    +0.000 A 
ATOM      5  C   UNL     1       4.489   3.470  19.463  0.00  0.00    +0.000 A 
ATOM      6  C   UNL     1       3.360   3.501  20.281  0.00  0.00    +0.000 A 
ATOM      7  C   UNL     1       2.599   4.668  20.378  0.00  0.00    +0.000 A 
ATOM      8  C   UNL     1       2.905   5.780  19.570  0.00  0.00    +0.000 A 
ATOM      9  C   UNL     1       3.919   5.671  18.601  0.00  0.00    +0.000 A 
ATOM     10  C   UNL     1       4.096   6.660  17.635  0.00  0.00    +0.000 A 
ATOM     11  C   UNL     1       3.431   7.898  17.733  0.00  0.00    +0.000 A 
ATOM     12  C   UNL     1       2.564   8.066  18.833  0.00  0.00    +0.000 A 
ATOM     13  N   UNL     1       1.848   9.139  19.322  0.00  0.00    +0.000 N 
ATOM     14  C   UNL     1       1.111   8.719  20.416  0.00  0.00    +0.000 A 
ATOM     15  N   UNL     1       1.326   7.434  20.639  0.00  0.00    +0.000 NA
ATOM     16  C   UNL     1       2.252   7.028  19.709  0.00  0.00    +0.000 A 
ATOM     17  C   UNL     1       4.912   6.281  16.433  0.00  0.00    +0.000 C 
ATOM     18  O   UNL     1       4.751   6.907  15.387  0.00  0.00    +0.000 OA
ATOM     19  H   UNL     1       1.869  10.087  18.975  0.00  0.00    +0.000 HD
ENDROOT
BRANCH  14  20
ATOM     20  C   UNL     1       0.259   9.543  21.221  0.00  0.00    +0.000 A 
ATOM     21  C   UNL     1      -0.066   9.314  22.547  0.00  0.00    +0.000 A 
ATOM     22  C   UNL     1      -0.922  10.314  23.093  0.00  0.00    +0.000 A 
ATOM     23  C   UNL     1      -1.226  11.281  22.163  0.00  0.00    +0.000 A 
ATOM     24  S   UNL     1      -0.487  10.975  20.647  0.00  0.00    +0.000 S 
ENDBRANCH  14  20
BRANCH   1  25
ATOM     25  C   UNL     1       6.823   4.972  15.566  0.00  0.00    +0.000 C 
BRANCH  25  26
ATOM     26  C   UNL     1       6.470   3.939  14.451  0.00  0.00    +0.000 C 
BRANCH  26  28
ATOM     27  C   UNL     1       7.782   5.092  12.747  0.00  0.00    +0.000 C 
ATOM     28  N   UNL     1       6.522   4.407  13.046  0.00  0.00    +0.000 NA
ATOM     29  C   UNL     1       6.377   3.258  12.137  0.00  0.00    +0.000 C 
ENDBRANCH  26  28
ENDBRANCH  25  26
ENDBRANCH   1  25
TORSDOF 4
ENDMDL
MODEL 2
REMARK VINA RESULT:      -8.0      0.954      1.291
REMARK  Name = 
REMARK  6 active torsions:
REMARK  status: ('A' for Active; 'I' for Inactive)
REMARK    1  A    between atoms: C_1  and  N_2
REMARK    2  A    between atoms: N_2  and  C_3
REMARK    3  A    between atoms: N_2  and  C_4
REMARK    4  A    between atoms: C_4  and  C_5
REMARK    5  A    between atoms: C_5  and  N_6
REMARK    6  A    between atoms: C_19  and  C_20
REMARK                            x       y       z     vdW  Elec       q    Type
REMARK                         _______ _______ _______ _____ _____    ______ ____
ROOT
ATOM      1  N   UNL     1       5.261   5.168  17.169  0.00  0.00    +0.000 N 
ATOM      2  C   UNL     1       5.321   4.613  18.433  0.00  0.00    +0.000 C 
ATOM      3  O   UNL     1       6.323   4.170  18.982  0.00  0.00    +0.000 OA
ATOM      4  C   UNL     1       4.055   4.681  19.176  0.00  0.00    +0.000 A 
ATOM      5  C   UNL     1       3.659   3.646  20.020  0.00  0.00    +0.000 A 
ATOM      6  C   UNL     1       2.493   3.795  20.770  0.00  0.00    +0.000 A 
ATOM      7  C   UNL     1       1.823   5.020  20.785  0.00  0.00    +0.000 A 
ATOM      8  C   UNL     1       2.262   6.075  19.960  0.00  0.00    +0.000 A 
ATOM      9  C   UNL     1       3.316   5.851  19.055  0.00  0.00    +0.000 A 
ATOM     10  C   UNL     1       3.624   6.787  18.069  0.00  0.00    +0.000 A 
ATOM     11  C   UNL     1       3.056   8.076  18.088  0.00  0.00    +0.000 A 
ATOM     12  C   UNL     1       2.146   8.351  19.130  0.00  0.00    +0.000 A 
ATOM     13  N   UNL     1       1.492   9.495  19.542  0.00  0.00    +0.000 N 
ATOM     14  C   UNL     1       0.665   9.174  20.604  0.00  0.00    +0.000 A 
ATOM     15  N   UNL     1       0.764   7.885  20.881  0.00  0.00    +0.000 NA
ATOM     16  C   UNL     1       1.704   7.374  20.021  0.00  0.00    +0.000 A 
ATOM     17  C   UNL     1       4.471   6.302  16.929  0.00  0.00    +0.000 C 
ATOM     18  O   UNL     1       4.418   6.898  15.856  0.00  0.00    +0.000 OA
ATOM     19  H   UNL     1       1.607  10.425  19.166  0.00  0.00    +0.000 HD
ENDROOT
BRANCH  14  20
ATOM     20  C   UNL     1      -0.162  10.091  21.332  0.00  0.00    +0.000 A 
ATOM     21  C   UNL     1      -0.813  11.189  20.797  0.00  0.00    +0.000 A 
ATOM     22  C   UNL     1      -1.579  11.908  21.760  0.00  0.00    +0.000 A 
ATOM     23  C   UNL     1      -1.489  11.334  23.007  0.00  0.00    +0.000 A 
ATOM     24  S   UNL     1      -0.484   9.946  23.009  0.00  0.00    +0.000 S 
ENDBRANCH  14  20
BRANCH   1  25
ATOM     25  C   UNL     1       6.316   4.816  16.217  0.00  0.00    +0.000 C 
BRANCH  25  26
ATOM     26  C   UNL     1       5.966   3.723  15.160  0.00  0.00    +0.000 C 
BRANCH  26  28
ATOM     27  C   UNL     1       5.723   3.593  12.736  0.00  0.00    +0.000 C 
ATOM     28  N   UNL     1       6.652   3.796  13.849  0.00  0.00    +0.000 NA
ATOM     29  C   UNL     1       7.292   5.114  13.701  0.00  0.00    +0.000 C 
ENDBRANCH  26  28
ENDBRANCH  25  26
ENDBRANCH   1  25
TORSDOF 4
ENDMDL
MODEL 3
REMARK VINA RESULT:      -7.8      1.115      1.375
REMARK  Name = 
REMARK  6 active torsions:
REMARK  status: ('A' for Active; 'I' for Inactive)
REMARK    1  A    between atoms: C_1  and  N_2
REMARK    2  A    between atoms: N_2  and  C_3
REMARK    3  A    between atoms: N_2  and  C_4
REMARK    4  A    between atoms: C_4  and  C_5
REMARK    5  A    between atoms: C_5  and  N_6
REMARK    6  A    between atoms: C_19  and  C_20
REMARK                            x       y       z     vdW  Elec       q    Type
REMARK                         _______ _______ _______ _____ _____    ______ ____
ROOT
ATOM      1  N   UNL     1       5.543   5.236  17.208  0.00  0.00    +0.000 N 
ATOM      2  C   UNL     1       5.483   4.852  18.534  0.00  0.00    +0.000 C 
ATOM      3  O   UNL     1       6.425   4.478  19.222  0.00  0.00    +0.000 OA
ATOM      4  C   UNL     1       4.158   5.025  19.146  0.00  0.00    +0.000 A 
ATOM      5  C   UNL     1       3.671   4.112  20.079  0.00  0.00    +0.000 A 
ATOM      6  C   UNL     1       2.447   4.366  20.697  0.00  0.00    +0.000 A 
ATOM      7  C   UNL     1       1.801   5.588  20.493  0.00  0.00    +0.000 A 
ATOM      8  C   UNL     1       2.329   6.522  19.580  0.00  0.00    +0.000 A 
ATOM      9  C   UNL     1       3.454   6.174  18.809  0.00  0.00    +0.000 A 
ATOM     10  C   UNL     1       3.864   6.971  17.741  0.00  0.00    +0.000 A 
ATOM     11  C   UNL     1       3.320   8.255  17.542  0.00  0.00    +0.000 A 
ATOM     12  C   UNL     1       2.328   8.670  18.454  0.00  0.00    +0.000 A 
ATOM     13  N   UNL     1       1.662   9.862  18.653  0.00  0.00    +0.000 N 
ATOM     14  C   UNL     1       0.740   9.690  19.671  0.00  0.00    +0.000 A 
ATOM     15  N   UNL     1       0.791   8.448  20.121  0.00  0.00    +0.000 NA
ATOM     16  C   UNL     1       1.792   7.822  19.421  0.00  0.00    +0.000 A 
ATOM     17  C   UNL     1       4.798   6.334  16.753  0.00  0.00    +0.000 C 
ATOM     18  O   UNL     1       4.850   6.785  15.612  0.00  0.00    +0.000 OA
ATOM     19  H   UNL     1       1.827  10.734  18.172  0.00  0.00    +0.000 HD
ENDROOT
BRANCH  14  20
ATOM     20  C   UNL     1      -0.130  10.700  20.197  0.00  0.00    +0.000 A 
ATOM     21  C   UNL     1      -0.942  11.535  19.449  0.00  0.00    +0.000 A 
ATOM     22  C   UNL     1      -1.711  12.429  20.248  0.00  0.00    +0.000 A 
ATOM     23  C   UNL     1      -1.463  12.249  21.589  0.00  0.00    +0.000 A 
ATOM     24  S   UNL     1      -0.307  11.016  21.872  0.00  0.00    +0.000 S 
ENDBRANCH  14  20
BRANCH   1  25
ATOM     25  C   UNL     1       6.670   4.754  16.408  0.00  0.00    +0.000 C 
BRANCH  25  26
ATOM     26  C   UNL     1       6.323   3.836  15.195  0.00  0.00    +0.000 C 
BRANCH  26  28
ATOM     27  C   UNL     1       7.615   5.107  13.563  0.00  0.00    +0.000 C 
ATOM     28  N   UNL     1       6.338   4.451  13.847  0.00  0.00    +0.000 NA
ATOM     29  C   UNL     1       6.098   3.414  12.829  0.00  0.00    +0.000 C 
ENDBRANCH  26  28
ENDBRANCH  25  26
ENDBRANCH   1  25
TORSDOF 4
ENDMDL
MODEL 4
REMARK VINA RESULT:      -7.6      4.140      8.419
REMARK  Name = 
REMARK  6 active torsions:
REMARK  status: ('A' for Active; 'I' for Inactive)
REMARK    1  A    between atoms: C_1  and  N_2
REMARK    2  A    between atoms: N_2  and  C_3
REMARK    3  A    between atoms: N_2  and  C_4
REMARK    4  A    between atoms: C_4  and  C_5
REMARK    5  A    between atoms: C_5  and  N_6
REMARK    6  A    between atoms: C_19  and  C_20
REMARK                            x       y       z     vdW  Elec       q    Type
REMARK                         _______ _______ _______ _____ _____    ______ ____
ROOT
ATOM      1  N   UNL     1       0.768  12.600  19.234  0.00  0.00    +0.000 N 
ATOM      2  C   UNL     1      -0.199  12.042  20.047  0.00  0.00    +0.000 C 
ATOM      3  O   UNL     1      -1.365  12.408  20.141  0.00  0.00    +0.000 OA
ATOM      4  C   UNL     1       0.245  10.839  20.765  0.00  0.00    +0.000 A 
ATOM      5  C   UNL     1      -0.182  10.576  22.064  0.00  0.00    +0.000 A 
ATOM      6  C   UNL     1       0.197   9.379  22.671  0.00  0.00    +0.000 A 
ATOM      7  C   UNL     1       0.864   8.401  21.930  0.00  0.00    +0.000 A 
ATOM      8  C   UNL     1       1.251   8.663  20.601  0.00  0.00    +0.000 A 
ATOM      9  C   UNL     1       1.045   9.946  20.062  0.00  0.00    +0.000 A 
ATOM     10  C   UNL     1       1.616  10.311  18.844  0.00  0.00    +0.000 A 
ATOM     11  C   UNL     1       2.216   9.351  18.006  0.00  0.00    +0.000 A 
ATOM     12  C   UNL     1       2.233   8.021  18.478  0.00  0.00    +0.000 A 
ATOM     13  N   UNL     1       2.613   6.820  17.916  0.00  0.00    +0.000 N 
ATOM     14  C   UNL     1       2.465   5.821  18.862  0.00  0.00    +0.000 A 
ATOM     15  N   UNL     1       2.012   6.334  19.994  0.00  0.00    +0.000 NA
ATOM     16  C   UNL     1       1.817   7.674  19.762  0.00  0.00    +0.000 A 
ATOM     17  C   UNL     1       1.679  11.782  18.550  0.00  0.00    +0.000 C 
ATOM     18  O   UNL     1       2.520  12.192  17.754  0.00  0.00    +0.000 OA
ATOM     19  H   UNL     1       2.920   6.667  16.966  0.00  0.00    +0.000 HD
ENDROOT
BRANCH  14  20
ATOM     20  C   UNL     1       2.727   4.427  18.661  0.00  0.00    +0.000 A 
ATOM     21  C   UNL     1       2.156   3.631  17.683  0.00  0.00    +0.000 A 
ATOM     22  C   UNL     1       2.623   2.285  17.715  0.00  0.00    +0.000 A 
ATOM     23  C   UNL     1       3.541   2.092  18.721  0.00  0.00    +0.000 A 
ATOM     24  S   UNL     1       3.826   3.525  19.618  0.00  0.00    +0.000 S 
ENDBRANCH  14  20
BRANCH   1  25
ATOM     25  C   UNL     1       0.573  13.982  18.790  0.00  0.00    +0.000 C 
BRANCH  25  26
ATOM     26  C   UNL     1       1.028  15.102  19.776  0.00  0.00    +0.000 C 
BRANCH  26  28
ATOM     27  C   UNL     1       3.373  14.748  20.349  0.00  0.00    +0.000 C 
ATOM     28  N   UNL     1       2.416  15.604  19.645  0.00  0.00    +0.000 NA
ATOM     29  C   UNL     1       2.787  15.664  18.221  0.00  0.00    +0.000 C 
ENDBRANCH  26  28
ENDBRANCH  25  26
ENDBRANCH   1  25
TORSDOF 4
ENDMDL
MODEL 5
REMARK VINA RESULT:      -7.6      4.301      8.987
REMARK  Name = 
REMARK  6 active torsions:
REMARK  status: ('A' for Active; 'I' for Inactive)
REMARK    1  A    between atoms: C_1  and  N_2
REMARK    2  A    between atoms: N_2  and  C_3
REMARK    3  A    between atoms: N_2  and  C_4
REMARK    4  A    between atoms: C_4  and  C_5
REMARK    5  A    between atoms: C_5  and  N_6
REMARK    6  A    between atoms: C_19  and  C_20
REMARK                            x       y       z     vdW  Elec       q    Type
REMARK                         _______ _______ _______ _____ _____    ______ ____
ROOT
ATOM      1  N   UNL     1       0.064  13.118  19.509  0.00  0.00    +0.000 N 
ATOM      2  C   UNL     1      -0.824  12.413  20.298  0.00  0.00    +0.000 C 
ATOM      3  O   UNL     1      -2.023  12.637  20.414  0.00  0.00    +0.000 OA
ATOM      4  C   UNL     1      -0.236  11.238  20.955  0.00  0.00    +0.000 A 
ATOM      5  C   UNL     1      -0.618  10.866  22.242  0.00  0.00    +0.000 A 
ATOM      6  C   UNL     1      -0.098   9.694  22.789  0.00  0.00    +0.000 A 
ATOM      7  C   UNL     1       0.671   8.835  22.000  0.00  0.00    +0.000 A 
ATOM      8  C   UNL     1       1.013   9.203  20.683  0.00  0.00    +0.000 A 
ATOM      9  C   UNL     1       0.655  10.477  20.207  0.00  0.00    +0.000 A 
ATOM     10  C   UNL     1       1.168  10.964  19.006  0.00  0.00    +0.000 A 
ATOM     11  C   UNL     1       1.867  10.120  18.121  0.00  0.00    +0.000 A 
ATOM     12  C   UNL     1       2.043   8.781  18.528  0.00  0.00    +0.000 A 
ATOM     13  N   UNL     1       2.553   7.659  17.907  0.00  0.00    +0.000 N 
ATOM     14  C   UNL     1       2.531   6.606  18.805  0.00  0.00    +0.000 A 
ATOM     15  N   UNL     1       2.032   7.010  19.961  0.00  0.00    +0.000 NA
ATOM     16  C   UNL     1       1.681   8.327  19.795  0.00  0.00    +0.000 A 
ATOM     17  C   UNL     1       1.057  12.444  18.783  0.00  0.00    +0.000 C 
ATOM     18  O   UNL     1       1.838  12.986  18.004  0.00  0.00    +0.000 OA
ATOM     19  H   UNL     1       2.866   7.589  16.950  0.00  0.00    +0.000 HD
ENDROOT
BRANCH  14  20
ATOM     20  C   UNL     1       2.950   5.263  18.536  0.00  0.00    +0.000 A 
ATOM     21  C   UNL     1       2.235   4.324  17.813  0.00  0.00    +0.000 A 
ATOM     22  C   UNL     1       2.913   3.076  17.695  0.00  0.00    +0.000 A 
ATOM     23  C   UNL     1       4.132   3.101  18.333  0.00  0.00    +0.000 A 
ATOM     24  S   UNL     1       4.444   4.616  19.071  0.00  0.00    +0.000 S 
ENDBRANCH  14  20
BRANCH   1  25
ATOM     25  C   UNL     1      -0.293  14.487  19.133  0.00  0.00    +0.000 C 
BRANCH  25  26
ATOM     26  C   UNL     1       0.432  15.634  19.903  0.00  0.00    +0.000 C 
BRANCH  26  28
ATOM     27  C   UNL     1       1.917  16.848  18.395  0.00  0.00    +0.000 C 
ATOM     28  N   UNL     1       0.676  16.899  19.172  0.00  0.00    +0.000 NA
ATOM     29  C   UNL     1      -0.447  17.166  18.258  0.00  0.00    +0.000 C 
ENDBRANCH  26  28
ENDBRANCH  25  26
ENDBRANCH   1  25
TORSDOF 4
ENDMDL
MODEL 6
REMARK VINA RESULT:      -7.4      1.884      2.465
REMARK  Name = 
REMARK  6 active torsions:
REMARK  status: ('A' for Active; 'I' for Inactive)
REMARK    1  A    between atoms: C_1  and  N_2
REMARK    2  A    between atoms: N_2  and  C_3
REMARK    3  A    between atoms: N_2  and  C_4
REMARK    4  A    between atoms: C_4  and  C_5
REMARK    5  A    between atoms: C_5  and  N_6
REMARK    6  A    between atoms: C_19  and  C_20
REMARK                            x       y       z     vdW  Elec       q    Type
REMARK                         _______ _______ _______ _____ _____    ______ ____
ROOT
ATOM      1  N   UNL     1       4.812   4.725  17.701  0.00  0.00    +0.000 N 
ATOM      2  C   UNL     1       4.669   4.121  18.936  0.00  0.00    +0.000 C 
ATOM      3  O   UNL     1       5.546   3.537  19.562  0.00  0.00    +0.000 OA
ATOM      4  C   UNL     1       3.348   4.319  19.548  0.00  0.00    +0.000 A 
ATOM      5  C   UNL     1       2.742   3.312  20.296  0.00  0.00    +0.000 A 
ATOM      6  C   UNL     1       1.529   3.578  20.929  0.00  0.00    +0.000 A 
ATOM      7  C   UNL     1       1.013   4.876  20.936  0.00  0.00    +0.000 A 
ATOM      8  C   UNL     1       1.661   5.896  20.213  0.00  0.00    +0.000 A 
ATOM      9  C   UNL     1       2.771   5.576  19.411  0.00  0.00    +0.000 A 
ATOM     10  C   UNL     1       3.294   6.502  18.509  0.00  0.00    +0.000 A 
ATOM     11  C   UNL     1       2.886   7.850  18.533  0.00  0.00    +0.000 A 
ATOM     12  C   UNL     1       1.909   8.198  19.488  0.00  0.00    +0.000 A 
ATOM     13  N   UNL     1       1.357   9.399  19.887  0.00  0.00    +0.000 N 
ATOM     14  C   UNL     1       0.388   9.146  20.843  0.00  0.00    +0.000 A 
ATOM     15  N   UNL     1       0.302   7.845  21.065  0.00  0.00    +0.000 NA
ATOM     16  C   UNL     1       1.260   7.252  20.280  0.00  0.00    +0.000 A 
ATOM     17  C   UNL     1       4.194   5.956  17.438  0.00  0.00    +0.000 C 
ATOM     18  O   UNL     1       4.329   6.593  16.396  0.00  0.00    +0.000 OA
ATOM     19  H   UNL     1       1.623  10.320  19.571  0.00  0.00    +0.000 HD
ENDROOT
BRANCH  14  20
ATOM     20  C   UNL     1      -0.395  10.131  21.526  0.00  0.00    +0.000 A 
ATOM     21  C   UNL     1      -0.735  10.104  22.868  0.00  0.00    +0.000 A 
ATOM     22  C   UNL     1      -1.509  11.230  23.272  0.00  0.00    +0.000 A 
ATOM     23  C   UNL     1      -1.737  12.089  22.221  0.00  0.00    +0.000 A 
ATOM     24  S   UNL     1      -1.028  11.530  20.764  0.00  0.00    +0.000 S 
ENDBRANCH  14  20
BRANCH   1  25
ATOM     25  C   UNL     1       5.913   4.278  16.846  0.00  0.00    +0.000 C 
BRANCH  25  26
ATOM     26  C   UNL     1       7.289   4.983  17.054  0.00  0.00    +0.000 C 
BRANCH  26  28
ATOM     27  C   UNL     1       8.242   5.770  19.157  0.00  0.00    +0.000 C 
ATOM     28  N   UNL     1       7.348   6.086  18.042  0.00  0.00    +0.000 NA
ATOM     29  C   UNL     1       7.823   7.314  17.382  0.00  0.00    +0.000 C 
ENDBRANCH  26  28
ENDBRANCH  25  26
ENDBRANCH   1  25
TORSDOF 4
ENDMDL
MODEL 7
REMARK VINA RESULT:      -7.4      4.058      9.436
REMARK  Name = 
REMARK  6 active torsions:
REMARK  status: ('A' for Active; 'I' for Inactive)
REMARK    1  A    between atoms: C_1  and  N_2
REMARK    2  A    between atoms: N_2  and  C_3
REMARK    3  A    between atoms: N_2  and  C_4
REMARK    4  A    between atoms: C_4  and  C_5
REMARK    5  A    between atoms: C_5  and  N_6
REMARK    6  A    between atoms: C_19  and  C_20
REMARK                            x       y       z     vdW  Elec       q    Type
REMARK                         _______ _______ _______ _____ _____    ______ ____
ROOT
ATOM      1  N   UNL     1      -0.291  13.130  19.981  0.00  0.00    +0.000 N 
ATOM      2  C   UNL     1      -1.063  12.283  20.753  0.00  0.00    +0.000 C 
ATOM      3  O   UNL     1      -2.261  12.403  20.981  0.00  0.00    +0.000 OA
ATOM      4  C   UNL     1      -0.347  11.093  21.234  0.00  0.00    +0.000 A 
ATOM      5  C   UNL     1      -0.598  10.564  22.498  0.00  0.00    +0.000 A 
ATOM      6  C   UNL     1       0.043   9.384  22.875  0.00  0.00    +0.000 A 
ATOM      7  C   UNL     1       0.800   8.672  21.943  0.00  0.00    +0.000 A 
ATOM      8  C   UNL     1       1.009   9.197  20.652  0.00  0.00    +0.000 A 
ATOM      9  C   UNL     1       0.529  10.483  20.345  0.00  0.00    +0.000 A 
ATOM     10  C   UNL     1       0.910  11.127  19.168  0.00  0.00    +0.000 A 
ATOM     11  C   UNL     1       1.589  10.434  18.148  0.00  0.00    +0.000 A 
ATOM     12  C   UNL     1       1.886   9.077  18.393  0.00  0.00    +0.000 A 
ATOM     13  N   UNL     1       2.418   8.066  17.619  0.00  0.00    +0.000 N 
ATOM     14  C   UNL     1       2.539   6.928  18.397  0.00  0.00    +0.000 A 
ATOM     15  N   UNL     1       2.110   7.172  19.624  0.00  0.00    +0.000 NA
ATOM     16  C   UNL     1       1.660   8.469  19.627  0.00  0.00    +0.000 A 
ATOM     17  C   UNL     1       0.682  12.610  19.115  0.00  0.00    +0.000 C 
ATOM     18  O   UNL     1       1.359  13.286  18.344  0.00  0.00    +0.000 OA
ATOM     19  H   UNL     1       2.656   8.118  16.639  0.00  0.00    +0.000 HD
ENDROOT
BRANCH  14  20
ATOM     20  C   UNL     1       3.024   5.655  17.954  0.00  0.00    +0.000 A 
ATOM     21  C   UNL     1       2.270   4.500  17.838  0.00  0.00    +0.000 A 
ATOM     22  C   UNL     1       3.020   3.389  17.354  0.00  0.00    +0.000 A 
ATOM     23  C   UNL     1       4.331   3.731  17.114  0.00  0.00    +0.000 A 
ATOM     24  S   UNL     1       4.646   5.376  17.478  0.00  0.00    +0.000 S 
ENDBRANCH  14  20
BRANCH   1  25
ATOM     25  C   UNL     1      -0.768  14.500  19.783  0.00  0.00    +0.000 C 
BRANCH  25  26
ATOM     26  C   UNL     1      -0.195  15.585  20.746  0.00  0.00    +0.000 C 
BRANCH  26  28
ATOM     27  C   UNL     1      -2.463  15.837  21.607  0.00  0.00    +0.000 C 
ATOM     28  N   UNL     1      -1.036  15.989  21.897  0.00  0.00    +0.000 NA
ATOM     29  C   UNL     1      -0.697  15.166  23.069  0.00  0.00    +0.000 C 
ENDBRANCH  26  28
ENDBRANCH  25  26
ENDBRANCH   1  25
TORSDOF 4
ENDMDL
MODEL 8
REMARK VINA RESULT:      -7.4      4.533      8.941
REMARK  Name = 
REMARK  6 active torsions:
REMARK  status: ('A' for Active; 'I' for Inactive)
REMARK    1  A    between atoms: C_1  and  N_2
REMARK    2  A    between atoms: N_2  and  C_3
REMARK    3  A    between atoms: N_2  and  C_4
REMARK    4  A    between atoms: C_4  and  C_5
REMARK    5  A    between atoms: C_5  and  N_6
REMARK    6  A    between atoms: C_19  and  C_20
REMARK                            x       y       z     vdW  Elec       q    Type
REMARK                         _______ _______ _______ _____ _____    ______ ____
ROOT
ATOM      1  N   UNL     1       0.067  13.059  19.310  0.00  0.00    +0.000 N 
ATOM      2  C   UNL     1      -0.954  12.559  20.097  0.00  0.00    +0.000 C 
ATOM      3  O   UNL     1      -2.137  12.869  20.028  0.00  0.00    +0.000 OA
ATOM      4  C   UNL     1      -0.534  11.490  21.012  0.00  0.00    +0.000 A 
ATOM      5  C   UNL     1      -1.080  11.378  22.289  0.00  0.00    +0.000 A 
ATOM      6  C   UNL     1      -0.714  10.296  23.088  0.00  0.00    +0.000 A 
ATOM      7  C   UNL     1       0.066   9.267  22.556  0.00  0.00    +0.000 A 
ATOM      8  C   UNL     1       0.575   9.371  21.246  0.00  0.00    +0.000 A 
ATOM      9  C   UNL     1       0.371  10.557  20.519  0.00  0.00    +0.000 A 
ATOM     10  C   UNL     1       1.047  10.789  19.322  0.00  0.00    +0.000 A 
ATOM     11  C   UNL     1       1.770   9.761  18.685  0.00  0.00    +0.000 A 
ATOM     12  C   UNL     1       1.795   8.509  19.335  0.00  0.00    +0.000 A 
ATOM     13  N   UNL     1       2.281   7.267  18.983  0.00  0.00    +0.000 N 
ATOM     14  C   UNL     1       2.080   6.396  20.039  0.00  0.00    +0.000 A 
ATOM     15  N   UNL     1       1.493   7.029  21.041  0.00  0.00    +0.000 NA
ATOM     16  C   UNL     1       1.265   8.312  20.609  0.00  0.00    +0.000 A 
ATOM     17  C   UNL     1       1.077  12.209  18.835  0.00  0.00    +0.000 C 
ATOM     18  O   UNL     1       1.977  12.556  18.074  0.00  0.00    +0.000 OA
ATOM     19  H   UNL     1       2.689   7.007  18.096  0.00  0.00    +0.000 HD
ENDROOT
BRANCH  14  20
ATOM     20  C   UNL     1       2.420   5.004  20.058  0.00  0.00    +0.000 A 
ATOM     21  C   UNL     1       2.217   4.138  21.118  0.00  0.00    +0.000 A 
ATOM     22  C   UNL     1       2.640   2.806  20.840  0.00  0.00    +0.000 A 
ATOM     23  C   UNL     1       3.156   2.694  19.570  0.00  0.00    +0.000 A 
ATOM     24  S   UNL     1       3.132   4.188  18.730  0.00  0.00    +0.000 S 
ENDBRANCH  14  20
BRANCH   1  25
ATOM     25  C   UNL     1      -0.140  14.356  18.664  0.00  0.00    +0.000 C 
BRANCH  25  26
ATOM     26  C   UNL     1      -0.022  15.617  19.576  0.00  0.00    +0.000 C 
BRANCH  26  28
ATOM     27  C   UNL     1       1.730  16.729  18.293  0.00  0.00    +0.000 C 
ATOM     28  N   UNL     1       0.425  16.878  18.940  0.00  0.00    +0.000 NA
ATOM     29  C   UNL     1      -0.562  17.300  17.932  0.00  0.00    +0.000 C 
ENDBRANCH  26  28
ENDBRANCH  25  26
ENDBRANCH   1  25
TORSDOF 4
ENDMDL
MODEL 9
REMARK VINA RESULT:      -7.3      4.156      9.676
REMARK  Name = 
REMARK  6 active torsions:
REMARK  status: ('A' for Active; 'I' for Inactive)
REMARK    1  A    between atoms: C_1  and  N_2
REMARK    2  A    between atoms: N_2  and  C_3
REMARK    3  A    between atoms: N_2  and  C_4
REMARK    4  A    between atoms: C_4  and  C_5
REMARK    5  A    between atoms: C_5  and  N_6
REMARK    6  A    between atoms: C_19  and  C_20
REMARK                            x       y       z     vdW  Elec       q    Type
REMARK                         _______ _______ _______ _____ _____    ______ ____
ROOT
ATOM      1  N   UNL     1      -1.031  13.302  20.664  0.00  0.00    +0.000 N 
ATOM      2  C   UNL     1      -1.644  12.346  21.452  0.00  0.00    +0.000 C 
ATOM      3  O   UNL     1      -2.826  12.323  21.772  0.00  0.00    +0.000 OA
ATOM      4  C   UNL     1      -0.766  11.229  21.827  0.00  0.00    +0.000 A 
ATOM      5  C   UNL     1      -0.858  10.630  23.081  0.00  0.00    +0.000 A 
ATOM      6  C   UNL     1      -0.065   9.517  23.358  0.00  0.00    +0.000 A 
ATOM      7  C   UNL     1       0.692   8.928  22.342  0.00  0.00    +0.000 A 
ATOM      8  C   UNL     1       0.740   9.519  21.064  0.00  0.00    +0.000 A 
ATOM      9  C   UNL     1       0.100  10.753  20.849  0.00  0.00    +0.000 A 
ATOM     10  C   UNL     1       0.315  11.477  19.678  0.00  0.00    +0.000 A 
ATOM     11  C   UNL     1       0.985  10.901  18.581  0.00  0.00    +0.000 A 
ATOM     12  C   UNL     1       1.447   9.579  18.744  0.00  0.00    +0.000 A 
ATOM     13  N   UNL     1       2.025   8.662  17.889  0.00  0.00    +0.000 N 
ATOM     14  C   UNL     1       2.330   7.518  18.606  0.00  0.00    +0.000 A 
ATOM     15  N   UNL     1       1.974   7.669  19.870  0.00  0.00    +0.000 NA
ATOM     16  C   UNL     1       1.386   8.906  19.964  0.00  0.00    +0.000 A 
ATOM     17  C   UNL     1      -0.077  12.926  19.707  0.00  0.00    +0.000 C 
ATOM     18  O   UNL     1       0.460  13.701  18.918  0.00  0.00    +0.000 OA
ATOM     19  H   UNL     1       2.179   8.775  16.898  0.00  0.00    +0.000 HD
ENDROOT
BRANCH  14  20
ATOM     20  C   UNL     1       2.916   6.324  18.073  0.00  0.00    +0.000 A 
ATOM     21  C   UNL     1       2.296   5.089  17.990  0.00  0.00    +0.000 A 
ATOM     22  C   UNL     1       3.121   4.090  17.396  0.00  0.00    +0.000 A 
ATOM     23  C   UNL     1       4.351   4.594  17.042  0.00  0.00    +0.000 A 
ATOM     24  S   UNL     1       4.503   6.256  17.432  0.00  0.00    +0.000 S 
ENDBRANCH  14  20
BRANCH   1  25
ATOM     25  C   UNL     1      -1.669  14.615  20.561  0.00  0.00    +0.000 C 
BRANCH  25  26
ATOM     26  C   UNL     1      -1.027  15.770  21.390  0.00  0.00    +0.000 C 
BRANCH  26  28
ATOM     27  C   UNL     1       0.724  16.417  22.961  0.00  0.00    +0.000 C 
ATOM     28  N   UNL     1      -0.262  15.396  22.603  0.00  0.00    +0.000 NA
ATOM     29  C   UNL     1      -1.189  15.212  23.733  0.00  0.00    +0.000 C 
ENDBRANCH  26  28
ENDBRANCH  25  26
ENDBRANCH   1  25
TORSDOF 4
ENDMDL
