MODEL 1
REMARK VINA RESULT:      -9.0      0.000      0.000
REMARK  Name = 
REMARK  5 active torsions:
REMARK  status: ('A' for Active; 'I' for Inactive)
REMARK    1  A    between atoms: C_2  and  C_16
REMARK    2  A    between atoms: N_3  and  C_4
REMARK    3  A    between atoms: C_7  and  N_8
REMARK    4  A    between atoms: C_21  and  N_22
REMARK    5  A    between atoms: N_22  and  C_23
REMARK                            x       y       z     vdW  Elec       q    Type
REMARK                         _______ _______ _______ _____ _____    ______ ____
ROOT
ATOM      1  O   UNL     1       2.545   7.422  19.135  0.00  0.00    +0.000 OA
ATOM      2  C   UNL     1       2.039   6.763  20.038  0.00  0.00    +0.000 C 
ATOM      3  N   UNL     1       1.267   7.254  21.078  0.00  0.00    +0.000 N 
ATOM      4  H   UNL     1       1.070   6.623  21.849  0.00  0.00    +0.000 HD
ENDROOT
BRANCH   3   5
ATOM      5  C   UNL     1       0.828   8.595  21.214  0.00  0.00    +0.000 A 
ATOM      6  C   UNL     1       0.802   9.503  20.161  0.00  0.00    +0.000 A 
ATOM      7  C   UNL     1       0.321  10.808  20.335  0.00  0.00    +0.000 A 
ATOM      8  C   UNL     1      -0.153  11.258  21.567  0.00  0.00    +0.000 A 
ATOM      9  C   UNL     1      -0.105  10.341  22.631  0.00  0.00    +0.000 A 
ATOM     10  C   UNL     1       0.367   9.026  22.459  0.00  0.00    +0.000 A 
BRANCH   8  11
ATOM     11  N   UNL     1      -0.706  12.515  21.743  0.00  0.00    +0.000 N 
ATOM     12  C   UNL     1      -1.271  12.932  23.040  0.00  0.00    +0.000 C 
ATOM     13  C   UNL     1      -2.805  12.933  23.011  0.00  0.00    +0.000 C 
ATOM     14  O   UNL     1      -3.304  13.732  21.926  0.00  0.00    +0.000 OA
ATOM     15  C   UNL     1      -2.838  13.203  20.674  0.00  0.00    +0.000 C 
ATOM     16  C   UNL     1      -1.301  13.207  20.584  0.00  0.00    +0.000 C 
ENDBRANCH   8  11
ENDBRANCH   3   5
BRANCH   2  17
ATOM     17  C   UNL     1       2.314   5.302  20.047  0.00  0.00    +0.000 A 
ATOM     18  C   UNL     1       1.240   4.486  20.458  0.00  0.00    +0.000 A 
ATOM     19  C   UNL     1       1.383   3.104  20.539  0.00  0.00    +0.000 A 
ATOM     20  C   UNL     1       2.590   2.521  20.181  0.00  0.00    +0.000 A 
ATOM     21  C   UNL     1       3.662   3.323  19.777  0.00  0.00    +0.000 A 
ATOM     22  C   UNL     1       3.571   4.730  19.766  0.00  0.00    +0.000 A 
BRANCH  22  23
ATOM     23  N   UNL     1       4.709   5.508  19.395  0.00  0.00    +0.000 N 
ATOM     24  H   UNL     1       5.429   5.432  20.120  0.00  0.00    +0.000 HD
BRANCH  23  25
ATOM     25  C   UNL     1       5.389   5.407  18.146  0.00  0.00    +0.000 A 
ATOM     26  C   UNL     1       6.662   4.823  18.111  0.00  0.00    +0.000 A 
ATOM     27  C   UNL     1       7.309   4.607  16.891  0.00  0.00    +0.000 A 
ATOM     28  C   UNL     1       6.672   4.951  15.705  0.00  0.00    +0.000 A 
ATOM     29  F   UNL     1       7.286   4.728  14.535  0.00  0.00    +0.000 F 
ATOM     30  C   UNL     1       5.399   5.504  15.714  0.00  0.00    +0.000 A 
ATOM     31  C   UNL     1       4.753   5.718  16.933  0.00  0.00    +0.000 A 
ENDBRANCH  23  25
ENDBRANCH  22  23
ENDBRANCH   2  17
TORSDOF 5
ENDMDL
MODEL 2
REMARK VINA RESULT:      -8.9      2.045      2.600
REMARK  Name = 
REMARK  5 active torsions:
REMARK  status: ('A' for Active; 'I' for Inactive)
REMARK    1  A    between atoms: C_2  and  C_16
REMARK    2  A    between atoms: N_3  and  C_4
REMARK    3  A    between atoms: C_7  and  N_8
REMARK    4  A    between atoms: C_21  and  N_22
REMARK    5  A    between atoms: N_22  and  C_23
REMARK                            x       y       z     vdW  Elec       q    Type
REMARK                         _______ _______ _______ _____ _____    ______ ____
ROOT
ATOM      1  O   UNL     1       1.812   5.582  18.011  0.00  0.00    +0.000 OA
ATOM      2  C   UNL     1       2.289   5.641  19.140  0.00  0.00    +0.000 C 
ATOM      3  N   UNL     1       2.435   6.784  19.909  0.00  0.00    +0.000 N 
ATOM      4  H   UNL     1       3.011   6.713  20.743  0.00  0.00    +0.000 HD
ENDROOT
BRANCH   3   5
ATOM      5  C   UNL     1       1.949   8.072  19.570  0.00  0.00    +0.000 A 
ATOM      6  C   UNL     1       2.170   8.673  18.335  0.00  0.00    +0.000 A 
ATOM      7  C   UNL     1       1.634   9.932  18.031  0.00  0.00    +0.000 A 
ATOM      8  C   UNL     1       0.856  10.639  18.946  0.00  0.00    +0.000 A 
ATOM      9  C   UNL     1       0.654  10.035  20.198  0.00  0.00    +0.000 A 
ATOM     10  C   UNL     1       1.181   8.766  20.506  0.00  0.00    +0.000 A 
BRANCH   8  11
ATOM     11  N   UNL     1       0.251  11.847  18.639  0.00  0.00    +0.000 N 
ATOM     12  C   UNL     1       0.823  13.129  19.091  0.00  0.00    +0.000 C 
ATOM     13  C   UNL     1       0.020  13.723  20.256  0.00  0.00    +0.000 C 
ATOM     14  O   UNL     1      -1.372  13.844  19.920  0.00  0.00    +0.000 OA
ATOM     15  C   UNL     1      -1.918  12.548  19.621  0.00  0.00    +0.000 C 
ATOM     16  C   UNL     1      -1.207  11.886  18.426  0.00  0.00    +0.000 C 
ENDBRANCH   8  11
ENDBRANCH   3   5
BRANCH   2  17
ATOM     17  C   UNL     1       2.802   4.375  19.727  0.00  0.00    +0.000 A 
ATOM     18  C   UNL     1       2.185   3.970  20.928  0.00  0.00    +0.000 A 
ATOM     19  C   UNL     1       2.598   2.818  21.591  0.00  0.00    +0.000 A 
ATOM     20  C   UNL     1       3.613   2.044  21.045  0.00  0.00    +0.000 A 
ATOM     21  C   UNL     1       4.234   2.442  19.857  0.00  0.00    +0.000 A 
ATOM     22  C   UNL     1       3.892   3.646  19.210  0.00  0.00    +0.000 A 
BRANCH  22  23
ATOM     23  N   UNL     1       4.591   4.035  18.026  0.00  0.00    +0.000 N 
ATOM     24  H   UNL     1       3.918   4.301  17.301  0.00  0.00    +0.000 HD
BRANCH  23  25
ATOM     25  C   UNL     1       5.632   5.005  17.981  0.00  0.00    +0.000 A 
ATOM     26  C   UNL     1       5.482   6.125  17.152  0.00  0.00    +0.000 A 
ATOM     27  C   UNL     1       6.431   7.151  17.166  0.00  0.00    +0.000 A 
ATOM     28  C   UNL     1       7.518   7.070  18.030  0.00  0.00    +0.000 A 
ATOM     29  F   UNL     1       8.418   8.061  18.056  0.00  0.00    +0.000 F 
ATOM     30  C   UNL     1       7.671   5.984  18.881  0.00  0.00    +0.000 A 
ATOM     31  C   UNL     1       6.722   4.961  18.866  0.00  0.00    +0.000 A 
ENDBRANCH  23  25
ENDBRANCH  22  23
ENDBRANCH   2  17
TORSDOF 5
ENDMDL
MODEL 3
REMARK VINA RESULT:      -8.7      0.867      1.564
REMARK  Name = 
REMARK  5 active torsions:
REMARK  status: ('A' for Active; 'I' for Inactive)
REMARK    1  A    between atoms: C_2  and  C_16
REMARK    2  A    between atoms: N_3  and  C_4
REMARK    3  A    between atoms: C_7  and  N_8
REMARK    4  A    between atoms: C_21  and  N_22
REMARK    5  A    between atoms: N_22  and  C_23
REMARK                            x       y       z     vdW  Elec       q    Type
REMARK                         _______ _______ _______ _____ _____    ______ ____
ROOT
ATOM      1  O   UNL     1       2.503   7.374  19.073  0.00  0.00    +0.000 OA
ATOM      2  C   UNL     1       2.006   6.762  20.013  0.00  0.00    +0.000 C 
ATOM      3  N   UNL     1       1.240   7.304  21.032  0.00  0.00    +0.000 N 
ATOM      4  H   UNL     1       1.052   6.715  21.837  0.00  0.00    +0.000 HD
ENDROOT
BRANCH   3   5
ATOM      5  C   UNL     1       0.798   8.649  21.101  0.00  0.00    +0.000 A 
ATOM      6  C   UNL     1       1.101   9.606  20.138  0.00  0.00    +0.000 A 
ATOM      7  C   UNL     1       0.606  10.914  20.228  0.00  0.00    +0.000 A 
ATOM      8  C   UNL     1      -0.211  11.319  21.283  0.00  0.00    +0.000 A 
ATOM      9  C   UNL     1      -0.497  10.353  22.262  0.00  0.00    +0.000 A 
ATOM     10  C   UNL     1      -0.012   9.034  22.171  0.00  0.00    +0.000 A 
BRANCH   8  11
ATOM     11  N   UNL     1      -0.775  12.582  21.350  0.00  0.00    +0.000 N 
ATOM     12  C   UNL     1      -0.052  13.773  20.867  0.00  0.00    +0.000 C 
ATOM     13  C   UNL     1       0.482  14.618  22.031  0.00  0.00    +0.000 C 
ATOM     14  O   UNL     1      -0.569  14.963  22.948  0.00  0.00    +0.000 OA
ATOM     15  C   UNL     1      -1.151  13.769  23.498  0.00  0.00    +0.000 C 
ATOM     16  C   UNL     1      -1.763  12.872  22.406  0.00  0.00    +0.000 C 
ENDBRANCH   8  11
ENDBRANCH   3   5
BRANCH   2  17
ATOM     17  C   UNL     1       2.287   5.304  20.097  0.00  0.00    +0.000 A 
ATOM     18  C   UNL     1       1.239   4.514  20.612  0.00  0.00    +0.000 A 
ATOM     19  C   UNL     1       1.390   3.139  20.768  0.00  0.00    +0.000 A 
ATOM     20  C   UNL     1       2.581   2.537  20.386  0.00  0.00    +0.000 A 
ATOM     21  C   UNL     1       3.627   3.314  19.881  0.00  0.00    +0.000 A 
ATOM     22  C   UNL     1       3.530   4.717  19.788  0.00  0.00    +0.000 A 
BRANCH  22  23
ATOM     23  N   UNL     1       4.646   5.472  19.313  0.00  0.00    +0.000 N 
ATOM     24  H   UNL     1       5.362   5.524  20.044  0.00  0.00    +0.000 HD
BRANCH  23  25
ATOM     25  C   UNL     1       5.337   5.217  18.094  0.00  0.00    +0.000 A 
ATOM     26  C   UNL     1       4.739   5.590  16.883  0.00  0.00    +0.000 A 
ATOM     27  C   UNL     1       5.435   5.457  15.678  0.00  0.00    +0.000 A 
ATOM     28  C   UNL     1       6.739   4.976  15.687  0.00  0.00    +0.000 A 
ATOM     29  F   UNL     1       7.411   4.865  14.534  0.00  0.00    +0.000 F 
ATOM     30  C   UNL     1       7.362   4.628  16.878  0.00  0.00    +0.000 A 
ATOM     31  C   UNL     1       6.666   4.763  18.080  0.00  0.00    +0.000 A 
ENDBRANCH  23  25
ENDBRANCH  22  23
ENDBRANCH   2  17
TORSDOF 5
ENDMDL
MODEL 4
REMARK VINA RESULT:      -8.7      1.236      1.921
REMARK  Name = 
REMARK  5 active torsions:
REMARK  status: ('A' for Active; 'I' for Inactive)
REMARK    1  A    between atoms: C_2  and  C_16
REMARK    2  A    between atoms: N_3  and  C_4
REMARK    3  A    between atoms: C_7  and  N_8
REMARK    4  A    between atoms: C_21  and  N_22
REMARK    5  A    between atoms: N_22  and  C_23
REMARK                            x       y       z     vdW  Elec       q    Type
REMARK                         _______ _______ _______ _____ _____    ______ ____
ROOT
ATOM      1  O   UNL     1       2.536   7.184  18.845  0.00  0.00    +0.000 OA
ATOM      2  C   UNL     1       2.084   6.685  19.871  0.00  0.00    +0.000 C 
ATOM      3  N   UNL     1       1.408   7.351  20.879  0.00  0.00    +0.000 N 
ATOM      4  H   UNL     1       1.255   6.849  21.748  0.00  0.00    +0.000 HD
ENDROOT
BRANCH   3   5
ATOM      5  C   UNL     1       1.016   8.713  20.845  0.00  0.00    +0.000 A 
ATOM      6  C   UNL     1       1.048   9.491  19.692  0.00  0.00    +0.000 A 
ATOM      7  C   UNL     1       0.612  10.823  19.699  0.00  0.00    +0.000 A 
ATOM      8  C   UNL     1       0.126  11.431  20.856  0.00  0.00    +0.000 A 
ATOM      9  C   UNL     1       0.115  10.645  22.021  0.00  0.00    +0.000 A 
ATOM     10  C   UNL     1       0.542   9.303  22.018  0.00  0.00    +0.000 A 
BRANCH   8  11
ATOM     11  N   UNL     1      -0.384  12.718  20.867  0.00  0.00    +0.000 N 
ATOM     12  C   UNL     1      -0.724  13.421  19.615  0.00  0.00    +0.000 C 
ATOM     13  C   UNL     1       0.318  14.492  19.270  0.00  0.00    +0.000 C 
ATOM     14  O   UNL     1       0.508  15.405  20.364  0.00  0.00    +0.000 OA
ATOM     15  C   UNL     1       0.973  14.692  21.522  0.00  0.00    +0.000 C 
ATOM     16  C   UNL     1      -0.034  13.620  21.981  0.00  0.00    +0.000 C 
ENDBRANCH   8  11
ENDBRANCH   3   5
BRANCH   2  17
ATOM     17  C   UNL     1       2.321   5.231  20.078  0.00  0.00    +0.000 A 
ATOM     18  C   UNL     1       1.231   4.509  20.606  0.00  0.00    +0.000 A 
ATOM     19  C   UNL     1       1.339   3.147  20.874  0.00  0.00    +0.000 A 
ATOM     20  C   UNL     1       2.526   2.488  20.590  0.00  0.00    +0.000 A 
ATOM     21  C   UNL     1       3.614   3.198  20.072  0.00  0.00    +0.000 A 
ATOM     22  C   UNL     1       3.559   4.592  19.869  0.00  0.00    +0.000 A 
BRANCH  22  23
ATOM     23  N   UNL     1       4.713   5.280  19.385  0.00  0.00    +0.000 N 
ATOM     24  H   UNL     1       5.437   5.291  20.111  0.00  0.00    +0.000 HD
BRANCH  23  25
ATOM     25  C   UNL     1       5.380   4.986  18.161  0.00  0.00    +0.000 A 
ATOM     26  C   UNL     1       4.659   5.051  16.962  0.00  0.00    +0.000 A 
ATOM     27  C   UNL     1       5.305   4.877  15.735  0.00  0.00    +0.000 A 
ATOM     28  C   UNL     1       6.679   4.665  15.706  0.00  0.00    +0.000 A 
ATOM     29  F   UNL     1       7.301   4.516  14.529  0.00  0.00    +0.000 F 
ATOM     30  C   UNL     1       7.418   4.626  16.880  0.00  0.00    +0.000 A 
ATOM     31  C   UNL     1       6.771   4.800  18.104  0.00  0.00    +0.000 A 
ENDBRANCH  23  25
ENDBRANCH  22  23
ENDBRANCH   2  17
TORSDOF 5
ENDMDL
MODEL 5
REMARK VINA RESULT:      -8.7      1.447      2.062
REMARK  Name = 
REMARK  5 active torsions:
REMARK  status: ('A' for Active; 'I' for Inactive)
REMARK    1  A    between atoms: C_2  and  C_16
REMARK    2  A    between atoms: N_3  and  C_4
REMARK    3  A    between atoms: C_7  and  N_8
REMARK    4  A    between atoms: C_21  and  N_22
REMARK    5  A    between atoms: N_22  and  C_23
REMARK                            x       y       z     vdW  Elec       q    Type
REMARK                         _______ _______ _______ _____ _____    ______ ____
ROOT
ATOM      1  O   UNL     1       2.743   7.211  19.022  0.00  0.00    +0.000 OA
ATOM      2  C   UNL     1       2.155   6.660  19.947  0.00  0.00    +0.000 C 
ATOM      3  N   UNL     1       1.367   7.278  20.903  0.00  0.00    +0.000 N 
ATOM      4  H   UNL     1       1.095   6.726  21.710  0.00  0.00    +0.000 HD
ENDROOT
BRANCH   3   5
ATOM      5  C   UNL     1       1.007   8.649  20.910  0.00  0.00    +0.000 A 
ATOM      6  C   UNL     1       0.622   9.335  22.058  0.00  0.00    +0.000 A 
ATOM      7  C   UNL     1       0.314  10.702  22.022  0.00  0.00    +0.000 A 
ATOM      8  C   UNL     1       0.378  11.438  20.840  0.00  0.00    +0.000 A 
ATOM      9  C   UNL     1       0.748  10.735  19.682  0.00  0.00    +0.000 A 
ATOM     10  C   UNL     1       1.069   9.365  19.713  0.00  0.00    +0.000 A 
BRANCH   8  11
ATOM     11  N   UNL     1       0.156  12.804  20.797  0.00  0.00    +0.000 N 
ATOM     12  C   UNL     1      -0.877  13.387  19.920  0.00  0.00    +0.000 C 
ATOM     13  C   UNL     1      -0.255  14.068  18.694  0.00  0.00    +0.000 C 
ATOM     14  O   UNL     1       0.730  15.038  19.082  0.00  0.00    +0.000 OA
ATOM     15  C   UNL     1       1.787  14.398  19.816  0.00  0.00    +0.000 C 
ATOM     16  C   UNL     1       1.269  13.723  21.100  0.00  0.00    +0.000 C 
ENDBRANCH   8  11
ENDBRANCH   3   5
BRANCH   2  17
ATOM     17  C   UNL     1       2.338   5.190  20.086  0.00  0.00    +0.000 A 
ATOM     18  C   UNL     1       1.216   4.482  20.564  0.00  0.00    +0.000 A 
ATOM     19  C   UNL     1       1.271   3.107  20.767  0.00  0.00    +0.000 A 
ATOM     20  C   UNL     1       2.439   2.420  20.466  0.00  0.00    +0.000 A 
ATOM     21  C   UNL     1       3.558   3.115  19.997  0.00  0.00    +0.000 A 
ATOM     22  C   UNL     1       3.556   4.518  19.861  0.00  0.00    +0.000 A 
BRANCH  22  23
ATOM     23  N   UNL     1       4.740   5.187  19.427  0.00  0.00    +0.000 N 
ATOM     24  H   UNL     1       5.487   5.046  20.114  0.00  0.00    +0.000 HD
BRANCH  23  25
ATOM     25  C   UNL     1       5.341   5.023  18.145  0.00  0.00    +0.000 A 
ATOM     26  C   UNL     1       6.728   4.845  18.063  0.00  0.00    +0.000 A 
ATOM     27  C   UNL     1       7.336   4.570  16.835  0.00  0.00    +0.000 A 
ATOM     28  C   UNL     1       6.554   4.448  15.693  0.00  0.00    +0.000 A 
ATOM     29  F   UNL     1       7.135   4.167  14.519  0.00  0.00    +0.000 F 
ATOM     30  C   UNL     1       5.174   4.592  15.756  0.00  0.00    +0.000 A 
ATOM     31  C   UNL     1       4.569   4.864  16.983  0.00  0.00    +0.000 A 
ENDBRANCH  23  25
ENDBRANCH  22  23
ENDBRANCH   2  17
TORSDOF 5
ENDMDL
MODEL 6
REMARK VINA RESULT:      -8.6      2.577      4.556
REMARK  Name = 
REMARK  5 active torsions:
REMARK  status: ('A' for Active; 'I' for Inactive)
REMARK    1  A    between atoms: C_2  and  C_16
REMARK    2  A    between atoms: N_3  and  C_4
REMARK    3  A    between atoms: C_7  and  N_8
REMARK    4  A    between atoms: C_21  and  N_22
REMARK    5  A    between atoms: N_22  and  C_23
REMARK                            x       y       z     vdW  Elec       q    Type
REMARK                         _______ _______ _______ _____ _____    ______ ____
ROOT
ATOM      1  O   UNL     1       3.798   6.009  19.601  0.00  0.00    +0.000 OA
ATOM      2  C   UNL     1       3.831   6.349  18.423  0.00  0.00    +0.000 C 
ATOM      3  N   UNL     1       3.037   7.313  17.824  0.00  0.00    +0.000 N 
ATOM      4  H   UNL     1       3.046   7.359  16.810  0.00  0.00    +0.000 HD
ENDROOT
BRANCH   3   5
ATOM      5  C   UNL     1       2.123   8.161  18.499  0.00  0.00    +0.000 A 
ATOM      6  C   UNL     1       1.818   8.036  19.851  0.00  0.00    +0.000 A 
ATOM      7  C   UNL     1       0.938   8.925  20.484  0.00  0.00    +0.000 A 
ATOM      8  C   UNL     1       0.330   9.973  19.795  0.00  0.00    +0.000 A 
ATOM      9  C   UNL     1       0.629  10.081  18.426  0.00  0.00    +0.000 A 
ATOM     10  C   UNL     1       1.520   9.198  17.787  0.00  0.00    +0.000 A 
BRANCH   8  11
ATOM     11  N   UNL     1      -0.478  10.909  20.418  0.00  0.00    +0.000 N 
ATOM     12  C   UNL     1      -1.508  11.654  19.669  0.00  0.00    +0.000 C 
ATOM     13  C   UNL     1      -1.075  13.103  19.409  0.00  0.00    +0.000 C 
ATOM     14  O   UNL     1      -0.714  13.766  20.631  0.00  0.00    +0.000 OA
ATOM     15  C   UNL     1       0.385  13.081  21.254  0.00  0.00    +0.000 C 
ATOM     16  C   UNL     1       0.032  11.623  21.603  0.00  0.00    +0.000 C 
ENDBRANCH   8  11
ENDBRANCH   3   5
BRANCH   2  17
ATOM     17  C   UNL     1       4.784   5.629  17.536  0.00  0.00    +0.000 A 
ATOM     18  C   UNL     1       6.010   6.284  17.304  0.00  0.00    +0.000 A 
ATOM     19  C   UNL     1       6.972   5.727  16.467  0.00  0.00    +0.000 A 
ATOM     20  C   UNL     1       6.730   4.494  15.877  0.00  0.00    +0.000 A 
ATOM     21  C   UNL     1       5.514   3.840  16.096  0.00  0.00    +0.000 A 
ATOM     22  C   UNL     1       4.490   4.420  16.873  0.00  0.00    +0.000 A 
BRANCH  22  23
ATOM     23  N   UNL     1       3.246   3.736  17.026  0.00  0.00    +0.000 N 
ATOM     24  H   UNL     1       3.234   2.906  16.425  0.00  0.00    +0.000 HD
BRANCH  23  25
ATOM     25  C   UNL     1       2.691   3.332  18.274  0.00  0.00    +0.000 A 
ATOM     26  C   UNL     1       3.521   2.712  19.218  0.00  0.00    +0.000 A 
ATOM     27  C   UNL     1       3.037   2.405  20.494  0.00  0.00    +0.000 A 
ATOM     28  C   UNL     1       1.732   2.742  20.834  0.00  0.00    +0.000 A 
ATOM     29  F   UNL     1       1.275   2.462  22.062  0.00  0.00    +0.000 F 
ATOM     30  C   UNL     1       0.902   3.382  19.924  0.00  0.00    +0.000 A 
ATOM     31  C   UNL     1       1.387   3.690  18.652  0.00  0.00    +0.000 A 
ENDBRANCH  23  25
ENDBRANCH  22  23
ENDBRANCH   2  17
TORSDOF 5
ENDMDL
MODEL 7
REMARK VINA RESULT:      -8.6      3.453      9.344
REMARK  Name = 
REMARK  5 active torsions:
REMARK  status: ('A' for Active; 'I' for Inactive)
REMARK    1  A    between atoms: C_2  and  C_16
REMARK    2  A    between atoms: N_3  and  C_4
REMARK    3  A    between atoms: C_7  and  N_8
REMARK    4  A    between atoms: C_21  and  N_22
REMARK    5  A    between atoms: N_22  and  C_23
REMARK                            x       y       z     vdW  Elec       q    Type
REMARK                         _______ _______ _______ _____ _____    ______ ____
ROOT
ATOM      1  O   UNL     1       1.468   9.416  18.920  0.00  0.00    +0.000 OA
ATOM      2  C   UNL     1       1.315   8.853  19.999  0.00  0.00    +0.000 C 
ATOM      3  N   UNL     1       1.794   7.601  20.346  0.00  0.00    +0.000 N 
ATOM      4  H   UNL     1       1.437   7.187  21.202  0.00  0.00    +0.000 HD
ENDROOT
BRANCH   3   5
ATOM      5  C   UNL     1       2.649   6.797  19.549  0.00  0.00    +0.000 A 
ATOM      6  C   UNL     1       3.136   7.195  18.309  0.00  0.00    +0.000 A 
ATOM      7  C   UNL     1       4.012   6.383  17.576  0.00  0.00    +0.000 A 
ATOM      8  C   UNL     1       4.436   5.142  18.051  0.00  0.00    +0.000 A 
ATOM      9  C   UNL     1       3.923   4.739  19.296  0.00  0.00    +0.000 A 
ATOM     10  C   UNL     1       3.052   5.556  20.042  0.00  0.00    +0.000 A 
BRANCH   8  11
ATOM     11  N   UNL     1       5.362   4.360  17.381  0.00  0.00    +0.000 N 
ATOM     12  C   UNL     1       6.807   4.643  17.461  0.00  0.00    +0.000 C 
ATOM     13  C   UNL     1       7.326   5.286  16.168  0.00  0.00    +0.000 C 
ATOM     14  O   UNL     1       6.998   4.486  15.021  0.00  0.00    +0.000 OA
ATOM     15  C   UNL     1       5.571   4.354  14.908  0.00  0.00    +0.000 C 
ATOM     16  C   UNL     1       4.956   3.669  16.143  0.00  0.00    +0.000 C 
ENDBRANCH   8  11
ENDBRANCH   3   5
BRANCH   2  17
ATOM     17  C   UNL     1       0.500   9.560  21.022  0.00  0.00    +0.000 A 
ATOM     18  C   UNL     1       0.547   9.010  22.320  0.00  0.00    +0.000 A 
ATOM     19  C   UNL     1      -0.197   9.563  23.358  0.00  0.00    +0.000 A 
ATOM     20  C   UNL     1      -0.973  10.688  23.117  0.00  0.00    +0.000 A 
ATOM     21  C   UNL     1      -1.031  11.236  21.832  0.00  0.00    +0.000 A 
ATOM     22  C   UNL     1      -0.353  10.647  20.745  0.00  0.00    +0.000 A 
BRANCH  22  23
ATOM     23  N   UNL     1      -0.483  11.215  19.441  0.00  0.00    +0.000 N 
ATOM     24  H   UNL     1       0.371  11.039  18.902  0.00  0.00    +0.000 HD
BRANCH  23  25
ATOM     25  C   UNL     1      -1.571  10.970  18.555  0.00  0.00    +0.000 A 
ATOM     26  C   UNL     1      -2.738  11.735  18.685  0.00  0.00    +0.000 A 
ATOM     27  C   UNL     1      -3.781  11.599  17.764  0.00  0.00    +0.000 A 
ATOM     28  C   UNL     1      -3.646  10.718  16.698  0.00  0.00    +0.000 A 
ATOM     29  F   UNL     1      -4.639  10.600  15.806  0.00  0.00    +0.000 F 
ATOM     30  C   UNL     1      -2.487   9.971  16.533  0.00  0.00    +0.000 A 
ATOM     31  C   UNL     1      -1.447  10.109  17.453  0.00  0.00    +0.000 A 
ENDBRANCH  23  25
ENDBRANCH  22  23
ENDBRANCH   2  17
TORSDOF 5
ENDMDL
MODEL 8
REMARK VINA RESULT:      -8.6      2.628      4.698
REMARK  Name = 
REMARK  5 active torsions:
REMARK  status: ('A' for Active; 'I' for Inactive)
REMARK    1  A    between atoms: C_2  and  C_16
REMARK    2  A    between atoms: N_3  and  C_4
REMARK    3  A    between atoms: C_7  and  N_8
REMARK    4  A    between atoms: C_21  and  N_22
REMARK    5  A    between atoms: N_22  and  C_23
REMARK                            x       y       z     vdW  Elec       q    Type
REMARK                         _______ _______ _______ _____ _____    ______ ____
ROOT
ATOM      1  O   UNL     1       5.440   7.206  18.064  0.00  0.00    +0.000 OA
ATOM      2  C   UNL     1       4.632   6.550  17.415  0.00  0.00    +0.000 C 
ATOM      3  N   UNL     1       3.252   6.628  17.503  0.00  0.00    +0.000 N 
ATOM      4  H   UNL     1       2.715   5.899  17.043  0.00  0.00    +0.000 HD
ENDROOT
BRANCH   3   5
ATOM      5  C   UNL     1       2.529   7.569  18.279  0.00  0.00    +0.000 A 
ATOM      6  C   UNL     1       2.220   7.378  19.622  0.00  0.00    +0.000 A 
ATOM      7  C   UNL     1       1.539   8.357  20.359  0.00  0.00    +0.000 A 
ATOM      8  C   UNL     1       1.139   9.563  19.785  0.00  0.00    +0.000 A 
ATOM      9  C   UNL     1       1.438   9.740  18.423  0.00  0.00    +0.000 A 
ATOM     10  C   UNL     1       2.132   8.766  17.681  0.00  0.00    +0.000 A 
BRANCH   8  11
ATOM     11  N   UNL     1       0.537  10.575  20.513  0.00  0.00    +0.000 N 
ATOM     12  C   UNL     1      -0.930  10.647  20.660  0.00  0.00    +0.000 C 
ATOM     13  C   UNL     1      -1.529  11.755  19.784  0.00  0.00    +0.000 C 
ATOM     14  O   UNL     1      -0.900  13.020  20.044  0.00  0.00    +0.000 OA
ATOM     15  C   UNL     1       0.505  12.938  19.754  0.00  0.00    +0.000 C 
ATOM     16  C   UNL     1       1.212  11.881  20.624  0.00  0.00    +0.000 C 
ENDBRANCH   8  11
ENDBRANCH   3   5
BRANCH   2  17
ATOM     17  C   UNL     1       5.182   5.538  16.473  0.00  0.00    +0.000 A 
ATOM     18  C   UNL     1       5.389   5.989  15.153  0.00  0.00    +0.000 A 
ATOM     19  C   UNL     1       5.870   5.128  14.171  0.00  0.00    +0.000 A 
ATOM     20  C   UNL     1       6.176   3.816  14.505  0.00  0.00    +0.000 A 
ATOM     21  C   UNL     1       5.968   3.360  15.810  0.00  0.00    +0.000 A 
ATOM     22  C   UNL     1       5.405   4.186  16.803  0.00  0.00    +0.000 A 
BRANCH  22  23
ATOM     23  N   UNL     1       5.164   3.659  18.108  0.00  0.00    +0.000 N 
ATOM     24  H   UNL     1       5.632   4.243  18.807  0.00  0.00    +0.000 HD
BRANCH  23  25
ATOM     25  C   UNL     1       3.876   3.358  18.637  0.00  0.00    +0.000 A 
ATOM     26  C   UNL     1       3.514   3.884  19.884  0.00  0.00    +0.000 A 
ATOM     27  C   UNL     1       2.221   3.702  20.382  0.00  0.00    +0.000 A 
ATOM     28  C   UNL     1       1.281   3.017  19.621  0.00  0.00    +0.000 A 
ATOM     29  F   UNL     1       0.037   2.858  20.091  0.00  0.00    +0.000 F 
ATOM     30  C   UNL     1       1.610   2.512  18.370  0.00  0.00    +0.000 A 
ATOM     31  C   UNL     1       2.901   2.696  17.874  0.00  0.00    +0.000 A 
ENDBRANCH  23  25
ENDBRANCH  22  23
ENDBRANCH   2  17
TORSDOF 5
ENDMDL
MODEL 9
REMARK VINA RESULT:      -8.6      0.348      1.304
REMARK  Name = 
REMARK  5 active torsions:
REMARK  status: ('A' for Active; 'I' for Inactive)
REMARK    1  A    between atoms: C_2  and  C_16
REMARK    2  A    between atoms: N_3  and  C_4
REMARK    3  A    between atoms: C_7  and  N_8
REMARK    4  A    between atoms: C_21  and  N_22
REMARK    5  A    between atoms: N_22  and  C_23
REMARK                            x       y       z     vdW  Elec       q    Type
REMARK                         _______ _______ _______ _____ _____    ______ ____
ROOT
ATOM      1  O   UNL     1       2.289   7.273  18.999  0.00  0.00    +0.000 OA
ATOM      2  C   UNL     1       1.944   6.672  20.012  0.00  0.00    +0.000 C 
ATOM      3  N   UNL     1       1.302   7.219  21.111  0.00  0.00    +0.000 N 
ATOM      4  H   UNL     1       1.244   6.646  21.948  0.00  0.00    +0.000 HD
ENDROOT
BRANCH   3   5
ATOM      5  C   UNL     1       0.826   8.550  21.207  0.00  0.00    +0.000 A 
ATOM      6  C   UNL     1       0.215   9.065  22.346  0.00  0.00    +0.000 A 
ATOM      7  C   UNL     1      -0.203  10.401  22.408  0.00  0.00    +0.000 A 
ATOM      8  C   UNL     1      -0.029  11.276  21.337  0.00  0.00    +0.000 A 
ATOM      9  C   UNL     1       0.570  10.744  20.183  0.00  0.00    +0.000 A 
ATOM     10  C   UNL     1       1.003   9.405  20.118  0.00  0.00    +0.000 A 
BRANCH   8  11
ATOM     11  N   UNL     1      -0.362  12.619  21.405  0.00  0.00    +0.000 N 
ATOM     12  C   UNL     1      -0.663  13.271  22.693  0.00  0.00    +0.000 C 
ATOM     13  C   UNL     1      -2.168  13.517  22.861  0.00  0.00    +0.000 C 
ATOM     14  O   UNL     1      -2.701  14.254  21.748  0.00  0.00    +0.000 OA
ATOM     15  C   UNL     1      -2.507  13.514  20.532  0.00  0.00    +0.000 C 
ATOM     16  C   UNL     1      -1.015  13.257  20.247  0.00  0.00    +0.000 C 
ENDBRANCH   8  11
ENDBRANCH   3   5
BRANCH   2  17
ATOM     17  C   UNL     1       2.285   5.227  20.092  0.00  0.00    +0.000 A 
ATOM     18  C   UNL     1       1.275   4.394  20.617  0.00  0.00    +0.000 A 
ATOM     19  C   UNL     1       1.484   3.027  20.771  0.00  0.00    +0.000 A 
ATOM     20  C   UNL     1       2.694   2.474  20.376  0.00  0.00    +0.000 A 
ATOM     21  C   UNL     1       3.703   3.293  19.861  0.00  0.00    +0.000 A 
ATOM     22  C   UNL     1       3.548   4.691  19.770  0.00  0.00    +0.000 A 
BRANCH  22  23
ATOM     23  N   UNL     1       4.627   5.491  19.284  0.00  0.00    +0.000 N 
ATOM     24  H   UNL     1       5.344   5.579  20.010  0.00  0.00    +0.000 HD
BRANCH  23  25
ATOM     25  C   UNL     1       5.322   5.258  18.063  0.00  0.00    +0.000 A 
ATOM     26  C   UNL     1       4.745   5.687  16.860  0.00  0.00    +0.000 A 
ATOM     27  C   UNL     1       5.447   5.576  15.657  0.00  0.00    +0.000 A 
ATOM     28  C   UNL     1       6.739   5.061  15.660  0.00  0.00    +0.000 A 
ATOM     29  F   UNL     1       7.418   4.971  14.509  0.00  0.00    +0.000 F 
ATOM     30  C   UNL     1       7.341   4.657  16.844  0.00  0.00    +0.000 A 
ATOM     31  C   UNL     1       6.638   4.770  18.044  0.00  0.00    +0.000 A 
ENDBRANCH  23  25
ENDBRANCH  22  23
ENDBRANCH   2  17
TORSDOF 5
ENDMDL
