MODEL 1
REMARK VINA RESULT:      -6.9      0.000      0.000
REMARK  Name = 
REMARK  9 active torsions:
REMARK  status: ('A' for Active; 'I' for Inactive)
REMARK    1  A    between atoms: C_1  and  C_2
REMARK    2  A    between atoms: C_5  and  C_6
REMARK    3  A    between atoms: C_6  and  N_7
REMARK    4  A    between atoms: C_8  and  C_10
REMARK    5  A    between atoms: C_10  and  C_11
REMARK    6  A    between atoms: C_11  and  S_12
REMARK    7  A    between atoms: S_12  and  C_13
REMARK    8  A    between atoms: C_13  and  C_14
REMARK    9  A    between atoms: C_17  and  C_18
REMARK                            x       y       z     vdW  Elec       q    Type
REMARK                         _______ _______ _______ _____ _____    ______ ____
ROOT
ATOM      1  N   UNL     1       3.254   3.357  17.093  0.00  0.00    +0.000 N 
ATOM      2  C   UNL     1       2.845   2.417  18.010  0.00  0.00    +0.000 C 
ATOM      3  O   UNL     1       3.534   1.465  18.357  0.00  0.00    +0.000 OA
ATOM      4  H   UNL     1       2.668   4.152  16.881  0.00  0.00    +0.000 HD
ENDROOT
BRANCH   1   5
ATOM      5  C   UNL     1       4.550   3.290  16.445  0.00  0.00    +0.000 C 
BRANCH   5  10
ATOM      6  C   UNL     1       7.682   8.033  17.767  0.00  0.00    +0.000 C 
ATOM      7  C   UNL     1       6.897   6.807  17.398  0.00  0.00    +0.000 A 
ATOM      8  C   UNL     1       5.896   6.859  16.422  0.00  0.00    +0.000 A 
ATOM      9  C   UNL     1       5.158   5.715  16.102  0.00  0.00    +0.000 A 
ATOM     10  C   UNL     1       5.407   4.495  16.747  0.00  0.00    +0.000 A 
ATOM     11  C   UNL     1       6.412   4.446  17.723  0.00  0.00    +0.000 A 
ATOM     12  C   UNL     1       7.149   5.592  18.044  0.00  0.00    +0.000 A 
ENDBRANCH   5  10
ENDBRANCH   1   5
BRANCH   2  13
ATOM     13  C   UNL     1       1.473   2.664  18.605  0.00  0.00    +0.000 C 
BRANCH  13  14
ATOM     14  C   UNL     1       1.289   4.096  19.101  0.00  0.00    +0.000 C 
BRANCH  14  15
ATOM     15  S   UNL     1       2.486   4.385  20.454  0.00  0.00    +0.000 S 
BRANCH  15  16
ATOM     16  C   UNL     1       3.521   5.691  19.717  0.00  0.00    +0.000 C 
BRANCH  16  17
ATOM     17  C   UNL     1       2.705   6.929  19.416  0.00  0.00    +0.000 A 
ATOM     18  C   UNL     1       2.720   7.506  18.137  0.00  0.00    +0.000 A 
ATOM     19  C   UNL     1       1.983   8.663  17.863  0.00  0.00    +0.000 A 
ATOM     20  C   UNL     1       1.221   9.276  18.865  0.00  0.00    +0.000 A 
ATOM     21  C   UNL     1       0.437  10.527  18.598  0.00  0.00    +0.000 C 
ATOM     22  C   UNL     1       1.207   8.704  20.142  0.00  0.00    +0.000 A 
ATOM     23  C   UNL     1       1.942   7.548  20.417  0.00  0.00    +0.000 A 
ENDBRANCH  16  17
ENDBRANCH  15  16
ENDBRANCH  14  15
ENDBRANCH  13  14
ENDBRANCH   2  13
TORSDOF 7
ENDMDL
MODEL 2
REMARK VINA RESULT:      -6.8      0.752      1.285
REMARK  Name = 
REMARK  9 active torsions:
REMARK  status: ('A' for Active; 'I' for Inactive)
REMARK    1  A    between atoms: C_1  and  C_2
REMARK    2  A    between atoms: C_5  and  C_6
REMARK    3  A    between atoms: C_6  and  N_7
REMARK    4  A    between atoms: C_8  and  C_10
REMARK    5  A    between atoms: C_10  and  C_11
REMARK    6  A    between atoms: C_11  and  S_12
REMARK    7  A    between atoms: S_12  and  C_13
REMARK    8  A    between atoms: C_13  and  C_14
REMARK    9  A    between atoms: C_17  and  C_18
REMARK                            x       y       z     vdW  Elec       q    Type
REMARK                         _______ _______ _______ _____ _____    ______ ____
ROOT
ATOM      1  N   UNL     1       3.542   3.306  17.773  0.00  0.00    +0.000 N 
ATOM      2  C   UNL     1       3.296   2.055  18.290  0.00  0.00    +0.000 C 
ATOM      3  O   UNL     1       3.923   1.054  17.964  0.00  0.00    +0.000 OA
ATOM      4  H   UNL     1       3.032   4.108  18.115  0.00  0.00    +0.000 HD
ENDROOT
BRANCH   1   5
ATOM      5  C   UNL     1       4.570   3.542  16.778  0.00  0.00    +0.000 C 
BRANCH   5  10
ATOM      6  C   UNL     1       7.978   8.155  17.850  0.00  0.00    +0.000 C 
ATOM      7  C   UNL     1       7.079   6.979  17.600  0.00  0.00    +0.000 A 
ATOM      8  C   UNL     1       7.143   5.839  18.407  0.00  0.00    +0.000 A 
ATOM      9  C   UNL     1       6.315   4.741  18.152  0.00  0.00    +0.000 A 
ATOM     10  C   UNL     1       5.402   4.762  17.087  0.00  0.00    +0.000 A 
ATOM     11  C   UNL     1       5.339   5.908  16.282  0.00  0.00    +0.000 A 
ATOM     12  C   UNL     1       6.170   7.005  16.538  0.00  0.00    +0.000 A 
ENDBRANCH   5  10
ENDBRANCH   1   5
BRANCH   2  13
ATOM     13  C   UNL     1       2.206   2.003  19.340  0.00  0.00    +0.000 C 
BRANCH  13  14
ATOM     14  C   UNL     1       1.096   3.023  19.095  0.00  0.00    +0.000 C 
BRANCH  14  15
ATOM     15  S   UNL     1       1.006   4.126  20.552  0.00  0.00    +0.000 S 
BRANCH  15  16
ATOM     16  C   UNL     1       2.553   5.070  20.357  0.00  0.00    +0.000 C 
BRANCH  16  17
ATOM     17  C   UNL     1       2.283   6.444  19.783  0.00  0.00    +0.000 A 
ATOM     18  C   UNL     1       2.743   6.791  18.504  0.00  0.00    +0.000 A 
ATOM     19  C   UNL     1       2.515   8.068  17.980  0.00  0.00    +0.000 A 
ATOM     20  C   UNL     1       1.828   9.031  18.729  0.00  0.00    +0.000 A 
ATOM     21  C   UNL     1       1.586  10.413  18.194  0.00  0.00    +0.000 C 
ATOM     22  C   UNL     1       1.370   8.689  20.006  0.00  0.00    +0.000 A 
ATOM     23  C   UNL     1       1.598   7.413  20.529  0.00  0.00    +0.000 A 
ENDBRANCH  16  17
ENDBRANCH  15  16
ENDBRANCH  14  15
ENDBRANCH  13  14
ENDBRANCH   2  13
TORSDOF 7
ENDMDL
MODEL 3
REMARK VINA RESULT:      -6.8      1.409      1.472
REMARK  Name = 
REMARK  9 active torsions:
REMARK  status: ('A' for Active; 'I' for Inactive)
REMARK    1  A    between atoms: C_1  and  C_2
REMARK    2  A    between atoms: C_5  and  C_6
REMARK    3  A    between atoms: C_6  and  N_7
REMARK    4  A    between atoms: C_8  and  C_10
REMARK    5  A    between atoms: C_10  and  C_11
REMARK    6  A    between atoms: C_11  and  S_12
REMARK    7  A    between atoms: S_12  and  C_13
REMARK    8  A    between atoms: C_13  and  C_14
REMARK    9  A    between atoms: C_17  and  C_18
REMARK                            x       y       z     vdW  Elec       q    Type
REMARK                         _______ _______ _______ _____ _____    ______ ____
ROOT
ATOM      1  N   UNL     1       3.885   3.319  18.780  0.00  0.00    +0.000 N 
ATOM      2  C   UNL     1       4.195   2.624  19.927  0.00  0.00    +0.000 C 
ATOM      3  O   UNL     1       5.230   1.985  20.071  0.00  0.00    +0.000 OA
ATOM      4  H   UNL     1       3.042   3.873  18.733  0.00  0.00    +0.000 HD
ENDROOT
BRANCH   1   5
ATOM      5  C   UNL     1       4.767   3.341  17.630  0.00  0.00    +0.000 C 
BRANCH   5  10
ATOM      6  C   UNL     1       7.890   8.271  17.607  0.00  0.00    +0.000 C 
ATOM      7  C   UNL     1       7.102   6.993  17.581  0.00  0.00    +0.000 A 
ATOM      8  C   UNL     1       5.940   6.877  16.810  0.00  0.00    +0.000 A 
ATOM      9  C   UNL     1       5.204   5.689  16.812  0.00  0.00    +0.000 A 
ATOM     10  C   UNL     1       5.615   4.589  17.579  0.00  0.00    +0.000 A 
ATOM     11  C   UNL     1       6.780   4.708  18.349  0.00  0.00    +0.000 A 
ATOM     12  C   UNL     1       7.516   5.899  18.348  0.00  0.00    +0.000 A 
ENDBRANCH   5  10
ENDBRANCH   1   5
BRANCH   2  13
ATOM     13  C   UNL     1       3.170   2.737  21.036  0.00  0.00    +0.000 C 
BRANCH  13  14
ATOM     14  C   UNL     1       1.759   2.372  20.582  0.00  0.00    +0.000 C 
BRANCH  14  15
ATOM     15  S   UNL     1       0.839   3.924  20.282  0.00  0.00    +0.000 S 
BRANCH  15  16
ATOM     16  C   UNL     1       2.013   5.148  20.951  0.00  0.00    +0.000 C 
BRANCH  16  17
ATOM     17  C   UNL     1       1.948   6.446  20.176  0.00  0.00    +0.000 A 
ATOM     18  C   UNL     1       2.469   6.533  18.877  0.00  0.00    +0.000 A 
ATOM     19  C   UNL     1       2.431   7.738  18.166  0.00  0.00    +0.000 A 
ATOM     20  C   UNL     1       1.876   8.886  18.744  0.00  0.00    +0.000 A 
ATOM     21  C   UNL     1       1.839  10.194  18.008  0.00  0.00    +0.000 C 
ATOM     22  C   UNL     1       1.358   8.802  20.041  0.00  0.00    +0.000 A 
ATOM     23  C   UNL     1       1.396   7.599  20.751  0.00  0.00    +0.000 A 
ENDBRANCH  16  17
ENDBRANCH  15  16
ENDBRANCH  14  15
ENDBRANCH  13  14
ENDBRANCH   2  13
TORSDOF 7
ENDMDL
MODEL 4
REMARK VINA RESULT:      -6.7      0.998      1.743
REMARK  Name = 
REMARK  9 active torsions:
REMARK  status: ('A' for Active; 'I' for Inactive)
REMARK    1  A    between atoms: C_1  and  C_2
REMARK    2  A    between atoms: C_5  and  C_6
REMARK    3  A    between atoms: C_6  and  N_7
REMARK    4  A    between atoms: C_8  and  C_10
REMARK    5  A    between atoms: C_10  and  C_11
REMARK    6  A    between atoms: C_11  and  S_12
REMARK    7  A    between atoms: S_12  and  C_13
REMARK    8  A    between atoms: C_13  and  C_14
REMARK    9  A    between atoms: C_17  and  C_18
REMARK                            x       y       z     vdW  Elec       q    Type
REMARK                         _______ _______ _______ _____ _____    ______ ____
ROOT
ATOM      1  N   UNL     1       3.476   3.192  17.883  0.00  0.00    +0.000 N 
ATOM      2  C   UNL     1       3.633   2.547  19.089  0.00  0.00    +0.000 C 
ATOM      3  O   UNL     1       4.693   2.061  19.463  0.00  0.00    +0.000 OA
ATOM      4  H   UNL     1       2.594   3.621  17.646  0.00  0.00    +0.000 HD
ENDROOT
BRANCH   1   5
ATOM      5  C   UNL     1       4.569   3.340  16.941  0.00  0.00    +0.000 C 
BRANCH   5  10
ATOM      6  C   UNL     1       7.824   8.124  17.692  0.00  0.00    +0.000 C 
ATOM      7  C   UNL     1       6.978   6.894  17.534  0.00  0.00    +0.000 A 
ATOM      8  C   UNL     1       7.460   5.635  17.903  0.00  0.00    +0.000 A 
ATOM      9  C   UNL     1       6.670   4.494  17.731  0.00  0.00    +0.000 A 
ATOM     10  C   UNL     1       5.379   4.588  17.191  0.00  0.00    +0.000 A 
ATOM     11  C   UNL     1       4.898   5.852  16.824  0.00  0.00    +0.000 A 
ATOM     12  C   UNL     1       5.691   6.994  16.995  0.00  0.00    +0.000 A 
ENDBRANCH   5  10
ENDBRANCH   1   5
BRANCH   2  13
ATOM     13  C   UNL     1       2.392   2.513  19.957  0.00  0.00    +0.000 C 
BRANCH  13  14
ATOM     14  C   UNL     1       2.411   3.566  21.063  0.00  0.00    +0.000 C 
BRANCH  14  15
ATOM     15  S   UNL     1       1.389   4.981  20.516  0.00  0.00    +0.000 S 
BRANCH  15  16
ATOM     16  C   UNL     1       2.664   6.057  19.783  0.00  0.00    +0.000 C 
BRANCH  16  17
ATOM     17  C   UNL     1       2.125   7.448  19.531  0.00  0.00    +0.000 A 
ATOM     18  C   UNL     1       1.463   8.155  20.546  0.00  0.00    +0.000 A 
ATOM     19  C   UNL     1       0.943   9.433  20.310  0.00  0.00    +0.000 A 
ATOM     20  C   UNL     1       1.069  10.029  19.050  0.00  0.00    +0.000 A 
ATOM     21  C   UNL     1       0.505  11.391  18.768  0.00  0.00    +0.000 C 
ATOM     22  C   UNL     1       1.727   9.325  18.036  0.00  0.00    +0.000 A 
ATOM     23  C   UNL     1       2.246   8.049  18.271  0.00  0.00    +0.000 A 
ENDBRANCH  16  17
ENDBRANCH  15  16
ENDBRANCH  14  15
ENDBRANCH  13  14
ENDBRANCH   2  13
TORSDOF 7
ENDMDL
MODEL 5
REMARK VINA RESULT:      -6.7      2.224      4.892
REMARK  Name = 
REMARK  9 active torsions:
REMARK  status: ('A' for Active; 'I' for Inactive)
REMARK    1  A    between atoms: C_1  and  C_2
REMARK    2  A    between atoms: C_5  and  C_6
REMARK    3  A    between atoms: C_6  and  N_7
REMARK    4  A    between atoms: C_8  and  C_10
REMARK    5  A    between atoms: C_10  and  C_11
REMARK    6  A    between atoms: C_11  and  S_12
REMARK    7  A    between atoms: S_12  and  C_13
REMARK    8  A    between atoms: C_13  and  C_14
REMARK    9  A    between atoms: C_17  and  C_18
REMARK                            x       y       z     vdW  Elec       q    Type
REMARK                         _______ _______ _______ _____ _____    ______ ____
ROOT
ATOM      1  N   UNL     1       5.168   3.327  16.694  0.00  0.00    +0.000 N 
ATOM      2  C   UNL     1       5.810   3.959  15.653  0.00  0.00    +0.000 C 
ATOM      3  O   UNL     1       5.282   4.185  14.571  0.00  0.00    +0.000 OA
ATOM      4  H   UNL     1       5.632   3.212  17.584  0.00  0.00    +0.000 HD
ENDROOT
BRANCH   1   5
ATOM      5  C   UNL     1       3.799   2.861  16.587  0.00  0.00    +0.000 C 
BRANCH   5  10
ATOM      6  C   UNL     1       1.275   2.673  21.845  0.00  0.00    +0.000 C 
ATOM      7  C   UNL     1       1.919   2.686  20.489  0.00  0.00    +0.000 A 
ATOM      8  C   UNL     1       3.257   2.315  20.323  0.00  0.00    +0.000 A 
ATOM      9  C   UNL     1       3.852   2.351  19.059  0.00  0.00    +0.000 A 
ATOM     10  C   UNL     1       3.121   2.754  17.932  0.00  0.00    +0.000 A 
ATOM     11  C   UNL     1       1.780   3.123  18.101  0.00  0.00    +0.000 A 
ATOM     12  C   UNL     1       1.186   3.089  19.368  0.00  0.00    +0.000 A 
ENDBRANCH   5  10
ENDBRANCH   1   5
BRANCH   2  13
ATOM     13  C   UNL     1       7.227   4.401  15.954  0.00  0.00    +0.000 C 
BRANCH  13  14
ATOM     14  C   UNL     1       7.444   4.740  17.427  0.00  0.00    +0.000 C 
BRANCH  14  15
ATOM     15  S   UNL     1       7.335   6.557  17.614  0.00  0.00    +0.000 S 
BRANCH  15  16
ATOM     16  C   UNL     1       5.739   6.886  16.797  0.00  0.00    +0.000 C 
BRANCH  16  17
ATOM     17  C   UNL     1       4.592   6.774  17.778  0.00  0.00    +0.000 A 
ATOM     18  C   UNL     1       3.427   7.537  17.609  0.00  0.00    +0.000 A 
ATOM     19  C   UNL     1       2.374   7.452  18.527  0.00  0.00    +0.000 A 
ATOM     20  C   UNL     1       2.467   6.608  19.640  0.00  0.00    +0.000 A 
ATOM     21  C   UNL     1       1.357   6.514  20.646  0.00  0.00    +0.000 C 
ATOM     22  C   UNL     1       3.629   5.849  19.812  0.00  0.00    +0.000 A 
ATOM     23  C   UNL     1       4.681   5.932  18.896  0.00  0.00    +0.000 A 
ENDBRANCH  16  17
ENDBRANCH  15  16
ENDBRANCH  14  15
ENDBRANCH  13  14
ENDBRANCH   2  13
TORSDOF 7
ENDMDL
MODEL 6
REMARK VINA RESULT:      -6.7      1.329      1.738
REMARK  Name = 
REMARK  9 active torsions:
REMARK  status: ('A' for Active; 'I' for Inactive)
REMARK    1  A    between atoms: C_1  and  C_2
REMARK    2  A    between atoms: C_5  and  C_6
REMARK    3  A    between atoms: C_6  and  N_7
REMARK    4  A    between atoms: C_8  and  C_10
REMARK    5  A    between atoms: C_10  and  C_11
REMARK    6  A    between atoms: C_11  and  S_12
REMARK    7  A    between atoms: S_12  and  C_13
REMARK    8  A    between atoms: C_13  and  C_14
REMARK    9  A    between atoms: C_17  and  C_18
REMARK                            x       y       z     vdW  Elec       q    Type
REMARK                         _______ _______ _______ _____ _____    ______ ____
ROOT
ATOM      1  N   UNL     1       4.333   3.644  19.049  0.00  0.00    +0.000 N 
ATOM      2  C   UNL     1       3.721   2.458  19.384  0.00  0.00    +0.000 C 
ATOM      3  O   UNL     1       3.685   1.483  18.643  0.00  0.00    +0.000 OA
ATOM      4  H   UNL     1       4.381   4.400  19.718  0.00  0.00    +0.000 HD
ENDROOT
BRANCH   1   5
ATOM      5  C   UNL     1       4.983   3.842  17.768  0.00  0.00    +0.000 C 
BRANCH   5  10
ATOM      6  C   UNL     1       8.254   8.673  17.878  0.00  0.00    +0.000 C 
ATOM      7  C   UNL     1       7.429   7.419  17.819  0.00  0.00    +0.000 A 
ATOM      8  C   UNL     1       6.324   7.322  16.968  0.00  0.00    +0.000 A 
ATOM      9  C   UNL     1       5.552   6.157  16.938  0.00  0.00    +0.000 A 
ATOM     10  C   UNL     1       5.871   5.062  17.755  0.00  0.00    +0.000 A 
ATOM     11  C   UNL     1       6.980   5.162  18.606  0.00  0.00    +0.000 A 
ATOM     12  C   UNL     1       7.752   6.330  18.636  0.00  0.00    +0.000 A 
ENDBRANCH   5  10
ENDBRANCH   1   5
BRANCH   2  13
ATOM     13  C   UNL     1       3.120   2.423  20.774  0.00  0.00    +0.000 C 
BRANCH  13  14
ATOM     14  C   UNL     1       1.595   2.349  20.760  0.00  0.00    +0.000 C 
BRANCH  14  15
ATOM     15  S   UNL     1       0.958   3.887  20.002  0.00  0.00    +0.000 S 
BRANCH  15  16
ATOM     16  C   UNL     1       1.897   5.139  20.936  0.00  0.00    +0.000 C 
BRANCH  16  17
ATOM     17  C   UNL     1       1.886   6.473  20.222  0.00  0.00    +0.000 A 
ATOM     18  C   UNL     1       1.303   7.601  20.818  0.00  0.00    +0.000 A 
ATOM     19  C   UNL     1       1.271   8.830  20.151  0.00  0.00    +0.000 A 
ATOM     20  C   UNL     1       1.816   8.957  18.868  0.00  0.00    +0.000 A 
ATOM     21  C   UNL     1       1.778  10.261  18.125  0.00  0.00    +0.000 C 
ATOM     22  C   UNL     1       2.395   7.833  18.270  0.00  0.00    +0.000 A 
ATOM     23  C   UNL     1       2.428   6.605  18.935  0.00  0.00    +0.000 A 
ENDBRANCH  16  17
ENDBRANCH  15  16
ENDBRANCH  14  15
ENDBRANCH  13  14
ENDBRANCH   2  13
TORSDOF 7
ENDMDL
MODEL 7
REMARK VINA RESULT:      -6.6      2.497      6.755
REMARK  Name = 
REMARK  9 active torsions:
REMARK  status: ('A' for Active; 'I' for Inactive)
REMARK    1  A    between atoms: C_1  and  C_2
REMARK    2  A    between atoms: C_5  and  C_6
REMARK    3  A    between atoms: C_6  and  N_7
REMARK    4  A    between atoms: C_8  and  C_10
REMARK    5  A    between atoms: C_10  and  C_11
REMARK    6  A    between atoms: C_11  and  S_12
REMARK    7  A    between atoms: S_12  and  C_13
REMARK    8  A    between atoms: C_13  and  C_14
REMARK    9  A    between atoms: C_17  and  C_18
REMARK                            x       y       z     vdW  Elec       q    Type
REMARK                         _______ _______ _______ _____ _____    ______ ____
ROOT
ATOM      1  N   UNL     1       1.785   6.806  20.781  0.00  0.00    +0.000 N 
ATOM      2  C   UNL     1       1.963   5.709  19.970  0.00  0.00    +0.000 C 
ATOM      3  O   UNL     1       2.171   5.786  18.765  0.00  0.00    +0.000 OA
ATOM      4  H   UNL     1       1.669   6.690  21.778  0.00  0.00    +0.000 HD
ENDROOT
BRANCH   1   5
ATOM      5  C   UNL     1       1.819   8.161  20.264  0.00  0.00    +0.000 C 
BRANCH   5  10
ATOM      6  C   UNL     1      -1.745  11.826  23.078  0.00  0.00    +0.000 C 
ATOM      7  C   UNL     1      -0.855  10.858  22.354  0.00  0.00    +0.000 A 
ATOM      8  C   UNL     1      -0.187   9.839  23.041  0.00  0.00    +0.000 A 
ATOM      9  C   UNL     1       0.656   8.957  22.358  0.00  0.00    +0.000 A 
ATOM     10  C   UNL     1       0.847   9.072  20.973  0.00  0.00    +0.000 A 
ATOM     11  C   UNL     1       0.175  10.093  20.287  0.00  0.00    +0.000 A 
ATOM     12  C   UNL     1      -0.667  10.976  20.973  0.00  0.00    +0.000 A 
ENDBRANCH   5  10
ENDBRANCH   1   5
BRANCH   2  13
ATOM     13  C   UNL     1       1.924   4.375  20.686  0.00  0.00    +0.000 C 
BRANCH  13  14
ATOM     14  C   UNL     1       1.851   3.188  19.729  0.00  0.00    +0.000 C 
BRANCH  14  15
ATOM     15  S   UNL     1       3.535   2.498  19.550  0.00  0.00    +0.000 S 
BRANCH  15  16
ATOM     16  C   UNL     1       3.897   2.934  17.818  0.00  0.00    +0.000 C 
BRANCH  16  17
ATOM     17  C   UNL     1       4.866   4.094  17.739  0.00  0.00    +0.000 A 
ATOM     18  C   UNL     1       5.565   4.523  18.877  0.00  0.00    +0.000 A 
ATOM     19  C   UNL     1       6.445   5.610  18.812  0.00  0.00    +0.000 A 
ATOM     20  C   UNL     1       6.639   6.296  17.608  0.00  0.00    +0.000 A 
ATOM     21  C   UNL     1       7.565   7.474  17.518  0.00  0.00    +0.000 C 
ATOM     22  C   UNL     1       5.942   5.871  16.472  0.00  0.00    +0.000 A 
ATOM     23  C   UNL     1       5.063   4.786  16.536  0.00  0.00    +0.000 A 
ENDBRANCH  16  17
ENDBRANCH  15  16
ENDBRANCH  14  15
ENDBRANCH  13  14
ENDBRANCH   2  13
TORSDOF 7
ENDMDL
MODEL 8
REMARK VINA RESULT:      -6.5      2.259      6.367
REMARK  Name = 
REMARK  9 active torsions:
REMARK  status: ('A' for Active; 'I' for Inactive)
REMARK    1  A    between atoms: C_1  and  C_2
REMARK    2  A    between atoms: C_5  and  C_6
REMARK    3  A    between atoms: C_6  and  N_7
REMARK    4  A    between atoms: C_8  and  C_10
REMARK    5  A    between atoms: C_10  and  C_11
REMARK    6  A    between atoms: C_11  and  S_12
REMARK    7  A    between atoms: S_12  and  C_13
REMARK    8  A    between atoms: C_13  and  C_14
REMARK    9  A    between atoms: C_17  and  C_18
REMARK                            x       y       z     vdW  Elec       q    Type
REMARK                         _______ _______ _______ _____ _____    ______ ____
ROOT
ATOM      1  N   UNL     1       2.119   6.430  20.533  0.00  0.00    +0.000 N 
ATOM      2  C   UNL     1       1.975   5.265  19.814  0.00  0.00    +0.000 C 
ATOM      3  O   UNL     1       1.776   5.237  18.605  0.00  0.00    +0.000 OA
ATOM      4  H   UNL     1       2.335   6.397  21.519  0.00  0.00    +0.000 HD
ENDROOT
BRANCH   1   5
ATOM      5  C   UNL     1       2.033   7.737  19.909  0.00  0.00    +0.000 C 
BRANCH   5  10
ATOM      6  C   UNL     1      -1.408  11.315  22.977  0.00  0.00    +0.000 C 
ATOM      7  C   UNL     1      -0.499  10.421  22.183  0.00  0.00    +0.000 A 
ATOM      8  C   UNL     1      -0.483  10.467  20.786  0.00  0.00    +0.000 A 
ATOM      9  C   UNL     1       0.353   9.615  20.057  0.00  0.00    +0.000 A 
ATOM     10  C   UNL     1       1.194   8.702  20.710  0.00  0.00    +0.000 A 
ATOM     11  C   UNL     1       1.177   8.661  22.111  0.00  0.00    +0.000 A 
ATOM     12  C   UNL     1       0.339   9.513  22.839  0.00  0.00    +0.000 A 
ENDBRANCH   5  10
ENDBRANCH   1   5
BRANCH   2  13
ATOM     13  C   UNL     1       2.124   3.995  20.625  0.00  0.00    +0.000 C 
BRANCH  13  14
ATOM     14  C   UNL     1       2.567   2.800  19.784  0.00  0.00    +0.000 C 
BRANCH  14  15
ATOM     15  S   UNL     1       4.384   2.887  19.587  0.00  0.00    +0.000 S 
BRANCH  15  16
ATOM     16  C   UNL     1       4.511   3.479  17.868  0.00  0.00    +0.000 C 
BRANCH  16  17
ATOM     17  C   UNL     1       5.409   4.693  17.775  0.00  0.00    +0.000 A 
ATOM     18  C   UNL     1       6.675   4.697  18.379  0.00  0.00    +0.000 A 
ATOM     19  C   UNL     1       7.499   5.827  18.314  0.00  0.00    +0.000 A 
ATOM     20  C   UNL     1       7.071   6.981  17.649  0.00  0.00    +0.000 A 
ATOM     21  C   UNL     1       7.929   8.210  17.581  0.00  0.00    +0.000 C 
ATOM     22  C   UNL     1       5.807   6.981  17.048  0.00  0.00    +0.000 A 
ATOM     23  C   UNL     1       4.984   5.854  17.113  0.00  0.00    +0.000 A 
ENDBRANCH  16  17
ENDBRANCH  15  16
ENDBRANCH  14  15
ENDBRANCH  13  14
ENDBRANCH   2  13
TORSDOF 7
ENDMDL
MODEL 9
REMARK VINA RESULT:      -6.4      3.894      6.331
REMARK  Name = 
REMARK  9 active torsions:
REMARK  status: ('A' for Active; 'I' for Inactive)
REMARK    1  A    between atoms: C_1  and  C_2
REMARK    2  A    between atoms: C_5  and  C_6
REMARK    3  A    between atoms: C_6  and  N_7
REMARK    4  A    between atoms: C_8  and  C_10
REMARK    5  A    between atoms: C_10  and  C_11
REMARK    6  A    between atoms: C_11  and  S_12
REMARK    7  A    between atoms: S_12  and  C_13
REMARK    8  A    between atoms: C_13  and  C_14
REMARK    9  A    between atoms: C_17  and  C_18
REMARK                            x       y       z     vdW  Elec       q    Type
REMARK                         _______ _______ _______ _____ _____    ______ ____
ROOT
ATOM      1  N   UNL     1       8.341   8.289  18.338  0.00  0.00    +0.000 N 
ATOM      2  C   UNL     1       7.455   7.311  17.944  0.00  0.00    +0.000 C 
ATOM      3  O   UNL     1       6.489   7.526  17.223  0.00  0.00    +0.000 OA
ATOM      4  H   UNL     1       9.151   8.049  18.891  0.00  0.00    +0.000 HD
ENDROOT
BRANCH   1   5
ATOM      5  C   UNL     1       8.192   9.673  17.932  0.00  0.00    +0.000 C 
BRANCH   5  10
ATOM      6  C   UNL     1      12.333  13.266  19.932  0.00  0.00    +0.000 C 
ATOM      7  C   UNL     1      11.292  12.315  19.415  0.00  0.00    +0.000 A 
ATOM      8  C   UNL     1      11.169  12.055  18.047  0.00  0.00    +0.000 A 
ATOM      9  C   UNL     1      10.182  11.183  17.575  0.00  0.00    +0.000 A 
ATOM     10  C   UNL     1       9.300  10.550  18.462  0.00  0.00    +0.000 A 
ATOM     11  C   UNL     1       9.427  10.811  19.834  0.00  0.00    +0.000 A 
ATOM     12  C   UNL     1      10.414  11.685  20.304  0.00  0.00    +0.000 A 
ENDBRANCH   5  10
ENDBRANCH   1   5
BRANCH   2  13
ATOM     13  C   UNL     1       7.784   5.918  18.440  0.00  0.00    +0.000 C 
BRANCH  13  14
ATOM     14  C   UNL     1       6.626   4.938  18.271  0.00  0.00    +0.000 C 
BRANCH  14  15
ATOM     15  S   UNL     1       6.693   4.267  16.570  0.00  0.00    +0.000 S 
BRANCH  15  16
ATOM     16  C   UNL     1       5.053   4.762  15.946  0.00  0.00    +0.000 C 
BRANCH  16  17
ATOM     17  C   UNL     1       3.986   4.560  17.000  0.00  0.00    +0.000 A 
ATOM     18  C   UNL     1       3.426   5.657  17.673  0.00  0.00    +0.000 A 
ATOM     19  C   UNL     1       2.456   5.472  18.664  0.00  0.00    +0.000 A 
ATOM     20  C   UNL     1       2.028   4.184  19.008  0.00  0.00    +0.000 A 
ATOM     21  C   UNL     1       1.001   3.960  20.080  0.00  0.00    +0.000 C 
ATOM     22  C   UNL     1       2.587   3.089  18.340  0.00  0.00    +0.000 A 
ATOM     23  C   UNL     1       3.556   3.273  17.351  0.00  0.00    +0.000 A 
ENDBRANCH  16  17
ENDBRANCH  15  16
ENDBRANCH  14  15
ENDBRANCH  13  14
ENDBRANCH   2  13
TORSDOF 7
ENDMDL
