MODEL 1
REMARK VINA RESULT:      -8.2      0.000      0.000
REMARK  Name = 
REMARK  7 active torsions:
REMARK  status: ('A' for Active; 'I' for Inactive)
REMARK    1  A    between atoms: C_2  and  C_3
REMARK    2  A    between atoms: N_5  and  C_6
REMARK    3  A    between atoms: C_10  and  N_11
REMARK    4  A    between atoms: N_11  and  C_12
REMARK    5  A    between atoms: N_18  and  C_19
REMARK    6  A    between atoms: C_22  and  N_23
REMARK    7  A    between atoms: N_26  and  C_27
REMARK                            x       y       z     vdW  Elec       q    Type
REMARK                         _______ _______ _______ _____ _____    ______ ____
ROOT
ATOM      1  N   UNL     1      -1.245  12.010  22.189  0.00  0.00    +0.000 N 
ATOM      2  C   UNL     1      -0.848  10.739  22.800  0.00  0.00    +0.000 C 
ATOM      3  C   UNL     1      -0.461  12.373  21.070  0.00  0.00    +0.000 A 
ATOM      4  C   UNL     1      -0.223  13.703  20.789  0.00  0.00    +0.000 A 
ATOM      5  C   UNL     1       0.476  13.980  19.641  0.00  0.00    +0.000 A 
ATOM      6  N   UNL     1       0.923  13.033  18.801  0.00  0.00    +0.000 NA
ATOM      7  C   UNL     1       0.708  11.764  19.173  0.00  0.00    +0.000 A 
ATOM      8  N   UNL     1       1.213  10.786  18.317  0.00  0.00    +0.000 N 
ATOM      9  N   UNL     1       0.040  11.415  20.279  0.00  0.00    +0.000 NA
ATOM     10  H   UNL     1       1.584  11.205  17.479  0.00  0.00    +0.000 HD
ENDROOT
BRANCH   1  15
ATOM     11  C   UNL     1      -4.646  13.542  22.294  0.00  0.00    +0.000 A 
ATOM     12  C   UNL     1      -4.550  14.298  23.460  0.00  0.00    +0.000 A 
ATOM     13  C   UNL     1      -3.399  14.249  24.243  0.00  0.00    +0.000 A 
ATOM     14  C   UNL     1      -2.313  13.469  23.850  0.00  0.00    +0.000 A 
ATOM     15  C   UNL     1      -2.366  12.706  22.678  0.00  0.00    +0.000 A 
ATOM     16  C   UNL     1      -3.573  12.716  21.944  0.00  0.00    +0.000 A 
BRANCH  11  19
ATOM     17  C   UNL     1      -6.817  12.683  21.452  0.00  0.00    +0.000 C 
ATOM     18  O   UNL     1      -6.973  11.764  22.247  0.00  0.00    +0.000 OA
ATOM     19  N   UNL     1      -5.767  13.580  21.431  0.00  0.00    +0.000 N 
ATOM     20  H   UNL     1      -5.848  14.392  20.832  0.00  0.00    +0.000 HD
BRANCH  17  22
ATOM     21  C   UNL     1      -7.520  12.806  19.113  0.00  0.00    +0.000 C 
ATOM     22  C   UNL     1      -7.842  12.956  20.407  0.00  0.00    +0.000 C 
ENDBRANCH  17  22
ENDBRANCH  11  19
ENDBRANCH   1  15
BRANCH   8  23
ATOM     23  C   UNL     1       1.580   9.463  18.584  0.00  0.00    +0.000 A 
ATOM     24  C   UNL     1       2.239   8.656  17.657  0.00  0.00    +0.000 A 
ATOM     25  C   UNL     1       2.690   7.377  17.988  0.00  0.00    +0.000 A 
ATOM     26  C   UNL     1       2.516   6.848  19.269  0.00  0.00    +0.000 A 
ATOM     27  C   UNL     1       1.829   7.650  20.189  0.00  0.00    +0.000 A 
ATOM     28  C   UNL     1       1.376   8.935  19.860  0.00  0.00    +0.000 A 
BRANCH  26  29
ATOM     29  N   UNL     1       3.083   5.636  19.605  0.00  0.00    +0.000 N 
ATOM     30  C   UNL     1       4.497   5.349  19.336  0.00  0.00    +0.000 C 
ATOM     31  C   UNL     1       4.656   3.859  18.960  0.00  0.00    +0.000 C 
ATOM     32  N   UNL     1       4.110   2.944  19.988  0.00  0.00    +0.000 NA
ATOM     33  C   UNL     1       4.251   1.556  19.556  0.00  0.00    +0.000 C 
ATOM     34  C   UNL     1       2.685   3.276  20.223  0.00  0.00    +0.000 C 
ATOM     35  C   UNL     1       2.474   4.758  20.618  0.00  0.00    +0.000 C 
ENDBRANCH  26  29
ENDBRANCH   8  23
TORSDOF 5
ENDMDL
MODEL 2
REMARK VINA RESULT:      -8.1      0.972      1.276
REMARK  Name = 
REMARK  7 active torsions:
REMARK  status: ('A' for Active; 'I' for Inactive)
REMARK    1  A    between atoms: C_2  and  C_3
REMARK    2  A    between atoms: N_5  and  C_6
REMARK    3  A    between atoms: C_10  and  N_11
REMARK    4  A    between atoms: N_11  and  C_12
REMARK    5  A    between atoms: N_18  and  C_19
REMARK    6  A    between atoms: C_22  and  N_23
REMARK    7  A    between atoms: N_26  and  C_27
REMARK                            x       y       z     vdW  Elec       q    Type
REMARK                         _______ _______ _______ _____ _____    ______ ____
ROOT
ATOM      1  N   UNL     1      -1.616  12.172  22.205  0.00  0.00    +0.000 N 
ATOM      2  C   UNL     1      -1.003  11.031  22.889  0.00  0.00    +0.000 C 
ATOM      3  C   UNL     1      -0.949  12.548  21.017  0.00  0.00    +0.000 A 
ATOM      4  C   UNL     1      -0.929  13.870  20.618  0.00  0.00    +0.000 A 
ATOM      5  C   UNL     1      -0.335  14.146  19.412  0.00  0.00    +0.000 A 
ATOM      6  N   UNL     1       0.211  13.205  18.625  0.00  0.00    +0.000 NA
ATOM      7  C   UNL     1       0.208  11.956  19.106  0.00  0.00    +0.000 A 
ATOM      8  N   UNL     1       0.813  10.992  18.302  0.00  0.00    +0.000 N 
ATOM      9  N   UNL     1      -0.347  11.609  20.274  0.00  0.00    +0.000 NA
ATOM     10  H   UNL     1       1.077  11.387  17.412  0.00  0.00    +0.000 HD
ENDROOT
BRANCH   1  15
ATOM     11  C   UNL     1      -5.161  13.332  22.329  0.00  0.00    +0.000 A 
ATOM     12  C   UNL     1      -5.147  14.072  23.509  0.00  0.00    +0.000 A 
ATOM     13  C   UNL     1      -3.997  14.131  24.295  0.00  0.00    +0.000 A 
ATOM     14  C   UNL     1      -2.834  13.477  23.890  0.00  0.00    +0.000 A 
ATOM     15  C   UNL     1      -2.805  12.736  22.704  0.00  0.00    +0.000 A 
ATOM     16  C   UNL     1      -4.006  12.632  21.966  0.00  0.00    +0.000 A 
BRANCH  11  19
ATOM     17  C   UNL     1      -6.539  14.153  20.435  0.00  0.00    +0.000 C 
ATOM     18  O   UNL     1      -5.826  15.082  20.076  0.00  0.00    +0.000 OA
ATOM     19  N   UNL     1      -6.278  13.268  21.463  0.00  0.00    +0.000 N 
ATOM     20  H   UNL     1      -6.863  12.445  21.541  0.00  0.00    +0.000 HD
BRANCH  17  22
ATOM     21  C   UNL     1      -7.762  13.111  18.591  0.00  0.00    +0.000 C 
ATOM     22  C   UNL     1      -7.803  13.851  19.709  0.00  0.00    +0.000 C 
ENDBRANCH  17  22
ENDBRANCH  11  19
ENDBRANCH   1  15
BRANCH   8  23
ATOM     23  C   UNL     1       1.388   9.765  18.649  0.00  0.00    +0.000 A 
ATOM     24  C   UNL     1       1.180   9.150  19.883  0.00  0.00    +0.000 A 
ATOM     25  C   UNL     1       1.679   7.876  20.161  0.00  0.00    +0.000 A 
ATOM     26  C   UNL     1       2.399   7.149  19.212  0.00  0.00    +0.000 A 
ATOM     27  C   UNL     1       2.631   7.781  17.983  0.00  0.00    +0.000 A 
ATOM     28  C   UNL     1       2.130   9.060  17.701  0.00  0.00    +0.000 A 
BRANCH  26  29
ATOM     29  N   UNL     1       2.770   5.845  19.467  0.00  0.00    +0.000 N 
ATOM     30  C   UNL     1       4.180   5.435  19.464  0.00  0.00    +0.000 C 
ATOM     31  C   UNL     1       4.296   4.000  18.901  0.00  0.00    +0.000 C 
ATOM     32  N   UNL     1       3.455   3.025  19.632  0.00  0.00    +0.000 NA
ATOM     33  C   UNL     1       3.574   1.701  19.028  0.00  0.00    +0.000 C 
ATOM     34  C   UNL     1       2.047   3.486  19.608  0.00  0.00    +0.000 C 
ATOM     35  C   UNL     1       1.876   4.916  20.175  0.00  0.00    +0.000 C 
ENDBRANCH  26  29
ENDBRANCH   8  23
TORSDOF 5
ENDMDL
MODEL 3
REMARK VINA RESULT:      -7.9      0.526      1.287
REMARK  Name = 
REMARK  7 active torsions:
REMARK  status: ('A' for Active; 'I' for Inactive)
REMARK    1  A    between atoms: C_2  and  C_3
REMARK    2  A    between atoms: N_5  and  C_6
REMARK    3  A    between atoms: C_10  and  N_11
REMARK    4  A    between atoms: N_11  and  C_12
REMARK    5  A    between atoms: N_18  and  C_19
REMARK    6  A    between atoms: C_22  and  N_23
REMARK    7  A    between atoms: N_26  and  C_27
REMARK                            x       y       z     vdW  Elec       q    Type
REMARK                         _______ _______ _______ _____ _____    ______ ____
ROOT
ATOM      1  N   UNL     1      -1.399  11.926  22.216  0.00  0.00    +0.000 N 
ATOM      2  C   UNL     1      -0.869  10.714  22.846  0.00  0.00    +0.000 C 
ATOM      3  C   UNL     1      -0.670  12.341  21.078  0.00  0.00    +0.000 A 
ATOM      4  C   UNL     1      -0.570  13.682  20.767  0.00  0.00    +0.000 A 
ATOM      5  C   UNL     1       0.082  14.003  19.602  0.00  0.00    +0.000 A 
ATOM      6  N   UNL     1       0.612  13.087  18.776  0.00  0.00    +0.000 NA
ATOM      7  C   UNL     1       0.529  11.812  19.176  0.00  0.00    +0.000 A 
ATOM      8  N   UNL     1       1.118  10.870  18.333  0.00  0.00    +0.000 N 
ATOM      9  N   UNL     1      -0.086  11.421  20.299  0.00  0.00    +0.000 NA
ATOM     10  H   UNL     1       1.435  11.307  17.480  0.00  0.00    +0.000 HD
ENDROOT
BRANCH   1  15
ATOM     11  C   UNL     1      -4.834  13.383  22.257  0.00  0.00    +0.000 A 
ATOM     12  C   UNL     1      -4.865  13.930  23.538  0.00  0.00    +0.000 A 
ATOM     13  C   UNL     1      -3.789  13.759  24.407  0.00  0.00    +0.000 A 
ATOM     14  C   UNL     1      -2.652  13.068  23.991  0.00  0.00    +0.000 A 
ATOM     15  C   UNL     1      -2.578  12.517  22.707  0.00  0.00    +0.000 A 
ATOM     16  C   UNL     1      -3.713  12.641  21.875  0.00  0.00    +0.000 A 
BRANCH  11  19
ATOM     17  C   UNL     1      -6.727  12.563  20.877  0.00  0.00    +0.000 C 
ATOM     18  O   UNL     1      -6.764  11.407  21.281  0.00  0.00    +0.000 OA
ATOM     19  N   UNL     1      -5.872  13.558  21.310  0.00  0.00    +0.000 N 
ATOM     20  H   UNL     1      -6.063  14.508  21.019  0.00  0.00    +0.000 HD
BRANCH  17  22
ATOM     21  C   UNL     1      -7.545  12.666  18.575  0.00  0.00    +0.000 C 
ATOM     22  C   UNL     1      -7.703  13.034  19.856  0.00  0.00    +0.000 C 
ENDBRANCH  17  22
ENDBRANCH  11  19
ENDBRANCH   1  15
BRANCH   8  23
ATOM     23  C   UNL     1       1.620   9.597  18.620  0.00  0.00    +0.000 A 
ATOM     24  C   UNL     1       1.354   8.928  19.815  0.00  0.00    +0.000 A 
ATOM     25  C   UNL     1       1.779   7.615  20.030  0.00  0.00    +0.000 A 
ATOM     26  C   UNL     1       2.478   6.902  19.053  0.00  0.00    +0.000 A 
ATOM     27  C   UNL     1       2.767   7.587  17.866  0.00  0.00    +0.000 A 
ATOM     28  C   UNL     1       2.341   8.905  17.647  0.00  0.00    +0.000 A 
BRANCH  26  29
ATOM     29  N   UNL     1       2.773   5.568  19.241  0.00  0.00    +0.000 N 
ATOM     30  C   UNL     1       1.897   4.693  20.030  0.00  0.00    +0.000 C 
ATOM     31  C   UNL     1       2.757   3.665  20.799  0.00  0.00    +0.000 C 
ATOM     32  N   UNL     1       3.644   2.878  19.913  0.00  0.00    +0.000 NA
ATOM     33  C   UNL     1       4.459   1.958  20.701  0.00  0.00    +0.000 C 
ATOM     34  C   UNL     1       4.502   3.806  19.140  0.00  0.00    +0.000 C 
ATOM     35  C   UNL     1       3.686   4.848  18.339  0.00  0.00    +0.000 C 
ENDBRANCH  26  29
ENDBRANCH   8  23
TORSDOF 5
ENDMDL
MODEL 4
REMARK VINA RESULT:      -7.6      5.913      7.879
REMARK  Name = 
REMARK  7 active torsions:
REMARK  status: ('A' for Active; 'I' for Inactive)
REMARK    1  A    between atoms: C_2  and  C_3
REMARK    2  A    between atoms: N_5  and  C_6
REMARK    3  A    between atoms: C_10  and  N_11
REMARK    4  A    between atoms: N_11  and  C_12
REMARK    5  A    between atoms: N_18  and  C_19
REMARK    6  A    between atoms: C_22  and  N_23
REMARK    7  A    between atoms: N_26  and  C_27
REMARK                            x       y       z     vdW  Elec       q    Type
REMARK                         _______ _______ _______ _____ _____    ______ ____
ROOT
ATOM      1  N   UNL     1       0.396  13.546  19.694  0.00  0.00    +0.000 N 
ATOM      2  C   UNL     1       1.551  12.769  20.151  0.00  0.00    +0.000 C 
ATOM      3  C   UNL     1       0.693  14.902  19.424  0.00  0.00    +0.000 A 
ATOM      4  C   UNL     1      -0.262  15.878  19.627  0.00  0.00    +0.000 A 
ATOM      5  C   UNL     1       0.072  17.159  19.264  0.00  0.00    +0.000 A 
ATOM      6  N   UNL     1       1.259  17.491  18.732  0.00  0.00    +0.000 NA
ATOM      7  C   UNL     1       2.155  16.502  18.623  0.00  0.00    +0.000 A 
ATOM      8  N   UNL     1       3.400  16.862  18.108  0.00  0.00    +0.000 N 
ATOM      9  N   UNL     1       1.906  15.230  18.959  0.00  0.00    +0.000 NA
ATOM     10  H   UNL     1       3.390  17.822  17.798  0.00  0.00    +0.000 HD
ENDROOT
BRANCH   1  15
ATOM     11  C   UNL     1      -2.450  11.908  17.921  0.00  0.00    +0.000 A 
ATOM     12  C   UNL     1      -3.401  11.878  18.937  0.00  0.00    +0.000 A 
ATOM     13  C   UNL     1      -3.085  12.330  20.217  0.00  0.00    +0.000 A 
ATOM     14  C   UNL     1      -1.821  12.852  20.486  0.00  0.00    +0.000 A 
ATOM     15  C   UNL     1      -0.843  12.912  19.488  0.00  0.00    +0.000 A 
ATOM     16  C   UNL     1      -1.167  12.378  18.221  0.00  0.00    +0.000 A 
BRANCH  11  19
ATOM     17  C   UNL     1      -2.514  10.238  16.087  0.00  0.00    +0.000 C 
ATOM     18  O   UNL     1      -2.132   9.258  16.715  0.00  0.00    +0.000 OA
ATOM     19  N   UNL     1      -2.718  11.508  16.590  0.00  0.00    +0.000 N 
ATOM     20  H   UNL     1      -3.199  12.179  16.004  0.00  0.00    +0.000 HD
BRANCH  17  22
ATOM     21  C   UNL     1      -4.148  10.014  14.282  0.00  0.00    +0.000 C 
ATOM     22  C   UNL     1      -2.861  10.117  14.644  0.00  0.00    +0.000 C 
ENDBRANCH  17  22
ENDBRANCH  11  19
ENDBRANCH   1  15
BRANCH   8  23
ATOM     23  C   UNL     1       4.650  16.260  18.278  0.00  0.00    +0.000 A 
ATOM     24  C   UNL     1       4.980  15.024  17.723  0.00  0.00    +0.000 A 
ATOM     25  C   UNL     1       6.271  14.499  17.820  0.00  0.00    +0.000 A 
ATOM     26  C   UNL     1       7.298  15.192  18.464  0.00  0.00    +0.000 A 
ATOM     27  C   UNL     1       6.956  16.420  19.044  0.00  0.00    +0.000 A 
ATOM     28  C   UNL     1       5.661  16.951  18.948  0.00  0.00    +0.000 A 
BRANCH  26  29
ATOM     29  N   UNL     1       8.590  14.710  18.434  0.00  0.00    +0.000 N 
ATOM     30  C   UNL     1       9.745  15.608  18.549  0.00  0.00    +0.000 C 
ATOM     31  C   UNL     1      10.897  15.079  17.666  0.00  0.00    +0.000 C 
ATOM     32  N   UNL     1      11.270  13.681  17.982  0.00  0.00    +0.000 NA
ATOM     33  C   UNL     1      12.331  13.226  17.087  0.00  0.00    +0.000 C 
ATOM     34  C   UNL     1      10.071  12.820  17.853  0.00  0.00    +0.000 C 
ATOM     35  C   UNL     1       8.892  13.301  18.732  0.00  0.00    +0.000 C 
ENDBRANCH  26  29
ENDBRANCH   8  23
TORSDOF 5
ENDMDL
MODEL 5
REMARK VINA RESULT:      -7.6      0.575      1.018
REMARK  Name = 
REMARK  7 active torsions:
REMARK  status: ('A' for Active; 'I' for Inactive)
REMARK    1  A    between atoms: C_2  and  C_3
REMARK    2  A    between atoms: N_5  and  C_6
REMARK    3  A    between atoms: C_10  and  N_11
REMARK    4  A    between atoms: N_11  and  C_12
REMARK    5  A    between atoms: N_18  and  C_19
REMARK    6  A    between atoms: C_22  and  N_23
REMARK    7  A    between atoms: N_26  and  C_27
REMARK                            x       y       z     vdW  Elec       q    Type
REMARK                         _______ _______ _______ _____ _____    ______ ____
ROOT
ATOM      1  N   UNL     1      -0.979  11.882  22.276  0.00  0.00    +0.000 N 
ATOM      2  C   UNL     1      -0.800  10.510  22.758  0.00  0.00    +0.000 C 
ATOM      3  C   UNL     1      -0.061  12.256  21.268  0.00  0.00    +0.000 A 
ATOM      4  C   UNL     1       0.366  13.564  21.165  0.00  0.00    +0.000 A 
ATOM      5  C   UNL     1       1.192  13.868  20.111  0.00  0.00    +0.000 A 
ATOM      6  N   UNL     1       1.588  12.965  19.199  0.00  0.00    +0.000 NA
ATOM      7  C   UNL     1       1.183  11.705  19.400  0.00  0.00    +0.000 A 
ATOM      8  N   UNL     1       1.632  10.766  18.472  0.00  0.00    +0.000 N 
ATOM      9  N   UNL     1       0.382  11.331  20.405  0.00  0.00    +0.000 NA
ATOM     10  H   UNL     1       2.125  11.220  17.719  0.00  0.00    +0.000 HD
ENDROOT
BRANCH   1  15
ATOM     11  C   UNL     1      -4.304  13.569  22.430  0.00  0.00    +0.000 A 
ATOM     12  C   UNL     1      -4.112  14.414  23.520  0.00  0.00    +0.000 A 
ATOM     13  C   UNL     1      -2.921  14.379  24.243  0.00  0.00    +0.000 A 
ATOM     14  C   UNL     1      -1.892  13.520  23.860  0.00  0.00    +0.000 A 
ATOM     15  C   UNL     1      -2.041  12.666  22.762  0.00  0.00    +0.000 A 
ATOM     16  C   UNL     1      -3.287  12.670  22.095  0.00  0.00    +0.000 A 
BRANCH  11  19
ATOM     17  C   UNL     1      -6.550  12.739  21.777  0.00  0.00    +0.000 C 
ATOM     18  O   UNL     1      -6.697  11.894  22.652  0.00  0.00    +0.000 OA
ATOM     19  N   UNL     1      -5.469  13.586  21.627  0.00  0.00    +0.000 N 
ATOM     20  H   UNL     1      -5.554  14.351  20.968  0.00  0.00    +0.000 HD
BRANCH  17  22
ATOM     21  C   UNL     1      -7.284  13.245  19.500  0.00  0.00    +0.000 C 
ATOM     22  C   UNL     1      -7.621  12.971  20.770  0.00  0.00    +0.000 C 
ENDBRANCH  17  22
ENDBRANCH  11  19
ENDBRANCH   1  15
BRANCH   8  23
ATOM     23  C   UNL     1       1.805   9.384  18.605  0.00  0.00    +0.000 A 
ATOM     24  C   UNL     1       2.270   8.574  17.569  0.00  0.00    +0.000 A 
ATOM     25  C   UNL     1       2.537   7.217  17.763  0.00  0.00    +0.000 A 
ATOM     26  C   UNL     1       2.364   6.607  19.008  0.00  0.00    +0.000 A 
ATOM     27  C   UNL     1       1.870   7.418  20.038  0.00  0.00    +0.000 A 
ATOM     28  C   UNL     1       1.603   8.781  19.847  0.00  0.00    +0.000 A 
BRANCH  26  29
ATOM     29  N   UNL     1       2.754   5.299  19.203  0.00  0.00    +0.000 N 
ATOM     30  C   UNL     1       1.925   4.358  19.966  0.00  0.00    +0.000 C 
ATOM     31  C   UNL     1       2.838   3.397  20.760  0.00  0.00    +0.000 C 
ATOM     32  N   UNL     1       3.808   2.681  19.899  0.00  0.00    +0.000 NA
ATOM     33  C   UNL     1       4.668   1.824  20.710  0.00  0.00    +0.000 C 
ATOM     34  C   UNL     1       4.615   3.674  19.151  0.00  0.00    +0.000 C 
ATOM     35  C   UNL     1       3.745   4.654  18.328  0.00  0.00    +0.000 C 
ENDBRANCH  26  29
ENDBRANCH   8  23
TORSDOF 5
ENDMDL
MODEL 6
REMARK VINA RESULT:      -7.5      5.706      7.306
REMARK  Name = 
REMARK  7 active torsions:
REMARK  status: ('A' for Active; 'I' for Inactive)
REMARK    1  A    between atoms: C_2  and  C_3
REMARK    2  A    between atoms: N_5  and  C_6
REMARK    3  A    between atoms: C_10  and  N_11
REMARK    4  A    between atoms: N_11  and  C_12
REMARK    5  A    between atoms: N_18  and  C_19
REMARK    6  A    between atoms: C_22  and  N_23
REMARK    7  A    between atoms: N_26  and  C_27
REMARK                            x       y       z     vdW  Elec       q    Type
REMARK                         _______ _______ _______ _____ _____    ______ ____
ROOT
ATOM      1  N   UNL     1       0.547  13.512  20.451  0.00  0.00    +0.000 N 
ATOM      2  C   UNL     1       1.645  12.589  20.752  0.00  0.00    +0.000 C 
ATOM      3  C   UNL     1       0.968  14.842  20.225  0.00  0.00    +0.000 A 
ATOM      4  C   UNL     1       0.151  15.900  20.571  0.00  0.00    +0.000 A 
ATOM      5  C   UNL     1       0.592  17.158  20.245  0.00  0.00    +0.000 A 
ATOM      6  N   UNL     1       1.754  17.394  19.617  0.00  0.00    +0.000 NA
ATOM      7  C   UNL     1       2.521  16.324  19.369  0.00  0.00    +0.000 A 
ATOM      8  N   UNL     1       3.745  16.582  18.755  0.00  0.00    +0.000 N 
ATOM      9  N   UNL     1       2.163  15.068  19.661  0.00  0.00    +0.000 NA
ATOM     10  H   UNL     1       3.815  17.555  18.498  0.00  0.00    +0.000 HD
ENDROOT
BRANCH   1  15
ATOM     11  C   UNL     1      -2.615  12.303  18.882  0.00  0.00    +0.000 A 
ATOM     12  C   UNL     1      -3.466  12.308  19.985  0.00  0.00    +0.000 A 
ATOM     13  C   UNL     1      -2.984  12.639  21.250  0.00  0.00    +0.000 A 
ATOM     14  C   UNL     1      -1.650  13.006  21.421  0.00  0.00    +0.000 A 
ATOM     15  C   UNL     1      -0.768  13.027  20.335  0.00  0.00    +0.000 A 
ATOM     16  C   UNL     1      -1.266  12.613  19.079  0.00  0.00    +0.000 A 
BRANCH  11  19
ATOM     17  C   UNL     1      -3.013  10.776  16.967  0.00  0.00    +0.000 C 
ATOM     18  O   UNL     1      -2.665   9.726  17.492  0.00  0.00    +0.000 OA
ATOM     19  N   UNL     1      -3.049  12.021  17.565  0.00  0.00    +0.000 N 
ATOM     20  H   UNL     1      -3.519  12.770  17.073  0.00  0.00    +0.000 HD
BRANCH  17  22
ATOM     21  C   UNL     1      -2.906  10.016  14.645  0.00  0.00    +0.000 C 
ATOM     22  C   UNL     1      -3.509  10.786  15.563  0.00  0.00    +0.000 C 
ENDBRANCH  17  22
ENDBRANCH  11  19
ENDBRANCH   1  15
BRANCH   8  23
ATOM     23  C   UNL     1       4.931  15.841  18.770  0.00  0.00    +0.000 A 
ATOM     24  C   UNL     1       5.298  14.971  17.743  0.00  0.00    +0.000 A 
ATOM     25  C   UNL     1       6.537  14.328  17.735  0.00  0.00    +0.000 A 
ATOM     26  C   UNL     1       7.477  14.534  18.747  0.00  0.00    +0.000 A 
ATOM     27  C   UNL     1       7.094  15.386  19.791  0.00  0.00    +0.000 A 
ATOM     28  C   UNL     1       5.851  16.035  19.802  0.00  0.00    +0.000 A 
BRANCH  26  29
ATOM     29  N   UNL     1       8.739  13.987  18.649  0.00  0.00    +0.000 N 
ATOM     30  C   UNL     1       9.025  12.882  17.726  0.00  0.00    +0.000 C 
ATOM     31  C   UNL     1      10.067  11.937  18.365  0.00  0.00    +0.000 C 
ATOM     32  N   UNL     1      11.309  12.635  18.767  0.00  0.00    +0.000 NA
ATOM     33  C   UNL     1      12.233  11.700  19.401  0.00  0.00    +0.000 C 
ATOM     34  C   UNL     1      10.965  13.739  19.693  0.00  0.00    +0.000 C 
ATOM     35  C   UNL     1       9.932  14.724  19.093  0.00  0.00    +0.000 C 
ENDBRANCH  26  29
ENDBRANCH   8  23
TORSDOF 5
ENDMDL
MODEL 7
REMARK VINA RESULT:      -7.4      2.339      3.462
REMARK  Name = 
REMARK  7 active torsions:
REMARK  status: ('A' for Active; 'I' for Inactive)
REMARK    1  A    between atoms: C_2  and  C_3
REMARK    2  A    between atoms: N_5  and  C_6
REMARK    3  A    between atoms: C_10  and  N_11
REMARK    4  A    between atoms: N_11  and  C_12
REMARK    5  A    between atoms: N_18  and  C_19
REMARK    6  A    between atoms: C_22  and  N_23
REMARK    7  A    between atoms: N_26  and  C_27
REMARK                            x       y       z     vdW  Elec       q    Type
REMARK                         _______ _______ _______ _____ _____    ______ ____
ROOT
ATOM      1  N   UNL     1      -0.918  12.055  22.532  0.00  0.00    +0.000 N 
ATOM      2  C   UNL     1      -0.546  10.746  23.075  0.00  0.00    +0.000 C 
ATOM      3  C   UNL     1      -0.178  12.426  21.385  0.00  0.00    +0.000 A 
ATOM      4  C   UNL     1       0.104  13.754  21.138  0.00  0.00    +0.000 A 
ATOM      5  C   UNL     1       0.753  14.044  19.964  0.00  0.00    +0.000 A 
ATOM      6  N   UNL     1       1.112  13.110  19.069  0.00  0.00    +0.000 NA
ATOM      7  C   UNL     1       0.860  11.839  19.407  0.00  0.00    +0.000 A 
ATOM      8  N   UNL     1       1.274  10.872  18.491  0.00  0.00    +0.000 N 
ATOM      9  N   UNL     1       0.237  11.477  20.534  0.00  0.00    +0.000 NA
ATOM     10  H   UNL     1       1.619  11.306  17.649  0.00  0.00    +0.000 HD
ENDROOT
BRANCH   1  15
ATOM     11  C   UNL     1      -2.747  14.804  24.270  0.00  0.00    +0.000 A 
ATOM     12  C   UNL     1      -3.973  14.187  24.504  0.00  0.00    +0.000 A 
ATOM     13  C   UNL     1      -4.221  12.900  24.030  0.00  0.00    +0.000 A 
ATOM     14  C   UNL     1      -3.229  12.199  23.347  0.00  0.00    +0.000 A 
ATOM     15  C   UNL     1      -1.979  12.779  23.105  0.00  0.00    +0.000 A 
ATOM     16  C   UNL     1      -1.782  14.112  23.530  0.00  0.00    +0.000 A 
BRANCH  11  19
ATOM     17  C   UNL     1      -1.600  16.338  25.848  0.00  0.00    +0.000 C 
ATOM     18  O   UNL     1      -0.997  15.504  26.512  0.00  0.00    +0.000 OA
ATOM     19  N   UNL     1      -2.415  16.089  24.761  0.00  0.00    +0.000 N 
ATOM     20  H   UNL     1      -2.712  16.878  24.200  0.00  0.00    +0.000 HD
BRANCH  17  22
ATOM     21  C   UNL     1      -0.809  18.580  25.277  0.00  0.00    +0.000 C 
ATOM     22  C   UNL     1      -1.452  17.789  26.149  0.00  0.00    +0.000 C 
ENDBRANCH  17  22
ENDBRANCH  11  19
ENDBRANCH   1  15
BRANCH   8  23
ATOM     23  C   UNL     1       1.596   9.526  18.691  0.00  0.00    +0.000 A 
ATOM     24  C   UNL     1       2.264   8.755  17.739  0.00  0.00    +0.000 A 
ATOM     25  C   UNL     1       2.668   7.446  18.009  0.00  0.00    +0.000 A 
ATOM     26  C   UNL     1       2.435   6.848  19.249  0.00  0.00    +0.000 A 
ATOM     27  C   UNL     1       1.739   7.615  20.192  0.00  0.00    +0.000 A 
ATOM     28  C   UNL     1       1.334   8.931  19.925  0.00  0.00    +0.000 A 
BRANCH  26  29
ATOM     29  N   UNL     1       2.956   5.602  19.532  0.00  0.00    +0.000 N 
ATOM     30  C   UNL     1       4.377   5.300  19.322  0.00  0.00    +0.000 C 
ATOM     31  C   UNL     1       4.526   3.836  18.852  0.00  0.00    +0.000 C 
ATOM     32  N   UNL     1       3.903   2.866  19.782  0.00  0.00    +0.000 NA
ATOM     33  C   UNL     1       4.039   1.508  19.264  0.00  0.00    +0.000 C 
ATOM     34  C   UNL     1       2.475   3.217  19.961  0.00  0.00    +0.000 C 
ATOM     35  C   UNL     1       2.272   4.673  20.445  0.00  0.00    +0.000 C 
ENDBRANCH  26  29
ENDBRANCH   8  23
TORSDOF 5
ENDMDL
MODEL 8
REMARK VINA RESULT:      -7.4      3.695     10.154
REMARK  Name = 
REMARK  7 active torsions:
REMARK  status: ('A' for Active; 'I' for Inactive)
REMARK    1  A    between atoms: C_2  and  C_3
REMARK    2  A    between atoms: N_5  and  C_6
REMARK    3  A    between atoms: C_10  and  N_11
REMARK    4  A    between atoms: N_11  and  C_12
REMARK    5  A    between atoms: N_18  and  C_19
REMARK    6  A    between atoms: C_22  and  N_23
REMARK    7  A    between atoms: N_26  and  C_27
REMARK                            x       y       z     vdW  Elec       q    Type
REMARK                         _______ _______ _______ _____ _____    ______ ____
ROOT
ATOM      1  N   UNL     1       0.831   9.903  19.914  0.00  0.00    +0.000 N 
ATOM      2  C   UNL     1       1.153  10.404  21.253  0.00  0.00    +0.000 C 
ATOM      3  C   UNL     1      -0.152  10.667  19.242  0.00  0.00    +0.000 A 
ATOM      4  C   UNL     1      -1.020  10.060  18.357  0.00  0.00    +0.000 A 
ATOM      5  C   UNL     1      -1.890  10.879  17.681  0.00  0.00    +0.000 A 
ATOM      6  N   UNL     1      -1.927  12.211  17.841  0.00  0.00    +0.000 NA
ATOM      7  C   UNL     1      -1.098  12.719  18.762  0.00  0.00    +0.000 A 
ATOM      8  N   UNL     1      -1.172  14.098  18.953  0.00  0.00    +0.000 N 
ATOM      9  N   UNL     1      -0.225  11.986  19.464  0.00  0.00    +0.000 NA
ATOM     10  H   UNL     1      -1.789  14.517  18.274  0.00  0.00    +0.000 HD
ENDROOT
BRANCH   1  15
ATOM     11  C   UNL     1       2.516   6.580  19.729  0.00  0.00    +0.000 A 
ATOM     12  C   UNL     1       3.160   6.687  18.499  0.00  0.00    +0.000 A 
ATOM     13  C   UNL     1       2.984   7.818  17.704  0.00  0.00    +0.000 A 
ATOM     14  C   UNL     1       2.188   8.873  18.148  0.00  0.00    +0.000 A 
ATOM     15  C   UNL     1       1.536   8.808  19.384  0.00  0.00    +0.000 A 
ATOM     16  C   UNL     1       1.672   7.618  20.134  0.00  0.00    +0.000 A 
BRANCH  11  19
ATOM     17  C   UNL     1       1.807   4.424  20.734  0.00  0.00    +0.000 C 
ATOM     18  O   UNL     1       0.788   4.241  20.080  0.00  0.00    +0.000 OA
ATOM     19  N   UNL     1       2.687   5.480  20.604  0.00  0.00    +0.000 N 
ATOM     20  H   UNL     1       3.576   5.419  21.085  0.00  0.00    +0.000 HD
BRANCH  17  22
ATOM     21  C   UNL     1       1.512   2.309  21.926  0.00  0.00    +0.000 C 
ATOM     22  C   UNL     1       2.235   3.427  21.753  0.00  0.00    +0.000 C 
ENDBRANCH  17  22
ENDBRANCH  11  19
ENDBRANCH   1  15
BRANCH   8  23
ATOM     23  C   UNL     1      -0.839  14.869  20.071  0.00  0.00    +0.000 A 
ATOM     24  C   UNL     1      -1.606  14.889  21.236  0.00  0.00    +0.000 A 
ATOM     25  C   UNL     1      -1.191  15.583  22.375  0.00  0.00    +0.000 A 
ATOM     26  C   UNL     1       0.019  16.279  22.408  0.00  0.00    +0.000 A 
ATOM     27  C   UNL     1       0.773  16.280  21.228  0.00  0.00    +0.000 A 
ATOM     28  C   UNL     1       0.360  15.583  20.083  0.00  0.00    +0.000 A 
BRANCH  26  29
ATOM     29  N   UNL     1       0.464  16.848  23.584  0.00  0.00    +0.000 N 
ATOM     30  C   UNL     1       1.707  17.626  23.635  0.00  0.00    +0.000 C 
ATOM     31  C   UNL     1       2.406  17.387  24.993  0.00  0.00    +0.000 C 
ATOM     32  N   UNL     1       1.535  17.690  26.151  0.00  0.00    +0.000 NA
ATOM     33  C   UNL     1       2.235  17.404  27.400  0.00  0.00    +0.000 C 
ATOM     34  C   UNL     1       0.296  16.883  26.049  0.00  0.00    +0.000 C 
ATOM     35  C   UNL     1      -0.450  17.099  24.710  0.00  0.00    +0.000 C 
ENDBRANCH  26  29
ENDBRANCH   8  23
TORSDOF 5
ENDMDL
MODEL 9
REMARK VINA RESULT:      -7.4      1.999      3.234
REMARK  Name = 
REMARK  7 active torsions:
REMARK  status: ('A' for Active; 'I' for Inactive)
REMARK    1  A    between atoms: C_2  and  C_3
REMARK    2  A    between atoms: N_5  and  C_6
REMARK    3  A    between atoms: C_10  and  N_11
REMARK    4  A    between atoms: N_11  and  C_12
REMARK    5  A    between atoms: N_18  and  C_19
REMARK    6  A    between atoms: C_22  and  N_23
REMARK    7  A    between atoms: N_26  and  C_27
REMARK                            x       y       z     vdW  Elec       q    Type
REMARK                         _______ _______ _______ _____ _____    ______ ____
ROOT
ATOM      1  N   UNL     1      -1.350  12.316  22.216  0.00  0.00    +0.000 N 
ATOM      2  C   UNL     1      -0.945  11.060  22.852  0.00  0.00    +0.000 C 
ATOM      3  C   UNL     1      -0.592  12.643  21.067  0.00  0.00    +0.000 A 
ATOM      4  C   UNL     1      -0.353  13.963  20.742  0.00  0.00    +0.000 A 
ATOM      5  C   UNL     1       0.318  14.203  19.569  0.00  0.00    +0.000 A 
ATOM      6  N   UNL     1       0.739  13.229  18.747  0.00  0.00    +0.000 NA
ATOM      7  C   UNL     1       0.525  11.973  19.159  0.00  0.00    +0.000 A 
ATOM      8  N   UNL     1       1.002  10.967  18.319  0.00  0.00    +0.000 N 
ATOM      9  N   UNL     1      -0.117  11.659  20.291  0.00  0.00    +0.000 NA
ATOM     10  H   UNL     1       1.354  11.360  17.460  0.00  0.00    +0.000 HD
ENDROOT
BRANCH   1  15
ATOM     11  C   UNL     1      -3.305  14.855  24.127  0.00  0.00    +0.000 A 
ATOM     12  C   UNL     1      -4.596  14.360  23.963  0.00  0.00    +0.000 A 
ATOM     13  C   UNL     1      -4.830  13.238  23.171  0.00  0.00    +0.000 A 
ATOM     14  C   UNL     1      -3.766  12.575  22.560  0.00  0.00    +0.000 A 
ATOM     15  C   UNL     1      -2.453  13.033  22.712  0.00  0.00    +0.000 A 
ATOM     16  C   UNL     1      -2.255  14.216  23.460  0.00  0.00    +0.000 A 
BRANCH  11  19
ATOM     17  C   UNL     1      -2.953  17.278  24.536  0.00  0.00    +0.000 C 
ATOM     18  O   UNL     1      -3.234  17.696  23.420  0.00  0.00    +0.000 OA
ATOM     19  N   UNL     1      -2.994  15.961  24.953  0.00  0.00    +0.000 N 
ATOM     20  H   UNL     1      -2.905  15.775  25.944  0.00  0.00    +0.000 HD
BRANCH  17  22
ATOM     21  C   UNL     1      -1.363  18.112  26.195  0.00  0.00    +0.000 C 
ATOM     22  C   UNL     1      -2.569  18.224  25.619  0.00  0.00    +0.000 C 
ENDBRANCH  17  22
ENDBRANCH  11  19
ENDBRANCH   1  15
BRANCH   8  23
ATOM     23  C   UNL     1       1.368   9.650  18.614  0.00  0.00    +0.000 A 
ATOM     24  C   UNL     1       1.964   8.801  17.681  0.00  0.00    +0.000 A 
ATOM     25  C   UNL     1       2.417   7.528  18.034  0.00  0.00    +0.000 A 
ATOM     26  C   UNL     1       2.310   7.048  19.342  0.00  0.00    +0.000 A 
ATOM     27  C   UNL     1       1.685   7.893  20.268  0.00  0.00    +0.000 A 
ATOM     28  C   UNL     1       1.230   9.172  19.917  0.00  0.00    +0.000 A 
BRANCH  26  29
ATOM     29  N   UNL     1       2.879   5.841  19.691  0.00  0.00    +0.000 N 
ATOM     30  C   UNL     1       4.302   5.569  19.455  0.00  0.00    +0.000 C 
ATOM     31  C   UNL     1       4.485   4.081  19.082  0.00  0.00    +0.000 C 
ATOM     32  N   UNL     1       3.924   3.160  20.096  0.00  0.00    +0.000 NA
ATOM     33  C   UNL     1       4.088   1.774  19.667  0.00  0.00    +0.000 C 
ATOM     34  C   UNL     1       2.491   3.478  20.298  0.00  0.00    +0.000 C 
ATOM     35  C   UNL     1       2.256   4.957  20.688  0.00  0.00    +0.000 C 
ENDBRANCH  26  29
ENDBRANCH   8  23
TORSDOF 5
ENDMDL
