MODEL 1
REMARK VINA RESULT:      -7.4      0.000      0.000
REMARK  Name = 
REMARK  3 active torsions:
REMARK  status: ('A' for Active; 'I' for Inactive)
REMARK    1  A    between atoms: C_2  and  C_3
REMARK    2  A    between atoms: N_16  and  C_17
REMARK    3  A    between atoms: C_17  and  C_18
REMARK                            x       y       z     vdW  Elec       q    Type
REMARK                         _______ _______ _______ _____ _____    ______ ____
ROOT
ATOM      1  O   UNL     1       5.689   3.991  16.041  0.00  0.00    +0.000 OA
ATOM      2  C   UNL     1       5.496   4.476  17.153  0.00  0.00    +0.000 C 
ATOM      3  N   UNL     1       4.387   4.153  17.941  0.00  0.00    +0.000 N 
ATOM      4  C   UNL     1       3.538   3.031  17.548  0.00  0.00    +0.000 C 
ATOM      5  C   UNL     1       2.077   3.444  17.383  0.00  0.00    +0.000 C 
ATOM      6  C   UNL     1       1.574   4.225  18.598  0.00  0.00    +0.000 C 
ATOM      7  C   UNL     1       2.477   5.431  18.903  0.00  0.00    +0.000 C 
ATOM      8  C   UNL     1       1.996   6.184  20.147  0.00  0.00    +0.000 C 
ATOM      9  C   UNL     1       2.361   7.632  19.876  0.00  0.00    +0.000 C 
ATOM     10  N   UNL     1       2.257   7.822  18.427  0.00  0.00    +0.000 NA
ATOM     11  C   UNL     1       2.441   6.502  17.793  0.00  0.00    +0.000 C 
ATOM     12  C   UNL     1       3.917   4.928  19.102  0.00  0.00    +0.000 C 
ENDROOT
BRANCH   2  13
ATOM     13  C   UNL     1       6.502   5.446  17.661  0.00  0.00    +0.000 A 
ATOM     14  C   UNL     1       6.628   6.682  17.029  0.00  0.00    +0.000 A 
ATOM     15  C   UNL     1       7.535   7.583  17.555  0.00  0.00    +0.000 A 
ATOM     16  N   UNL     1       8.292   7.337  18.648  0.00  0.00    +0.000 NA
ATOM     17  C   UNL     1       8.179   6.116  19.209  0.00  0.00    +0.000 A 
ATOM     18  C   UNL     1       7.339   5.130  18.732  0.00  0.00    +0.000 A 
ENDBRANCH   2  13
BRANCH  10  19
ATOM     19  C   UNL     1       0.979   8.403  17.989  0.00  0.00    +0.000 C 
BRANCH  19  20
ATOM     20  C   UNL     1       0.814   9.863  18.319  0.00  0.00    +0.000 A 
ATOM     21  C   UNL     1      -0.413  10.381  18.744  0.00  0.00    +0.000 A 
ATOM     22  C   UNL     1      -0.493  11.726  19.044  0.00  0.00    +0.000 A 
ATOM     23  N   UNL     1       0.545  12.583  18.960  0.00  0.00    +0.000 NA
ATOM     24  C   UNL     1       1.727  12.061  18.554  0.00  0.00    +0.000 A 
ATOM     25  C   UNL     1       1.907  10.728  18.229  0.00  0.00    +0.000 A 
ENDBRANCH  19  20
ENDBRANCH  10  19
TORSDOF 3
ENDMDL
MODEL 2
REMARK VINA RESULT:      -7.2      0.443      1.040
REMARK  Name = 
REMARK  3 active torsions:
REMARK  status: ('A' for Active; 'I' for Inactive)
REMARK    1  A    between atoms: C_2  and  C_3
REMARK    2  A    between atoms: N_16  and  C_17
REMARK    3  A    between atoms: C_17  and  C_18
REMARK                            x       y       z     vdW  Elec       q    Type
REMARK                         _______ _______ _______ _____ _____    ______ ____
ROOT
ATOM      1  O   UNL     1       5.530   4.207  16.051  0.00  0.00    +0.000 OA
ATOM      2  C   UNL     1       5.353   4.675  17.172  0.00  0.00    +0.000 C 
ATOM      3  N   UNL     1       4.262   4.331  17.975  0.00  0.00    +0.000 N 
ATOM      4  C   UNL     1       3.415   3.207  17.582  0.00  0.00    +0.000 C 
ATOM      5  C   UNL     1       1.948   3.610  17.449  0.00  0.00    +0.000 C 
ATOM      6  C   UNL     1       1.460   4.369  18.684  0.00  0.00    +0.000 C 
ATOM      7  C   UNL     1       2.359   5.579  18.990  0.00  0.00    +0.000 C 
ATOM      8  C   UNL     1       1.894   6.310  20.253  0.00  0.00    +0.000 C 
ATOM      9  C   UNL     1       2.242   7.764  19.997  0.00  0.00    +0.000 C 
ATOM     10  N   UNL     1       2.109   7.975  18.552  0.00  0.00    +0.000 NA
ATOM     11  C   UNL     1       2.293   6.665  17.897  0.00  0.00    +0.000 C 
ATOM     12  C   UNL     1       3.806   5.086  19.156  0.00  0.00    +0.000 C 
ENDROOT
BRANCH   2  13
ATOM     13  C   UNL     1       6.360   5.647  17.676  0.00  0.00    +0.000 A 
ATOM     14  C   UNL     1       7.220   5.257  18.702  0.00  0.00    +0.000 A 
ATOM     15  C   UNL     1       8.179   6.164  19.115  0.00  0.00    +0.000 A 
ATOM     16  N   UNL     1       8.334   7.393  18.575  0.00  0.00    +0.000 NA
ATOM     17  C   UNL     1       7.458   7.756  17.616  0.00  0.00    +0.000 A 
ATOM     18  C   UNL     1       6.436   6.943  17.167  0.00  0.00    +0.000 A 
ENDBRANCH   2  13
BRANCH  10  19
ATOM     19  C   UNL     1       0.818   8.550  18.146  0.00  0.00    +0.000 C 
BRANCH  19  20
ATOM     20  C   UNL     1       0.533   9.909  18.728  0.00  0.00    +0.000 A 
ATOM     21  C   UNL     1      -0.637  10.163  19.449  0.00  0.00    +0.000 A 
ATOM     22  C   UNL     1      -0.831  11.428  19.968  0.00  0.00    +0.000 A 
ATOM     23  N   UNL     1       0.044  12.445  19.830  0.00  0.00    +0.000 NA
ATOM     24  C   UNL     1       1.176  12.177  19.135  0.00  0.00    +0.000 A 
ATOM     25  C   UNL     1       1.460  10.944  18.575  0.00  0.00    +0.000 A 
ENDBRANCH  19  20
ENDBRANCH  10  19
TORSDOF 3
ENDMDL
MODEL 3
REMARK VINA RESULT:      -7.2      0.553      1.049
REMARK  Name = 
REMARK  3 active torsions:
REMARK  status: ('A' for Active; 'I' for Inactive)
REMARK    1  A    between atoms: C_2  and  C_3
REMARK    2  A    between atoms: N_16  and  C_17
REMARK    3  A    between atoms: C_17  and  C_18
REMARK                            x       y       z     vdW  Elec       q    Type
REMARK                         _______ _______ _______ _____ _____    ______ ____
ROOT
ATOM      1  O   UNL     1       5.584   4.198  15.986  0.00  0.00    +0.000 OA
ATOM      2  C   UNL     1       5.413   4.671  17.106  0.00  0.00    +0.000 C 
ATOM      3  N   UNL     1       4.302   4.366  17.899  0.00  0.00    +0.000 N 
ATOM      4  C   UNL     1       3.419   3.274  17.496  0.00  0.00    +0.000 C 
ATOM      5  C   UNL     1       1.969   3.729  17.350  0.00  0.00    +0.000 C 
ATOM      6  C   UNL     1       1.497   4.505  18.581  0.00  0.00    +0.000 C 
ATOM      7  C   UNL     1       2.436   5.681  18.897  0.00  0.00    +0.000 C 
ATOM      8  C   UNL     1       1.986   6.428  20.156  0.00  0.00    +0.000 C 
ATOM      9  C   UNL     1       2.389   7.868  19.905  0.00  0.00    +0.000 C 
ATOM     10  N   UNL     1       2.277   8.084  18.459  0.00  0.00    +0.000 NA
ATOM     11  C   UNL     1       2.421   6.769  17.804  0.00  0.00    +0.000 C 
ATOM     12  C   UNL     1       3.863   5.135  19.076  0.00  0.00    +0.000 C 
ENDROOT
BRANCH   2  13
ATOM     13  C   UNL     1       6.449   5.605  17.621  0.00  0.00    +0.000 A 
ATOM     14  C   UNL     1       6.532   6.886  17.078  0.00  0.00    +0.000 A 
ATOM     15  C   UNL     1       7.472   7.750  17.611  0.00  0.00    +0.000 A 
ATOM     16  N   UNL     1       8.299   7.426  18.630  0.00  0.00    +0.000 NA
ATOM     17  C   UNL     1       8.224   6.165  19.102  0.00  0.00    +0.000 A 
ATOM     18  C   UNL     1       7.355   5.213  18.607  0.00  0.00    +0.000 A 
ENDBRANCH   2  13
BRANCH  10  19
ATOM     19  C   UNL     1       1.012   8.706  18.041  0.00  0.00    +0.000 C 
BRANCH  19  20
ATOM     20  C   UNL     1       0.668   9.973  18.781  0.00  0.00    +0.000 A 
ATOM     21  C   UNL     1       1.406  11.146  18.602  0.00  0.00    +0.000 A 
ATOM     22  C   UNL     1       1.029  12.276  19.300  0.00  0.00    +0.000 A 
ATOM     23  N   UNL     1      -0.018  12.326  20.149  0.00  0.00    +0.000 NA
ATOM     24  C   UNL     1      -0.725  11.182  20.304  0.00  0.00    +0.000 A 
ATOM     25  C   UNL     1      -0.425   9.999  19.651  0.00  0.00    +0.000 A 
ENDBRANCH  19  20
ENDBRANCH  10  19
TORSDOF 3
ENDMDL
MODEL 4
REMARK VINA RESULT:      -7.0      0.313      1.357
REMARK  Name = 
REMARK  3 active torsions:
REMARK  status: ('A' for Active; 'I' for Inactive)
REMARK    1  A    between atoms: C_2  and  C_3
REMARK    2  A    between atoms: N_16  and  C_17
REMARK    3  A    between atoms: C_17  and  C_18
REMARK                            x       y       z     vdW  Elec       q    Type
REMARK                         _______ _______ _______ _____ _____    ______ ____
ROOT
ATOM      1  O   UNL     1       5.922   4.284  15.993  0.00  0.00    +0.000 OA
ATOM      2  C   UNL     1       5.660   4.740  17.103  0.00  0.00    +0.000 C 
ATOM      3  N   UNL     1       4.528   4.362  17.832  0.00  0.00    +0.000 N 
ATOM      4  C   UNL     1       3.740   3.219  17.380  0.00  0.00    +0.000 C 
ATOM      5  C   UNL     1       2.274   3.583  17.154  0.00  0.00    +0.000 C 
ATOM      6  C   UNL     1       1.687   4.322  18.359  0.00  0.00    +0.000 C 
ATOM      7  C   UNL     1       2.531   5.553  18.728  0.00  0.00    +0.000 C 
ATOM      8  C   UNL     1       1.966   6.263  19.962  0.00  0.00    +0.000 C 
ATOM      9  C   UNL     1       2.291   7.727  19.735  0.00  0.00    +0.000 C 
ATOM     10  N   UNL     1       2.246   7.944  18.286  0.00  0.00    +0.000 NA
ATOM     11  C   UNL     1       2.508   6.643  17.638  0.00  0.00    +0.000 C 
ATOM     12  C   UNL     1       3.978   5.097  18.985  0.00  0.00    +0.000 C 
ENDROOT
BRANCH   2  13
ATOM     13  C   UNL     1       6.606   5.735  17.676  0.00  0.00    +0.000 A 
ATOM     14  C   UNL     1       7.447   5.344  18.716  0.00  0.00    +0.000 A 
ATOM     15  C   UNL     1       8.351   6.275  19.195  0.00  0.00    +0.000 A 
ATOM     16  N   UNL     1       8.470   7.529  18.704  0.00  0.00    +0.000 NA
ATOM     17  C   UNL     1       7.611   7.889  17.728  0.00  0.00    +0.000 A 
ATOM     18  C   UNL     1       6.642   7.051  17.216  0.00  0.00    +0.000 A 
ENDBRANCH   2  13
BRANCH  10  19
ATOM     19  C   UNL     1       0.969   8.487  17.800  0.00  0.00    +0.000 C 
BRANCH  19  20
ATOM     20  C   UNL     1       0.675   9.890  18.262  0.00  0.00    +0.000 A 
ATOM     21  C   UNL     1       1.698  10.817  18.478  0.00  0.00    +0.000 A 
ATOM     22  C   UNL     1       1.358  12.091  18.888  0.00  0.00    +0.000 A 
ATOM     23  N   UNL     1       0.092  12.508  19.092  0.00  0.00    +0.000 NA
ATOM     24  C   UNL     1      -0.886  11.598  18.870  0.00  0.00    +0.000 A 
ATOM     25  C   UNL     1      -0.647  10.298  18.460  0.00  0.00    +0.000 A 
ENDBRANCH  19  20
ENDBRANCH  10  19
TORSDOF 3
ENDMDL
MODEL 5
REMARK VINA RESULT:      -6.6      3.903      5.854
REMARK  Name = 
REMARK  3 active torsions:
REMARK  status: ('A' for Active; 'I' for Inactive)
REMARK    1  A    between atoms: C_2  and  C_3
REMARK    2  A    between atoms: N_16  and  C_17
REMARK    3  A    between atoms: C_17  and  C_18
REMARK                            x       y       z     vdW  Elec       q    Type
REMARK                         _______ _______ _______ _____ _____    ______ ____
ROOT
ATOM      1  O   UNL     1       8.191   4.271  16.771  0.00  0.00    +0.000 OA
ATOM      2  C   UNL     1       7.109   4.685  16.367  0.00  0.00    +0.000 C 
ATOM      3  N   UNL     1       6.181   5.323  17.197  0.00  0.00    +0.000 N 
ATOM      4  C   UNL     1       6.588   5.724  18.541  0.00  0.00    +0.000 C 
ATOM      5  C   UNL     1       5.682   5.132  19.618  0.00  0.00    +0.000 C 
ATOM      6  C   UNL     1       4.204   5.372  19.305  0.00  0.00    +0.000 C 
ATOM      7  C   UNL     1       3.837   4.857  17.903  0.00  0.00    +0.000 C 
ATOM      8  C   UNL     1       2.368   5.140  17.575  0.00  0.00    +0.000 C 
ATOM      9  C   UNL     1       1.950   3.983  16.687  0.00  0.00    +0.000 C 
ATOM     10  N   UNL     1       2.722   2.819  17.132  0.00  0.00    +0.000 NA
ATOM     11  C   UNL     1       3.948   3.324  17.781  0.00  0.00    +0.000 C 
ATOM     12  C   UNL     1       4.759   5.534  16.874  0.00  0.00    +0.000 C 
ENDROOT
BRANCH   2  13
ATOM     13  C   UNL     1       6.795   4.492  14.926  0.00  0.00    +0.000 A 
ATOM     14  C   UNL     1       7.595   5.116  13.971  0.00  0.00    +0.000 A 
ATOM     15  C   UNL     1       7.310   4.877  12.639  0.00  0.00    +0.000 A 
ATOM     16  N   UNL     1       6.314   4.068  12.216  0.00  0.00    +0.000 NA
ATOM     17  C   UNL     1       5.531   3.514  13.164  0.00  0.00    +0.000 A 
ATOM     18  C   UNL     1       5.701   3.728  14.517  0.00  0.00    +0.000 A 
ENDBRANCH   2  13
BRANCH  10  19
ATOM     19  C   UNL     1       1.999   1.941  18.064  0.00  0.00    +0.000 C 
BRANCH  19  20
ATOM     20  C   UNL     1       2.116   2.340  19.512  0.00  0.00    +0.000 A 
ATOM     21  C   UNL     1       1.107   3.061  20.154  0.00  0.00    +0.000 A 
ATOM     22  C   UNL     1       1.271   3.382  21.487  0.00  0.00    +0.000 A 
ATOM     23  N   UNL     1       2.350   3.040  22.221  0.00  0.00    +0.000 NA
ATOM     24  C   UNL     1       3.314   2.335  21.582  0.00  0.00    +0.000 A 
ATOM     25  C   UNL     1       3.243   1.967  20.250  0.00  0.00    +0.000 A 
ENDBRANCH  19  20
ENDBRANCH  10  19
TORSDOF 3
ENDMDL
MODEL 6
REMARK VINA RESULT:      -6.3      6.009      9.196
REMARK  Name = 
REMARK  3 active torsions:
REMARK  status: ('A' for Active; 'I' for Inactive)
REMARK    1  A    between atoms: C_2  and  C_3
REMARK    2  A    between atoms: N_16  and  C_17
REMARK    3  A    between atoms: C_17  and  C_18
REMARK                            x       y       z     vdW  Elec       q    Type
REMARK                         _______ _______ _______ _____ _____    ______ ____
ROOT
ATOM      1  O   UNL     1      -0.163  10.386  23.489  0.00  0.00    +0.000 OA
ATOM      2  C   UNL     1      -0.788  11.016  22.641  0.00  0.00    +0.000 C 
ATOM      3  N   UNL     1      -0.794  10.667  21.286  0.00  0.00    +0.000 N 
ATOM      4  C   UNL     1      -0.230   9.382  20.880  0.00  0.00    +0.000 C 
ATOM      5  C   UNL     1       0.870   9.541  19.834  0.00  0.00    +0.000 C 
ATOM      6  C   UNL     1       0.419  10.430  18.674  0.00  0.00    +0.000 C 
ATOM      7  C   UNL     1      -0.091  11.791  19.176  0.00  0.00    +0.000 C 
ATOM      8  C   UNL     1      -0.585  12.661  18.016  0.00  0.00    +0.000 C 
ATOM      9  C   UNL     1      -0.276  14.081  18.452  0.00  0.00    +0.000 C 
ATOM     10  N   UNL     1       0.939  14.010  19.269  0.00  0.00    +0.000 NA
ATOM     11  C   UNL     1       1.018  12.644  19.824  0.00  0.00    +0.000 C 
ATOM     12  C   UNL     1      -1.226  11.547  20.186  0.00  0.00    +0.000 C 
ENDROOT
BRANCH   2  13
ATOM     13  C   UNL     1      -1.569  12.195  23.100  0.00  0.00    +0.000 A 
ATOM     14  C   UNL     1      -0.933  13.433  23.187  0.00  0.00    +0.000 A 
ATOM     15  C   UNL     1      -1.697  14.521  23.568  0.00  0.00    +0.000 A 
ATOM     16  N   UNL     1      -3.018  14.453  23.846  0.00  0.00    +0.000 NA
ATOM     17  C   UNL     1      -3.592  13.234  23.795  0.00  0.00    +0.000 A 
ATOM     18  C   UNL     1      -2.908  12.079  23.473  0.00  0.00    +0.000 A 
ENDBRANCH   2  13
BRANCH  10  19
ATOM     19  C   UNL     1       2.175  14.313  18.533  0.00  0.00    +0.000 C 
BRANCH  19  20
ATOM     20  C   UNL     1       2.924  15.516  19.045  0.00  0.00    +0.000 A 
ATOM     21  C   UNL     1       4.238  15.779  18.651  0.00  0.00    +0.000 A 
ATOM     22  C   UNL     1       4.863  16.906  19.146  0.00  0.00    +0.000 A 
ATOM     23  N   UNL     1       4.282  17.783  19.991  0.00  0.00    +0.000 NA
ATOM     24  C   UNL     1       3.006  17.515  20.355  0.00  0.00    +0.000 A 
ATOM     25  C   UNL     1       2.296  16.411  19.915  0.00  0.00    +0.000 A 
ENDBRANCH  19  20
ENDBRANCH  10  19
TORSDOF 3
ENDMDL
MODEL 7
REMARK VINA RESULT:      -6.2      1.152      1.707
REMARK  Name = 
REMARK  3 active torsions:
REMARK  status: ('A' for Active; 'I' for Inactive)
REMARK    1  A    between atoms: C_2  and  C_3
REMARK    2  A    between atoms: N_16  and  C_17
REMARK    3  A    between atoms: C_17  and  C_18
REMARK                            x       y       z     vdW  Elec       q    Type
REMARK                         _______ _______ _______ _____ _____    ______ ____
ROOT
ATOM      1  O   UNL     1       4.888   4.495  15.891  0.00  0.00    +0.000 OA
ATOM      2  C   UNL     1       4.862   4.758  17.090  0.00  0.00    +0.000 C 
ATOM      3  N   UNL     1       3.835   4.335  17.940  0.00  0.00    +0.000 N 
ATOM      4  C   UNL     1       2.869   3.354  17.453  0.00  0.00    +0.000 C 
ATOM      5  C   UNL     1       1.431   3.857  17.562  0.00  0.00    +0.000 C 
ATOM      6  C   UNL     1       1.132   4.403  18.959  0.00  0.00    +0.000 C 
ATOM      7  C   UNL     1       2.147   5.483  19.369  0.00  0.00    +0.000 C 
ATOM      8  C   UNL     1       1.872   5.994  20.786  0.00  0.00    +0.000 C 
ATOM      9  C   UNL     1       2.303   7.448  20.753  0.00  0.00    +0.000 C 
ATOM     10  N   UNL     1       2.040   7.928  19.393  0.00  0.00    +0.000 NA
ATOM     11  C   UNL     1       2.055   6.752  18.500  0.00  0.00    +0.000 C 
ATOM     12  C   UNL     1       3.562   4.884  19.279  0.00  0.00    +0.000 C 
ENDROOT
BRANCH   2  13
ATOM     13  C   UNL     1       5.987   5.561  17.639  0.00  0.00    +0.000 A 
ATOM     14  C   UNL     1       6.647   5.106  18.780  0.00  0.00    +0.000 A 
ATOM     15  C   UNL     1       7.721   5.846  19.238  0.00  0.00    +0.000 A 
ATOM     16  N   UNL     1       8.170   6.971  18.638  0.00  0.00    +0.000 NA
ATOM     17  C   UNL     1       7.483   7.408  17.564  0.00  0.00    +0.000 A 
ATOM     18  C   UNL     1       6.369   6.769  17.057  0.00  0.00    +0.000 A 
ENDBRANCH   2  13
BRANCH  10  19
ATOM     19  C   UNL     1       0.763   8.641  19.244  0.00  0.00    +0.000 C 
BRANCH  19  20
ATOM     20  C   UNL     1       0.729   9.997  19.900  0.00  0.00    +0.000 A 
ATOM     21  C   UNL     1       1.448  11.077  19.381  0.00  0.00    +0.000 A 
ATOM     22  C   UNL     1       1.362  12.297  20.022  0.00  0.00    +0.000 A 
ATOM     23  N   UNL     1       0.619  12.521  21.125  0.00  0.00    +0.000 NA
ATOM     24  C   UNL     1      -0.077  11.465  21.608  0.00  0.00    +0.000 A 
ATOM     25  C   UNL     1      -0.054  10.204  21.039  0.00  0.00    +0.000 A 
ENDBRANCH  19  20
ENDBRANCH  10  19
TORSDOF 3
ENDMDL
MODEL 8
REMARK VINA RESULT:      -6.1      3.679      8.395
REMARK  Name = 
REMARK  3 active torsions:
REMARK  status: ('A' for Active; 'I' for Inactive)
REMARK    1  A    between atoms: C_2  and  C_3
REMARK    2  A    between atoms: N_16  and  C_17
REMARK    3  A    between atoms: C_17  and  C_18
REMARK                            x       y       z     vdW  Elec       q    Type
REMARK                         _______ _______ _______ _____ _____    ______ ____
ROOT
ATOM      1  O   UNL     1       1.909  14.826  22.328  0.00  0.00    +0.000 OA
ATOM      2  C   UNL     1       1.380  14.457  21.283  0.00  0.00    +0.000 C 
ATOM      3  N   UNL     1       0.158  13.777  21.248  0.00  0.00    +0.000 N 
ATOM      4  C   UNL     1      -0.645  13.696  22.466  0.00  0.00    +0.000 C 
ATOM      5  C   UNL     1      -0.964  12.254  22.851  0.00  0.00    +0.000 C 
ATOM      6  C   UNL     1      -1.527  11.467  21.666  0.00  0.00    +0.000 C 
ATOM      7  C   UNL     1      -0.591  11.540  20.448  0.00  0.00    +0.000 C 
ATOM      8  C   UNL     1      -1.180  10.790  19.250  0.00  0.00    +0.000 C 
ATOM      9  C   UNL     1       0.030  10.250  18.511  0.00  0.00    +0.000 C 
ATOM     10  N   UNL     1       1.048   9.970  19.529  0.00  0.00    +0.000 NA
ATOM     11  C   UNL     1       0.760  10.836  20.689  0.00  0.00    +0.000 C 
ATOM     12  C   UNL     1      -0.358  13.019  20.096  0.00  0.00    +0.000 C 
ENDROOT
BRANCH   2  13
ATOM     13  C   UNL     1       2.089  14.760  20.011  0.00  0.00    +0.000 A 
ATOM     14  C   UNL     1       1.790  15.942  19.337  0.00  0.00    +0.000 A 
ATOM     15  C   UNL     1       2.501  16.222  18.184  0.00  0.00    +0.000 A 
ATOM     16  N   UNL     1       3.471  15.423  17.687  0.00  0.00    +0.000 NA
ATOM     17  C   UNL     1       3.706  14.266  18.338  0.00  0.00    +0.000 A 
ATOM     18  C   UNL     1       3.018  13.872  19.469  0.00  0.00    +0.000 A 
ENDBRANCH   2  13
BRANCH  10  19
ATOM     19  C   UNL     1       1.092   8.566  19.962  0.00  0.00    +0.000 C 
BRANCH  19  20
ATOM     20  C   UNL     1       2.138   7.734  19.267  0.00  0.00    +0.000 A 
ATOM     21  C   UNL     1       2.557   6.507  19.786  0.00  0.00    +0.000 A 
ATOM     22  C   UNL     1       3.509   5.787  19.092  0.00  0.00    +0.000 A 
ATOM     23  N   UNL     1       4.064   6.190  17.931  0.00  0.00    +0.000 NA
ATOM     24  C   UNL     1       3.640   7.379  17.440  0.00  0.00    +0.000 A 
ATOM     25  C   UNL     1       2.693   8.173  18.062  0.00  0.00    +0.000 A 
ENDBRANCH  19  20
ENDBRANCH  10  19
TORSDOF 3
ENDMDL
MODEL 9
REMARK VINA RESULT:      -5.9      3.820      8.637
REMARK  Name = 
REMARK  3 active torsions:
REMARK  status: ('A' for Active; 'I' for Inactive)
REMARK    1  A    between atoms: C_2  and  C_3
REMARK    2  A    between atoms: N_16  and  C_17
REMARK    3  A    between atoms: C_17  and  C_18
REMARK                            x       y       z     vdW  Elec       q    Type
REMARK                         _______ _______ _______ _____ _____    ______ ____
ROOT
ATOM      1  O   UNL     1       1.765  15.177  22.425  0.00  0.00    +0.000 OA
ATOM      2  C   UNL     1       1.265  14.766  21.382  0.00  0.00    +0.000 C 
ATOM      3  N   UNL     1       0.049  14.076  21.343  0.00  0.00    +0.000 N 
ATOM      4  C   UNL     1      -0.784  14.033  22.542  0.00  0.00    +0.000 C 
ATOM      5  C   UNL     1      -1.102  12.603  22.972  0.00  0.00    +0.000 C 
ATOM      6  C   UNL     1      -1.630  11.769  21.803  0.00  0.00    +0.000 C 
ATOM      7  C   UNL     1      -0.665  11.804  20.607  0.00  0.00    +0.000 C 
ATOM      8  C   UNL     1      -1.219  11.006  19.423  0.00  0.00    +0.000 C 
ATOM      9  C   UNL     1       0.013  10.450  18.734  0.00  0.00    +0.000 C 
ATOM     10  N   UNL     1       1.007  10.216  19.786  0.00  0.00    +0.000 NA
ATOM     11  C   UNL     1       0.685  11.121  20.907  0.00  0.00    +0.000 C 
ATOM     12  C   UNL     1      -0.434  13.272  20.206  0.00  0.00    +0.000 C 
ENDROOT
BRANCH   2  13
ATOM     13  C   UNL     1       2.003  15.028  20.118  0.00  0.00    +0.000 A 
ATOM     14  C   UNL     1       2.962  14.109  19.693  0.00  0.00    +0.000 A 
ATOM     15  C   UNL     1       3.595  14.353  18.489  0.00  0.00    +0.000 A 
ATOM     16  N   UNL     1       3.329  15.419  17.701  0.00  0.00    +0.000 NA
ATOM     17  C   UNL     1       2.428  16.311  18.161  0.00  0.00    +0.000 A 
ATOM     18  C   UNL     1       1.777  16.184  19.371  0.00  0.00    +0.000 A 
ENDBRANCH   2  13
BRANCH  10  19
ATOM     19  C   UNL     1       1.051   8.829  20.272  0.00  0.00    +0.000 C 
BRANCH  19  20
ATOM     20  C   UNL     1       1.957   7.921  19.481  0.00  0.00    +0.000 A 
ATOM     21  C   UNL     1       2.553   8.344  18.290  0.00  0.00    +0.000 A 
ATOM     22  C   UNL     1       3.385   7.467  17.621  0.00  0.00    +0.000 A 
ATOM     23  N   UNL     1       3.667   6.219  18.046  0.00  0.00    +0.000 NA
ATOM     24  C   UNL     1       3.086   5.831  19.206  0.00  0.00    +0.000 A 
ATOM     25  C   UNL     1       2.237   6.634  19.947  0.00  0.00    +0.000 A 
ENDBRANCH  19  20
ENDBRANCH  10  19
TORSDOF 3
ENDMDL
