MODEL 1
REMARK VINA RESULT:      -8.1      0.000      0.000
REMARK  Name = 
REMARK  2 active torsions:
REMARK  status: ('A' for Active; 'I' for Inactive)
REMARK    1  A    between atoms: C_1  and  C_2
REMARK    2  A    between atoms: C_16  and  C_17
REMARK                            x       y       z     vdW  Elec       q    Type
REMARK                         _______ _______ _______ _____ _____    ______ ____
ROOT
ATOM      1  C   UNL     1       6.745   4.266  13.741  0.00  0.00    +0.000 C 
ATOM      2  C   UNL     1       5.705   4.749  14.744  0.00  0.00    +0.000 C 
ATOM      3  C   UNL     1       5.405   3.638  15.748  0.00  0.00    +0.000 C 
ATOM      4  C   UNL     1       4.518   4.157  16.840  0.00  0.00    +0.000 C 
ATOM      5  C   UNL     1       4.432   5.472  17.098  0.00  0.00    +0.000 C 
ATOM      6  C   UNL     1       3.455   5.970  18.106  0.00  0.00    +0.000 C 
ATOM      7  O   UNL     1       3.236   7.165  18.251  0.00  0.00    +0.000 OA
ATOM      8  C   UNL     1       2.720   4.976  18.915  0.00  0.00    +0.000 A 
ATOM      9  C   UNL     1       1.879   5.403  19.952  0.00  0.00    +0.000 A 
ATOM     10  C   UNL     1       1.157   4.467  20.698  0.00  0.00    +0.000 A 
ATOM     11  C   UNL     1       1.267   3.107  20.410  0.00  0.00    +0.000 A 
ATOM     12  C   UNL     1       2.108   2.679  19.385  0.00  0.00    +0.000 A 
ATOM     13  C   UNL     1       2.838   3.616  18.643  0.00  0.00    +0.000 A 
ATOM     14  C   UNL     1       3.727   3.144  17.573  0.00  0.00    +0.000 C 
ATOM     15  O   UNL     1       3.814   1.953  17.308  0.00  0.00    +0.000 OA
ATOM     16  C   UNL     1       5.266   6.493  16.348  0.00  0.00    +0.000 C 
ATOM     17  C   UNL     1       6.108   7.370  17.276  0.00  0.00    +0.000 C 
ATOM     18  O   UNL     1       6.224   5.877  15.452  0.00  0.00    +0.000 OA
ENDROOT
TORSDOF 0
ENDMDL
MODEL 2
REMARK VINA RESULT:      -7.6      1.542      1.543
REMARK  Name = 
REMARK  2 active torsions:
REMARK  status: ('A' for Active; 'I' for Inactive)
REMARK    1  A    between atoms: C_1  and  C_2
REMARK    2  A    between atoms: C_16  and  C_17
REMARK                            x       y       z     vdW  Elec       q    Type
REMARK                         _______ _______ _______ _____ _____    ______ ____
ROOT
ATOM      1  C   UNL     1       6.768   4.384  13.609  0.00  0.00    +0.000 C 
ATOM      2  C   UNL     1       6.165   4.774  14.953  0.00  0.00    +0.000 C 
ATOM      3  C   UNL     1       5.046   3.800  15.315  0.00  0.00    +0.000 C 
ATOM      4  C   UNL     1       4.564   4.066  16.710  0.00  0.00    +0.000 C 
ATOM      5  C   UNL     1       5.332   4.721  17.596  0.00  0.00    +0.000 C 
ATOM      6  C   UNL     1       4.784   5.076  18.934  0.00  0.00    +0.000 C 
ATOM      7  O   UNL     1       5.393   5.808  19.703  0.00  0.00    +0.000 OA
ATOM      8  C   UNL     1       3.456   4.547  19.308  0.00  0.00    +0.000 A 
ATOM      9  C   UNL     1       2.956   4.761  20.599  0.00  0.00    +0.000 A 
ATOM     10  C   UNL     1       1.687   4.290  20.946  0.00  0.00    +0.000 A 
ATOM     11  C   UNL     1       0.912   3.610  20.007  0.00  0.00    +0.000 A 
ATOM     12  C   UNL     1       1.409   3.389  18.724  0.00  0.00    +0.000 A 
ATOM     13  C   UNL     1       2.685   3.853  18.380  0.00  0.00    +0.000 A 
ATOM     14  C   UNL     1       3.195   3.602  17.025  0.00  0.00    +0.000 C 
ATOM     15  O   UNL     1       2.513   3.019  16.195  0.00  0.00    +0.000 OA
ATOM     16  C   UNL     1       6.740   5.171  17.259  0.00  0.00    +0.000 C 
ATOM     17  C   UNL     1       7.785   4.637  18.238  0.00  0.00    +0.000 C 
ATOM     18  O   UNL     1       7.177   4.701  15.959  0.00  0.00    +0.000 OA
ENDROOT
TORSDOF 0
ENDMDL
MODEL 3
REMARK VINA RESULT:      -7.4      1.092      3.198
REMARK  Name = 
REMARK  2 active torsions:
REMARK  status: ('A' for Active; 'I' for Inactive)
REMARK    1  A    between atoms: C_1  and  C_2
REMARK    2  A    between atoms: C_16  and  C_17
REMARK                            x       y       z     vdW  Elec       q    Type
REMARK                         _______ _______ _______ _____ _____    ______ ____
ROOT
ATOM      1  C   UNL     1       7.718   8.035  17.420  0.00  0.00    +0.000 C 
ATOM      2  C   UNL     1       6.940   6.729  17.527  0.00  0.00    +0.000 C 
ATOM      3  C   UNL     1       5.518   7.016  18.004  0.00  0.00    +0.000 C 
ATOM      4  C   UNL     1       4.694   5.765  17.946  0.00  0.00    +0.000 C 
ATOM      5  C   UNL     1       5.049   4.736  17.160  0.00  0.00    +0.000 C 
ATOM      6  C   UNL     1       4.280   3.462  17.211  0.00  0.00    +0.000 C 
ATOM      7  O   UNL     1       4.667   2.455  16.633  0.00  0.00    +0.000 OA
ATOM      8  C   UNL     1       3.039   3.427  18.012  0.00  0.00    +0.000 A 
ATOM      9  C   UNL     1       2.226   2.286  17.993  0.00  0.00    +0.000 A 
ATOM     10  C   UNL     1       1.069   2.237  18.775  0.00  0.00    +0.000 A 
ATOM     11  C   UNL     1       0.722   3.321  19.580  0.00  0.00    +0.000 A 
ATOM     12  C   UNL     1       1.524   4.461  19.596  0.00  0.00    +0.000 A 
ATOM     13  C   UNL     1       2.679   4.513  18.805  0.00  0.00    +0.000 A 
ATOM     14  C   UNL     1       3.506   5.727  18.828  0.00  0.00    +0.000 C 
ATOM     15  O   UNL     1       3.213   6.674  19.544  0.00  0.00    +0.000 OA
ATOM     16  C   UNL     1       6.259   4.803  16.249  0.00  0.00    +0.000 C 
ATOM     17  C   UNL     1       5.918   4.520  14.786  0.00  0.00    +0.000 C 
ATOM     18  O   UNL     1       6.874   6.116  16.238  0.00  0.00    +0.000 OA
ENDROOT
TORSDOF 0
ENDMDL
MODEL 4
REMARK VINA RESULT:      -6.9      2.133      4.023
REMARK  Name = 
REMARK  2 active torsions:
REMARK  status: ('A' for Active; 'I' for Inactive)
REMARK    1  A    between atoms: C_1  and  C_2
REMARK    2  A    between atoms: C_16  and  C_17
REMARK                            x       y       z     vdW  Elec       q    Type
REMARK                         _______ _______ _______ _____ _____    ______ ____
ROOT
ATOM      1  C   UNL     1       6.081   4.009  15.745  0.00  0.00    +0.000 C 
ATOM      2  C   UNL     1       5.347   4.462  17.001  0.00  0.00    +0.000 C 
ATOM      3  C   UNL     1       4.439   5.644  16.667  0.00  0.00    +0.000 C 
ATOM      4  C   UNL     1       3.584   5.985  17.850  0.00  0.00    +0.000 C 
ATOM      5  C   UNL     1       3.354   5.088  18.822  0.00  0.00    +0.000 C 
ATOM      6  C   UNL     1       2.601   5.491  20.042  0.00  0.00    +0.000 C 
ATOM      7  O   UNL     1       2.512   4.752  21.014  0.00  0.00    +0.000 OA
ATOM      8  C   UNL     1       1.984   6.833  20.070  0.00  0.00    +0.000 A 
ATOM      9  C   UNL     1       1.171   7.206  21.149  0.00  0.00    +0.000 A 
ATOM     10  C   UNL     1       0.612   8.486  21.194  0.00  0.00    +0.000 A 
ATOM     11  C   UNL     1       0.865   9.398  20.170  0.00  0.00    +0.000 A 
ATOM     12  C   UNL     1       1.667   9.027  19.092  0.00  0.00    +0.000 A 
ATOM     13  C   UNL     1       2.219   7.741  19.042  0.00  0.00    +0.000 A 
ATOM     14  C   UNL     1       3.054   7.366  17.892  0.00  0.00    +0.000 C 
ATOM     15  O   UNL     1       3.290   8.167  17.000  0.00  0.00    +0.000 OA
ATOM     16  C   UNL     1       3.891   3.672  18.750  0.00  0.00    +0.000 C 
ATOM     17  C   UNL     1       2.794   2.614  18.872  0.00  0.00    +0.000 C 
ATOM     18  O   UNL     1       4.539   3.387  17.485  0.00  0.00    +0.000 OA
ENDROOT
TORSDOF 0
ENDMDL
MODEL 5
REMARK VINA RESULT:      -6.8      2.563      5.505
REMARK  Name = 
REMARK  2 active torsions:
REMARK  status: ('A' for Active; 'I' for Inactive)
REMARK    1  A    between atoms: C_1  and  C_2
REMARK    2  A    between atoms: C_16  and  C_17
REMARK                            x       y       z     vdW  Elec       q    Type
REMARK                         _______ _______ _______ _____ _____    ______ ____
ROOT
ATOM      1  C   UNL     1       0.261   9.331  22.532  0.00  0.00    +0.000 C 
ATOM      2  C   UNL     1       1.207   8.766  21.480  0.00  0.00    +0.000 C 
ATOM      3  C   UNL     1       0.993   7.259  21.353  0.00  0.00    +0.000 C 
ATOM      4  C   UNL     1       1.790   6.722  20.203  0.00  0.00    +0.000 C 
ATOM      5  C   UNL     1       2.208   7.525  19.213  0.00  0.00    +0.000 C 
ATOM      6  C   UNL     1       3.098   6.990  18.146  0.00  0.00    +0.000 C 
ATOM      7  O   UNL     1       3.627   7.724  17.322  0.00  0.00    +0.000 OA
ATOM      8  C   UNL     1       3.361   5.536  18.121  0.00  0.00    +0.000 A 
ATOM      9  C   UNL     1       4.097   4.976  17.068  0.00  0.00    +0.000 A 
ATOM     10  C   UNL     1       4.375   3.607  17.059  0.00  0.00    +0.000 A 
ATOM     11  C   UNL     1       3.926   2.794  18.099  0.00  0.00    +0.000 A 
ATOM     12  C   UNL     1       3.187   3.346  19.143  0.00  0.00    +0.000 A 
ATOM     13  C   UNL     1       2.901   4.717  19.148  0.00  0.00    +0.000 A 
ATOM     14  C   UNL     1       2.112   5.278  20.253  0.00  0.00    +0.000 C 
ATOM     15  O   UNL     1       1.729   4.571  21.174  0.00  0.00    +0.000 OA
ATOM     16  C   UNL     1       1.850   8.999  19.170  0.00  0.00    +0.000 C 
ATOM     17  C   UNL     1       1.153   9.403  17.870  0.00  0.00    +0.000 C 
ATOM     18  O   UNL     1       0.924   9.376  20.219  0.00  0.00    +0.000 OA
ENDROOT
TORSDOF 0
ENDMDL
MODEL 6
REMARK VINA RESULT:      -6.7      1.266      5.078
REMARK  Name = 
REMARK  2 active torsions:
REMARK  status: ('A' for Active; 'I' for Inactive)
REMARK    1  A    between atoms: C_1  and  C_2
REMARK    2  A    between atoms: C_16  and  C_17
REMARK                            x       y       z     vdW  Elec       q    Type
REMARK                         _______ _______ _______ _____ _____    ______ ____
ROOT
ATOM      1  C   UNL     1       1.475   3.264  21.707  0.00  0.00    +0.000 C 
ATOM      2  C   UNL     1       2.447   3.981  20.778  0.00  0.00    +0.000 C 
ATOM      3  C   UNL     1       2.589   3.194  19.477  0.00  0.00    +0.000 C 
ATOM      4  C   UNL     1       3.403   3.975  18.490  0.00  0.00    +0.000 C 
ATOM      5  C   UNL     1       3.542   5.305  18.604  0.00  0.00    +0.000 C 
ATOM      6  C   UNL     1       4.452   6.039  17.681  0.00  0.00    +0.000 C 
ATOM      7  O   UNL     1       4.727   7.219  17.856  0.00  0.00    +0.000 OA
ATOM      8  C   UNL     1       5.052   5.295  16.554  0.00  0.00    +0.000 A 
ATOM      9  C   UNL     1       5.819   5.974  15.598  0.00  0.00    +0.000 A 
ATOM     10  C   UNL     1       6.414   5.269  14.549  0.00  0.00    +0.000 A 
ATOM     11  C   UNL     1       6.252   3.887  14.453  0.00  0.00    +0.000 A 
ATOM     12  C   UNL     1       5.482   3.210  15.398  0.00  0.00    +0.000 A 
ATOM     13  C   UNL     1       4.878   3.919  16.444  0.00  0.00    +0.000 A 
ATOM     14  C   UNL     1       4.063   3.189  17.425  0.00  0.00    +0.000 C 
ATOM     15  O   UNL     1       3.930   1.976  17.352  0.00  0.00    +0.000 OA
ATOM     16  C   UNL     1       2.841   6.095  19.692  0.00  0.00    +0.000 C 
ATOM     17  C   UNL     1       1.972   7.226  19.140  0.00  0.00    +0.000 C 
ATOM     18  O   UNL     1       1.933   5.279  20.473  0.00  0.00    +0.000 OA
ENDROOT
TORSDOF 0
ENDMDL
MODEL 7
REMARK VINA RESULT:      -6.6      2.829      4.692
REMARK  Name = 
REMARK  2 active torsions:
REMARK  status: ('A' for Active; 'I' for Inactive)
REMARK    1  A    between atoms: C_1  and  C_2
REMARK    2  A    between atoms: C_16  and  C_17
REMARK                            x       y       z     vdW  Elec       q    Type
REMARK                         _______ _______ _______ _____ _____    ______ ____
ROOT
ATOM      1  C   UNL     1       5.532   5.751  15.689  0.00  0.00    +0.000 C 
ATOM      2  C   UNL     1       4.792   6.010  16.996  0.00  0.00    +0.000 C 
ATOM      3  C   UNL     1       3.803   7.158  16.807  0.00  0.00    +0.000 C 
ATOM      4  C   UNL     1       2.948   7.306  18.029  0.00  0.00    +0.000 C 
ATOM      5  C   UNL     1       2.794   6.292  18.895  0.00  0.00    +0.000 C 
ATOM      6  C   UNL     1       2.037   6.503  20.161  0.00  0.00    +0.000 C 
ATOM      7  O   UNL     1       2.014   5.655  21.043  0.00  0.00    +0.000 OA
ATOM      8  C   UNL     1       1.334   7.789  20.347  0.00  0.00    +0.000 A 
ATOM      9  C   UNL     1       0.517   7.983  21.469  0.00  0.00    +0.000 A 
ATOM     10  C   UNL     1      -0.124   9.209  21.665  0.00  0.00    +0.000 A 
ATOM     11  C   UNL     1       0.051  10.245  20.748  0.00  0.00    +0.000 A 
ATOM     12  C   UNL     1       0.857  10.053  19.627  0.00  0.00    +0.000 A 
ATOM     13  C   UNL     1       1.491   8.821  19.426  0.00  0.00    +0.000 A 
ATOM     14  C   UNL     1       2.329   8.635  18.233  0.00  0.00    +0.000 C 
ATOM     15  O   UNL     1       2.496   9.545  17.435  0.00  0.00    +0.000 OA
ATOM     16  C   UNL     1       3.421   4.932  18.657  0.00  0.00    +0.000 C 
ATOM     17  C   UNL     1       2.398   3.795  18.670  0.00  0.00    +0.000 C 
ATOM     18  O   UNL     1       4.065   4.836  17.362  0.00  0.00    +0.000 OA
ENDROOT
TORSDOF 0
ENDMDL
MODEL 8
REMARK VINA RESULT:      -6.5      1.425      5.746
REMARK  Name = 
REMARK  2 active torsions:
REMARK  status: ('A' for Active; 'I' for Inactive)
REMARK    1  A    between atoms: C_1  and  C_2
REMARK    2  A    between atoms: C_16  and  C_17
REMARK                            x       y       z     vdW  Elec       q    Type
REMARK                         _______ _______ _______ _____ _____    ______ ____
ROOT
ATOM      1  C   UNL     1       0.920   7.367  21.247  0.00  0.00    +0.000 C 
ATOM      2  C   UNL     1       1.454   6.391  20.206  0.00  0.00    +0.000 C 
ATOM      3  C   UNL     1       2.673   6.996  19.512  0.00  0.00    +0.000 C 
ATOM      4  C   UNL     1       3.310   5.981  18.613  0.00  0.00    +0.000 C 
ATOM      5  C   UNL     1       3.099   4.667  18.791  0.00  0.00    +0.000 C 
ATOM      6  C   UNL     1       3.646   3.686  17.813  0.00  0.00    +0.000 C 
ATOM      7  O   UNL     1       3.341   2.502  17.853  0.00  0.00    +0.000 OA
ATOM      8  C   UNL     1       4.551   4.185  16.756  0.00  0.00    +0.000 A 
ATOM      9  C   UNL     1       5.178   3.281  15.889  0.00  0.00    +0.000 A 
ATOM     10  C   UNL     1       6.009   3.751  14.869  0.00  0.00    +0.000 A 
ATOM     11  C   UNL     1       6.213   5.121  14.707  0.00  0.00    +0.000 A 
ATOM     12  C   UNL     1       5.597   6.022  15.573  0.00  0.00    +0.000 A 
ATOM     13  C   UNL     1       4.771   5.550  16.601  0.00  0.00    +0.000 A 
ATOM     14  C   UNL     1       4.138   6.516  17.510  0.00  0.00    +0.000 C 
ATOM     15  O   UNL     1       4.303   7.719  17.363  0.00  0.00    +0.000 OA
ATOM     16  C   UNL     1       2.261   4.137  19.939  0.00  0.00    +0.000 C 
ATOM     17  C   UNL     1       3.014   3.130  20.809  0.00  0.00    +0.000 C 
ATOM     18  O   UNL     1       1.851   5.183  20.856  0.00  0.00    +0.000 OA
ENDROOT
TORSDOF 0
ENDMDL
MODEL 9
REMARK VINA RESULT:      -6.2      3.656      5.704
REMARK  Name = 
REMARK  2 active torsions:
REMARK  status: ('A' for Active; 'I' for Inactive)
REMARK    1  A    between atoms: C_1  and  C_2
REMARK    2  A    between atoms: C_16  and  C_17
REMARK                            x       y       z     vdW  Elec       q    Type
REMARK                         _______ _______ _______ _____ _____    ______ ____
ROOT
ATOM      1  C   UNL     1       4.936   5.207  17.138  0.00  0.00    +0.000 C 
ATOM      2  C   UNL     1       4.173   5.998  18.193  0.00  0.00    +0.000 C 
ATOM      3  C   UNL     1       3.336   7.081  17.516  0.00  0.00    +0.000 C 
ATOM      4  C   UNL     1       2.449   7.749  18.523  0.00  0.00    +0.000 C 
ATOM      5  C   UNL     1       2.137   7.147  19.682  0.00  0.00    +0.000 C 
ATOM      6  C   UNL     1       1.354   7.880  20.715  0.00  0.00    +0.000 C 
ATOM      7  O   UNL     1       1.191   7.425  21.839  0.00  0.00    +0.000 OA
ATOM      8  C   UNL     1       0.799   9.203  20.361  0.00  0.00    +0.000 A 
ATOM      9  C   UNL     1      -0.039   9.873  21.261  0.00  0.00    +0.000 A 
ATOM     10  C   UNL     1      -0.540  11.139  20.943  0.00  0.00    +0.000 A 
ATOM     11  C   UNL     1      -0.203  11.741  19.732  0.00  0.00    +0.000 A 
ATOM     12  C   UNL     1       0.625  11.073  18.830  0.00  0.00    +0.000 A 
ATOM     13  C   UNL     1       1.119   9.801  19.145  0.00  0.00    +0.000 A 
ATOM     14  C   UNL     1       1.982   9.110  18.178  0.00  0.00    +0.000 C 
ATOM     15  O   UNL     1       2.292   9.641  17.121  0.00  0.00    +0.000 OA
ATOM     16  C   UNL     1       2.610   5.743  20.009  0.00  0.00    +0.000 C 
ATOM     17  C   UNL     1       1.461   4.792  20.345  0.00  0.00    +0.000 C 
ATOM     18  O   UNL     1       3.297   5.116  18.897  0.00  0.00    +0.000 OA
ENDROOT
TORSDOF 0
ENDMDL
