MODEL 1
REMARK VINA RESULT:      -6.0      0.000      0.000
REMARK  Name = 
REMARK  6 active torsions:
REMARK  status: ('A' for Active; 'I' for Inactive)
REMARK    1  A    between atoms: C_1  and  N_2
REMARK    2  A    between atoms: C_6  and  C_7
REMARK    3  A    between atoms: C_7  and  C_8
REMARK    4  A    between atoms: C_8  and  S_9
REMARK    5  A    between atoms: S_9  and  C_10
REMARK    6  A    between atoms: C_13  and  O_14
REMARK                            x       y       z     vdW  Elec       q    Type
REMARK                         _______ _______ _______ _____ _____    ______ ____
ROOT
ATOM      1  S   UNL     1       2.908   6.708  18.083  0.00  0.00    +0.000 S 
ENDROOT
BRANCH   1   2
ATOM      2  C   UNL     1       4.501   5.963  17.788  0.00  0.00    +0.000 A 
ATOM      3  C   UNL     1       5.291   5.583  18.880  0.00  0.00    +0.000 A 
ATOM      4  C   UNL     1       6.527   4.959  18.688  0.00  0.00    +0.000 A 
ATOM      5  C   UNL     1       6.969   4.709  17.395  0.00  0.00    +0.000 A 
ATOM      6  C   UNL     1       6.197   5.070  16.298  0.00  0.00    +0.000 A 
ATOM      7  C   UNL     1       4.962   5.690  16.493  0.00  0.00    +0.000 A 
BRANCH   5   8
ATOM      8  O   UNL     1       8.161   4.085  17.160  0.00  0.00    +0.000 OA
ATOM      9  H   UNL     1       8.869   4.601  17.577  0.00  0.00    +0.000 HD
ENDBRANCH   5   8
ENDBRANCH   1   2
BRANCH   1  10
ATOM     10  C   UNL     1       1.832   5.236  17.940  0.00  0.00    +0.000 C 
BRANCH  10  11
ATOM     11  C   UNL     1       1.656   4.567  19.311  0.00  0.00    +0.000 C 
BRANCH  11  17
ATOM     12  C   UNL     1       2.261   2.688  21.621  0.00  0.00    +0.000 C 
ATOM     13  N   UNL     1       2.437   2.300  20.234  0.00  0.00    +0.000 NA
ATOM     14  C   UNL     1       3.829   2.351  19.803  0.00  0.00    +0.000 C 
ATOM     15  C   UNL     1       3.717   2.078  18.316  0.00  0.00    +0.000 C 
ATOM     16  C   UNL     1       2.300   2.493  17.933  0.00  0.00    +0.000 C 
ATOM     17  C   UNL     1       1.649   3.022  19.222  0.00  0.00    +0.000 C 
ENDBRANCH  11  17
ENDBRANCH  10  11
ENDBRANCH   1  10
TORSDOF 5
ENDMDL
MODEL 2
REMARK VINA RESULT:      -6.0      2.550      4.896
REMARK  Name = 
REMARK  6 active torsions:
REMARK  status: ('A' for Active; 'I' for Inactive)
REMARK    1  A    between atoms: C_1  and  N_2
REMARK    2  A    between atoms: C_6  and  C_7
REMARK    3  A    between atoms: C_7  and  C_8
REMARK    4  A    between atoms: C_8  and  S_9
REMARK    5  A    between atoms: S_9  and  C_10
REMARK    6  A    between atoms: C_13  and  O_14
REMARK                            x       y       z     vdW  Elec       q    Type
REMARK                         _______ _______ _______ _____ _____    ______ ____
ROOT
ATOM      1  S   UNL     1       2.624   6.509  18.337  0.00  0.00    +0.000 S 
ENDROOT
BRANCH   1   2
ATOM      2  C   UNL     1       3.021   4.772  18.412  0.00  0.00    +0.000 A 
ATOM      3  C   UNL     1       2.325   3.875  17.591  0.00  0.00    +0.000 A 
ATOM      4  C   UNL     1       2.637   2.512  17.592  0.00  0.00    +0.000 A 
ATOM      5  C   UNL     1       3.654   2.048  18.415  0.00  0.00    +0.000 A 
ATOM      6  C   UNL     1       4.363   2.922  19.231  0.00  0.00    +0.000 A 
ATOM      7  C   UNL     1       4.052   4.282  19.226  0.00  0.00    +0.000 A 
BRANCH   5   8
ATOM      8  O   UNL     1       4.006   0.729  18.436  0.00  0.00    +0.000 OA
ATOM      9  H   UNL     1       3.345   0.224  17.936  0.00  0.00    +0.000 HD
ENDBRANCH   5   8
ENDBRANCH   1   2
BRANCH   1  10
ATOM     10  C   UNL     1       4.127   7.147  17.512  0.00  0.00    +0.000 C 
BRANCH  10  11
ATOM     11  C   UNL     1       4.765   6.054  16.642  0.00  0.00    +0.000 C 
BRANCH  11  17
ATOM     12  C   UNL     1       6.654   4.050  15.361  0.00  0.00    +0.000 C 
ATOM     13  N   UNL     1       7.113   5.080  16.273  0.00  0.00    +0.000 NA
ATOM     14  C   UNL     1       7.359   4.576  17.620  0.00  0.00    +0.000 C 
ATOM     15  C   UNL     1       7.650   5.848  18.392  0.00  0.00    +0.000 C 
ATOM     16  C   UNL     1       6.967   6.965  17.607  0.00  0.00    +0.000 C 
ATOM     17  C   UNL     1       6.278   6.284  16.413  0.00  0.00    +0.000 C 
ENDBRANCH  11  17
ENDBRANCH  10  11
ENDBRANCH   1  10
TORSDOF 5
ENDMDL
MODEL 3
REMARK VINA RESULT:      -5.9      0.211      1.225
REMARK  Name = 
REMARK  6 active torsions:
REMARK  status: ('A' for Active; 'I' for Inactive)
REMARK    1  A    between atoms: C_1  and  N_2
REMARK    2  A    between atoms: C_6  and  C_7
REMARK    3  A    between atoms: C_7  and  C_8
REMARK    4  A    between atoms: C_8  and  S_9
REMARK    5  A    between atoms: S_9  and  C_10
REMARK    6  A    between atoms: C_13  and  O_14
REMARK                            x       y       z     vdW  Elec       q    Type
REMARK                         _______ _______ _______ _____ _____    ______ ____
ROOT
ATOM      1  S   UNL     1       3.029   6.949  18.062  0.00  0.00    +0.000 S 
ENDROOT
BRANCH   1   2
ATOM      2  C   UNL     1       4.545   6.044  17.816  0.00  0.00    +0.000 A 
ATOM      3  C   UNL     1       4.985   5.788  16.511  0.00  0.00    +0.000 A 
ATOM      4  C   UNL     1       6.189   5.117  16.279  0.00  0.00    +0.000 A 
ATOM      5  C   UNL     1       6.958   4.708  17.360  0.00  0.00    +0.000 A 
ATOM      6  C   UNL     1       6.545   4.959  18.662  0.00  0.00    +0.000 A 
ATOM      7  C   UNL     1       5.344   5.631  18.891  0.00  0.00    +0.000 A 
BRANCH   5   8
ATOM      8  O   UNL     1       8.151   4.066  17.181  0.00  0.00    +0.000 OA
ATOM      9  H   UNL     1       8.045   3.404  16.480  0.00  0.00    +0.000 HD
ENDBRANCH   5   8
ENDBRANCH   1   2
BRANCH   1  10
ATOM     10  C   UNL     1       1.825   5.573  18.044  0.00  0.00    +0.000 C 
BRANCH  10  11
ATOM     11  C   UNL     1       1.877   4.800  19.371  0.00  0.00    +0.000 C 
BRANCH  11  17
ATOM     12  C   UNL     1       2.422   2.707  21.504  0.00  0.00    +0.000 C 
ATOM     13  N   UNL     1       2.487   2.409  20.086  0.00  0.00    +0.000 NA
ATOM     14  C   UNL     1       3.853   2.366  19.577  0.00  0.00    +0.000 C 
ATOM     15  C   UNL     1       3.637   2.216  18.084  0.00  0.00    +0.000 C 
ATOM     16  C   UNL     1       2.247   2.785  17.816  0.00  0.00    +0.000 C 
ATOM     17  C   UNL     1       1.718   3.273  19.175  0.00  0.00    +0.000 C 
ENDBRANCH  11  17
ENDBRANCH  10  11
ENDBRANCH   1  10
TORSDOF 5
ENDMDL
MODEL 4
REMARK VINA RESULT:      -5.8      1.771      2.382
REMARK  Name = 
REMARK  6 active torsions:
REMARK  status: ('A' for Active; 'I' for Inactive)
REMARK    1  A    between atoms: C_1  and  N_2
REMARK    2  A    between atoms: C_6  and  C_7
REMARK    3  A    between atoms: C_7  and  C_8
REMARK    4  A    between atoms: C_8  and  S_9
REMARK    5  A    between atoms: S_9  and  C_10
REMARK    6  A    between atoms: C_13  and  O_14
REMARK                            x       y       z     vdW  Elec       q    Type
REMARK                         _______ _______ _______ _____ _____    ______ ____
ROOT
ATOM      1  S   UNL     1       5.216   4.375  19.055  0.00  0.00    +0.000 S 
ENDROOT
BRANCH   1   2
ATOM      2  C   UNL     1       5.798   4.468  17.372  0.00  0.00    +0.000 A 
ATOM      3  C   UNL     1       4.887   4.296  16.323  0.00  0.00    +0.000 A 
ATOM      4  C   UNL     1       5.298   4.402  14.991  0.00  0.00    +0.000 A 
ATOM      5  C   UNL     1       6.628   4.690  14.712  0.00  0.00    +0.000 A 
ATOM      6  C   UNL     1       7.546   4.874  15.737  0.00  0.00    +0.000 A 
ATOM      7  C   UNL     1       7.132   4.770  17.066  0.00  0.00    +0.000 A 
BRANCH   5   8
ATOM      8  O   UNL     1       7.071   4.822  13.426  0.00  0.00    +0.000 OA
ATOM      9  H   UNL     1       6.489   4.309  12.843  0.00  0.00    +0.000 HD
ENDBRANCH   5   8
ENDBRANCH   1   2
BRANCH   1  10
ATOM     10  C   UNL     1       3.720   5.421  18.938  0.00  0.00    +0.000 C 
BRANCH  10  11
ATOM     11  C   UNL     1       2.732   5.069  20.060  0.00  0.00    +0.000 C 
BRANCH  11  17
ATOM     12  C   UNL     1       1.378   2.766  21.506  0.00  0.00    +0.000 C 
ATOM     13  N   UNL     1       1.286   2.945  20.069  0.00  0.00    +0.000 NA
ATOM     14  C   UNL     1       2.181   2.063  19.329  0.00  0.00    +0.000 C 
ATOM     15  C   UNL     1       2.021   2.562  17.906  0.00  0.00    +0.000 C 
ATOM     16  C   UNL     1       1.556   4.010  18.033  0.00  0.00    +0.000 C 
ATOM     17  C   UNL     1       1.491   4.304  19.541  0.00  0.00    +0.000 C 
ENDBRANCH  11  17
ENDBRANCH  10  11
ENDBRANCH   1  10
TORSDOF 5
ENDMDL
MODEL 5
REMARK VINA RESULT:      -5.8      1.393      1.675
REMARK  Name = 
REMARK  6 active torsions:
REMARK  status: ('A' for Active; 'I' for Inactive)
REMARK    1  A    between atoms: C_1  and  N_2
REMARK    2  A    between atoms: C_6  and  C_7
REMARK    3  A    between atoms: C_7  and  C_8
REMARK    4  A    between atoms: C_8  and  S_9
REMARK    5  A    between atoms: S_9  and  C_10
REMARK    6  A    between atoms: C_13  and  O_14
REMARK                            x       y       z     vdW  Elec       q    Type
REMARK                         _______ _______ _______ _____ _____    ______ ____
ROOT
ATOM      1  S   UNL     1       4.624   5.353  19.507  0.00  0.00    +0.000 S 
ENDROOT
BRANCH   1   2
ATOM      2  C   UNL     1       5.459   5.345  17.932  0.00  0.00    +0.000 A 
ATOM      3  C   UNL     1       6.712   4.727  17.824  0.00  0.00    +0.000 A 
ATOM      4  C   UNL     1       7.378   4.665  16.597  0.00  0.00    +0.000 A 
ATOM      5  C   UNL     1       6.783   5.219  15.472  0.00  0.00    +0.000 A 
ATOM      6  C   UNL     1       5.538   5.829  15.553  0.00  0.00    +0.000 A 
ATOM      7  C   UNL     1       4.873   5.887  16.779  0.00  0.00    +0.000 A 
BRANCH   5   8
ATOM      8  O   UNL     1       7.388   5.165  14.248  0.00  0.00    +0.000 OA
ATOM      9  H   UNL     1       7.415   6.061  13.876  0.00  0.00    +0.000 HD
ENDBRANCH   5   8
ENDBRANCH   1   2
BRANCH   1  10
ATOM     10  C   UNL     1       2.920   5.741  18.966  0.00  0.00    +0.000 C 
BRANCH  10  11
ATOM     11  C   UNL     1       1.900   5.188  19.973  0.00  0.00    +0.000 C 
BRANCH  11  17
ATOM     12  C   UNL     1       1.418   2.611  21.507  0.00  0.00    +0.000 C 
ATOM     13  N   UNL     1       1.422   2.665  20.058  0.00  0.00    +0.000 NA
ATOM     14  C   UNL     1       2.670   2.183  19.476  0.00  0.00    +0.000 C 
ATOM     15  C   UNL     1       2.484   2.501  18.005  0.00  0.00    +0.000 C 
ATOM     16  C   UNL     1       1.473   3.643  17.962  0.00  0.00    +0.000 C 
ATOM     17  C   UNL     1       1.130   3.962  19.426  0.00  0.00    +0.000 C 
ENDBRANCH  11  17
ENDBRANCH  10  11
ENDBRANCH   1  10
TORSDOF 5
ENDMDL
MODEL 6
REMARK VINA RESULT:      -5.8      1.309      1.581
REMARK  Name = 
REMARK  6 active torsions:
REMARK  status: ('A' for Active; 'I' for Inactive)
REMARK    1  A    between atoms: C_1  and  N_2
REMARK    2  A    between atoms: C_6  and  C_7
REMARK    3  A    between atoms: C_7  and  C_8
REMARK    4  A    between atoms: C_8  and  S_9
REMARK    5  A    between atoms: S_9  and  C_10
REMARK    6  A    between atoms: C_13  and  O_14
REMARK                            x       y       z     vdW  Elec       q    Type
REMARK                         _______ _______ _______ _____ _____    ______ ____
ROOT
ATOM      1  S   UNL     1       2.901   5.678  18.287  0.00  0.00    +0.000 S 
ENDROOT
BRANCH   1   2
ATOM      2  C   UNL     1       4.394   5.526  17.325  0.00  0.00    +0.000 A 
ATOM      3  C   UNL     1       4.529   4.453  16.435  0.00  0.00    +0.000 A 
ATOM      4  C   UNL     1       5.668   4.323  15.635  0.00  0.00    +0.000 A 
ATOM      5  C   UNL     1       6.672   5.278  15.723  0.00  0.00    +0.000 A 
ATOM      6  C   UNL     1       6.556   6.355  16.592  0.00  0.00    +0.000 A 
ATOM      7  C   UNL     1       5.416   6.483  17.388  0.00  0.00    +0.000 A 
BRANCH   5   8
ATOM      8  O   UNL     1       7.794   5.202  14.947  0.00  0.00    +0.000 OA
ATOM      9  H   UNL     1       7.948   6.069  14.539  0.00  0.00    +0.000 HD
ENDBRANCH   5   8
ENDBRANCH   1   2
BRANCH   1  10
ATOM     10  C   UNL     1       1.951   4.258  17.636  0.00  0.00    +0.000 C 
BRANCH  10  11
ATOM     11  C   UNL     1       1.105   3.624  18.750  0.00  0.00    +0.000 C 
BRANCH  11  17
ATOM     12  C   UNL     1       1.333   2.688  21.631  0.00  0.00    +0.000 C 
ATOM     13  N   UNL     1       2.159   2.147  20.569  0.00  0.00    +0.000 NA
ATOM     14  C   UNL     1       3.506   2.707  20.557  0.00  0.00    +0.000 C 
ATOM     15  C   UNL     1       4.087   2.123  19.284  0.00  0.00    +0.000 C 
ATOM     16  C   UNL     1       2.886   1.802  18.400  0.00  0.00    +0.000 C 
ATOM     17  C   UNL     1       1.645   2.242  19.193  0.00  0.00    +0.000 C 
ENDBRANCH  11  17
ENDBRANCH  10  11
ENDBRANCH   1  10
TORSDOF 5
ENDMDL
MODEL 7
REMARK VINA RESULT:      -5.7      1.088      1.192
REMARK  Name = 
REMARK  6 active torsions:
REMARK  status: ('A' for Active; 'I' for Inactive)
REMARK    1  A    between atoms: C_1  and  N_2
REMARK    2  A    between atoms: C_6  and  C_7
REMARK    3  A    between atoms: C_7  and  C_8
REMARK    4  A    between atoms: C_8  and  S_9
REMARK    5  A    between atoms: S_9  and  C_10
REMARK    6  A    between atoms: C_13  and  O_14
REMARK                            x       y       z     vdW  Elec       q    Type
REMARK                         _______ _______ _______ _____ _____    ______ ____
ROOT
ATOM      1  S   UNL     1       3.584   5.983  18.851  0.00  0.00    +0.000 S 
ENDROOT
BRANCH   1   2
ATOM      2  C   UNL     1       4.835   5.780  17.597  0.00  0.00    +0.000 A 
ATOM      3  C   UNL     1       6.098   6.354  17.790  0.00  0.00    +0.000 A 
ATOM      4  C   UNL     1       7.116   6.182  16.848  0.00  0.00    +0.000 A 
ATOM      5  C   UNL     1       6.868   5.425  15.711  0.00  0.00    +0.000 A 
ATOM      6  C   UNL     1       5.626   4.839  15.503  0.00  0.00    +0.000 A 
ATOM      7  C   UNL     1       4.612   5.011  16.446  0.00  0.00    +0.000 A 
BRANCH   5   8
ATOM      8  O   UNL     1       7.838   5.214  14.772  0.00  0.00    +0.000 OA
ATOM      9  H   UNL     1       8.502   4.611  15.143  0.00  0.00    +0.000 HD
ENDBRANCH   5   8
ENDBRANCH   1   2
BRANCH   1  10
ATOM     10  C   UNL     1       2.190   5.101  18.062  0.00  0.00    +0.000 C 
BRANCH  10  11
ATOM     11  C   UNL     1       1.317   4.419  19.126  0.00  0.00    +0.000 C 
BRANCH  11  17
ATOM     12  C   UNL     1       1.611   2.628  21.562  0.00  0.00    +0.000 C 
ATOM     13  N   UNL     1       2.059   2.227  20.242  0.00  0.00    +0.000 NA
ATOM     14  C   UNL     1       3.501   2.366  20.066  0.00  0.00    +0.000 C 
ATOM     15  C   UNL     1       3.677   2.058  18.592  0.00  0.00    +0.000 C 
ATOM     16  C   UNL     1       2.329   2.369  17.948  0.00  0.00    +0.000 C 
ATOM     17  C   UNL     1       1.424   2.876  19.084  0.00  0.00    +0.000 C 
ENDBRANCH  11  17
ENDBRANCH  10  11
ENDBRANCH   1  10
TORSDOF 5
ENDMDL
MODEL 8
REMARK VINA RESULT:      -5.7      3.157      5.845
REMARK  Name = 
REMARK  6 active torsions:
REMARK  status: ('A' for Active; 'I' for Inactive)
REMARK    1  A    between atoms: C_1  and  N_2
REMARK    2  A    between atoms: C_6  and  C_7
REMARK    3  A    between atoms: C_7  and  C_8
REMARK    4  A    between atoms: C_8  and  S_9
REMARK    5  A    between atoms: S_9  and  C_10
REMARK    6  A    between atoms: C_13  and  O_14
REMARK                            x       y       z     vdW  Elec       q    Type
REMARK                         _______ _______ _______ _____ _____    ______ ____
ROOT
ATOM      1  S   UNL     1       3.491   4.073  17.284  0.00  0.00    +0.000 S 
ENDROOT
BRANCH   1   2
ATOM      2  C   UNL     1       2.814   3.624  18.871  0.00  0.00    +0.000 A 
ATOM      3  C   UNL     1       1.439   3.765  19.094  0.00  0.00    +0.000 A 
ATOM      4  C   UNL     1       0.866   3.386  20.311  0.00  0.00    +0.000 A 
ATOM      5  C   UNL     1       1.676   2.855  21.307  0.00  0.00    +0.000 A 
ATOM      6  C   UNL     1       3.041   2.698  21.104  0.00  0.00    +0.000 A 
ATOM      7  C   UNL     1       3.610   3.075  19.887  0.00  0.00    +0.000 A 
BRANCH   5   8
ATOM      8  O   UNL     1       1.158   2.453  22.505  0.00  0.00    +0.000 OA
ATOM      9  H   UNL     1       1.844   1.969  22.993  0.00  0.00    +0.000 HD
ENDBRANCH   5   8
ENDBRANCH   1   2
BRANCH   1  10
ATOM     10  C   UNL     1       4.365   5.615  17.730  0.00  0.00    +0.000 C 
BRANCH  10  11
ATOM     11  C   UNL     1       4.926   6.296  16.472  0.00  0.00    +0.000 C 
BRANCH  11  17
ATOM     12  C   UNL     1       6.962   5.068  14.582  0.00  0.00    +0.000 C 
ATOM     13  N   UNL     1       7.304   5.494  15.926  0.00  0.00    +0.000 NA
ATOM     14  C   UNL     1       7.387   4.384  16.869  0.00  0.00    +0.000 C 
ATOM     15  C   UNL     1       7.578   5.099  18.193  0.00  0.00    +0.000 C 
ATOM     16  C   UNL     1       6.992   6.493  17.990  0.00  0.00    +0.000 C 
ATOM     17  C   UNL     1       6.455   6.521  16.549  0.00  0.00    +0.000 C 
ENDBRANCH  11  17
ENDBRANCH  10  11
ENDBRANCH   1  10
TORSDOF 5
ENDMDL
MODEL 9
REMARK VINA RESULT:      -5.7      0.984      1.898
REMARK  Name = 
REMARK  6 active torsions:
REMARK  status: ('A' for Active; 'I' for Inactive)
REMARK    1  A    between atoms: C_1  and  N_2
REMARK    2  A    between atoms: C_6  and  C_7
REMARK    3  A    between atoms: C_7  and  C_8
REMARK    4  A    between atoms: C_8  and  S_9
REMARK    5  A    between atoms: S_9  and  C_10
REMARK    6  A    between atoms: C_13  and  O_14
REMARK                            x       y       z     vdW  Elec       q    Type
REMARK                         _______ _______ _______ _____ _____    ______ ____
ROOT
ATOM      1  S   UNL     1       3.315   7.346  17.618  0.00  0.00    +0.000 S 
ENDROOT
BRANCH   1   2
ATOM      2  C   UNL     1       4.805   6.384  17.438  0.00  0.00    +0.000 A 
ATOM      3  C   UNL     1       5.605   6.143  18.563  0.00  0.00    +0.000 A 
ATOM      4  C   UNL     1       6.758   5.359  18.469  0.00  0.00    +0.000 A 
ATOM      5  C   UNL     1       7.108   4.809  17.242  0.00  0.00    +0.000 A 
ATOM      6  C   UNL     1       6.325   5.028  16.116  0.00  0.00    +0.000 A 
ATOM      7  C   UNL     1       5.172   5.809  16.213  0.00  0.00    +0.000 A 
BRANCH   5   8
ATOM      8  O   UNL     1       8.216   4.022  17.107  0.00  0.00    +0.000 OA
ATOM      9  H   UNL     1       8.057   3.384  16.393  0.00  0.00    +0.000 HD
ENDBRANCH   5   8
ENDBRANCH   1   2
BRANCH   1  10
ATOM     10  C   UNL     1       2.718   6.717  19.228  0.00  0.00    +0.000 C 
BRANCH  10  11
ATOM     11  C   UNL     1       2.192   5.281  19.080  0.00  0.00    +0.000 C 
BRANCH  11  17
ATOM     12  C   UNL     1       3.671   2.767  18.231  0.00  0.00    +0.000 C 
ATOM     13  N   UNL     1       3.090   2.921  19.552  0.00  0.00    +0.000 NA
ATOM     14  C   UNL     1       1.818   2.223  19.696  0.00  0.00    +0.000 C 
ATOM     15  C   UNL     1       1.355   2.677  21.067  0.00  0.00    +0.000 C 
ATOM     16  C   UNL     1       2.056   4.010  21.312  0.00  0.00    +0.000 C 
ATOM     17  C   UNL     1       2.885   4.292  20.047  0.00  0.00    +0.000 C 
ENDBRANCH  11  17
ENDBRANCH  10  11
ENDBRANCH   1  10
TORSDOF 5
ENDMDL
