MODEL 1
REMARK VINA RESULT:      -7.2      0.000      0.000
REMARK  Name = 
REMARK  6 active torsions:
REMARK  status: ('A' for Active; 'I' for Inactive)
REMARK    1  A    between atoms: C_2  and  O_3
REMARK    2  A    between atoms: C_2  and  C_4
REMARK    3  A    between atoms: C_4  and  C_5
REMARK    4  A    between atoms: C_5  and  C_6
REMARK    5  A    between atoms: C_5  and  N_9
REMARK    6  A    between atoms: C_6  and  O_8
REMARK                            x       y       z     vdW  Elec       q    Type
REMARK                         _______ _______ _______ _____ _____    ______ ____
ROOT
ATOM      1  C   UNL     1       5.884   4.264  16.578  0.00  0.00    +0.000 C 
ENDROOT
BRANCH   1   2
ATOM      2  N   UNL     1       4.703   4.311  17.454  0.00  0.00    +0.000 N 
ATOM      3 SE   UNL     1       4.243   5.853  18.270  0.00  0.00    +0.000 Se
ATOM      4  C   UNL     1       2.958   4.898  19.112  0.00  0.00    +0.000 A 
ATOM      5  C   UNL     1       2.075   5.403  20.066  0.00  0.00    +0.000 A 
ATOM      6  C   UNL     1       1.143   4.536  20.654  0.00  0.00    +0.000 A 
ATOM      7  C   UNL     1       1.100   3.183  20.279  0.00  0.00    +0.000 A 
ATOM      8  C   UNL     1       1.993   2.689  19.312  0.00  0.00    +0.000 A 
ATOM      9  C   UNL     1       2.923   3.569  18.737  0.00  0.00    +0.000 A 
ATOM     10  C   UNL     1       3.892   3.260  17.806  0.00  0.00    +0.000 A 
ATOM     11  O   UNL     1       4.042   2.133  17.361  0.00  0.00    +0.000 OA
ENDBRANCH   1   2
BRANCH   1  12
ATOM     12  C   UNL     1       7.086   4.916  17.236  0.00  0.00    +0.000 C 
ATOM     13  O   UNL     1       7.650   4.376  18.172  0.00  0.00    +0.000 OA
BRANCH  12  14
ATOM     14  O   UNL     1       7.545   6.111  16.796  0.00  0.00    +0.000 OA
ATOM     15  H   UNL     1       7.065   6.637  16.141  0.00  0.00    +0.000 HD
ENDBRANCH  12  14
ENDBRANCH   1  12
BRANCH   1  16
ATOM     16  C   UNL     1       5.551   4.890  15.207  0.00  0.00    +0.000 C 
BRANCH  16  18
ATOM     17  O   UNL     1       7.418   5.248  13.801  0.00  0.00    +0.000 OA
ATOM     18  C   UNL     1       6.518   4.489  14.124  0.00  0.00    +0.000 C 
BRANCH  18  19
ATOM     19  O   UNL     1       6.378   3.315  13.471  0.00  0.00    +0.000 OA
ATOM     20  H   UNL     1       6.091   3.276  12.549  0.00  0.00    +0.000 HD
ENDBRANCH  18  19
ENDBRANCH  16  18
ENDBRANCH   1  16
TORSDOF 6
ENDMDL
MODEL 2
REMARK VINA RESULT:      -7.1      0.274      1.070
REMARK  Name = 
REMARK  6 active torsions:
REMARK  status: ('A' for Active; 'I' for Inactive)
REMARK    1  A    between atoms: C_2  and  O_3
REMARK    2  A    between atoms: C_2  and  C_4
REMARK    3  A    between atoms: C_4  and  C_5
REMARK    4  A    between atoms: C_5  and  C_6
REMARK    5  A    between atoms: C_5  and  N_9
REMARK    6  A    between atoms: C_6  and  O_8
REMARK                            x       y       z     vdW  Elec       q    Type
REMARK                         _______ _______ _______ _____ _____    ______ ____
ROOT
ATOM      1  C   UNL     1       5.909   4.294  16.479  0.00  0.00    +0.000 C 
ENDROOT
BRANCH   1   2
ATOM      2  N   UNL     1       4.749   4.409  17.378  0.00  0.00    +0.000 N 
ATOM      3 SE   UNL     1       4.324   6.003  18.108  0.00  0.00    +0.000 Se
ATOM      4  C   UNL     1       3.050   5.115  19.035  0.00  0.00    +0.000 A 
ATOM      5  C   UNL     1       2.195   5.688  19.977  0.00  0.00    +0.000 A 
ATOM      6  C   UNL     1       1.268   4.869  20.638  0.00  0.00    +0.000 A 
ATOM      7  C   UNL     1       1.203   3.496  20.347  0.00  0.00    +0.000 A 
ATOM      8  C   UNL     1       2.067   2.934  19.393  0.00  0.00    +0.000 A 
ATOM      9  C   UNL     1       2.992   3.766  18.744  0.00  0.00    +0.000 A 
ATOM     10  C   UNL     1       3.937   3.391  17.811  0.00  0.00    +0.000 A 
ATOM     11  O   UNL     1       4.064   2.237  17.432  0.00  0.00    +0.000 OA
ENDBRANCH   1   2
BRANCH   1  12
ATOM     12  C   UNL     1       7.172   4.812  17.141  0.00  0.00    +0.000 C 
ATOM     13  O   UNL     1       7.555   5.952  16.940  0.00  0.00    +0.000 OA
BRANCH  12  14
ATOM     14  O   UNL     1       7.896   4.012  17.959  0.00  0.00    +0.000 OA
ATOM     15  H   UNL     1       7.929   3.053  17.844  0.00  0.00    +0.000 HD
ENDBRANCH  12  14
ENDBRANCH   1  12
BRANCH   1  16
ATOM     16  C   UNL     1       5.613   5.003  15.140  0.00  0.00    +0.000 C 
BRANCH  16  18
ATOM     17  O   UNL     1       6.432   3.717  13.333  0.00  0.00    +0.000 OA
ATOM     18  C   UNL     1       6.616   4.678  14.065  0.00  0.00    +0.000 C 
BRANCH  18  19
ATOM     19  O   UNL     1       7.742   5.409  13.925  0.00  0.00    +0.000 OA
ATOM     20  H   UNL     1       8.094   5.945  14.648  0.00  0.00    +0.000 HD
ENDBRANCH  18  19
ENDBRANCH  16  18
ENDBRANCH   1  16
TORSDOF 6
ENDMDL
MODEL 3
REMARK VINA RESULT:      -7.0      1.902      3.537
REMARK  Name = 
REMARK  6 active torsions:
REMARK  status: ('A' for Active; 'I' for Inactive)
REMARK    1  A    between atoms: C_2  and  O_3
REMARK    2  A    between atoms: C_2  and  C_4
REMARK    3  A    between atoms: C_4  and  C_5
REMARK    4  A    between atoms: C_5  and  C_6
REMARK    5  A    between atoms: C_5  and  N_9
REMARK    6  A    between atoms: C_6  and  O_8
REMARK                            x       y       z     vdW  Elec       q    Type
REMARK                         _______ _______ _______ _____ _____    ______ ____
ROOT
ATOM      1  C   UNL     1       5.945   5.823  17.392  0.00  0.00    +0.000 C 
ENDROOT
BRANCH   1   2
ATOM      2  N   UNL     1       4.816   4.989  17.837  0.00  0.00    +0.000 N 
ATOM      3 SE   UNL     1       4.382   3.494  16.926  0.00  0.00    +0.000 Se
ATOM      4  C   UNL     1       2.967   3.355  18.043  0.00  0.00    +0.000 A 
ATOM      5  C   UNL     1       1.986   2.366  17.979  0.00  0.00    +0.000 A 
ATOM      6  C   UNL     1       0.929   2.398  18.901  0.00  0.00    +0.000 A 
ATOM      7  C   UNL     1       0.869   3.409  19.874  0.00  0.00    +0.000 A 
ATOM      8  C   UNL     1       1.868   4.396  19.930  0.00  0.00    +0.000 A 
ATOM      9  C   UNL     1       2.915   4.352  18.998  0.00  0.00    +0.000 A 
ATOM     10  C   UNL     1       3.958   5.248  18.877  0.00  0.00    +0.000 A 
ATOM     11  O   UNL     1       4.083   6.215  19.612  0.00  0.00    +0.000 OA
ENDBRANCH   1   2
BRANCH   1  12
ATOM     12  C   UNL     1       5.922   6.026  15.889  0.00  0.00    +0.000 C 
ATOM     13  O   UNL     1       5.085   6.746  15.372  0.00  0.00    +0.000 OA
BRANCH  12  14
ATOM     14  O   UNL     1       6.830   5.405  15.099  0.00  0.00    +0.000 OA
ATOM     15  H   UNL     1       7.674   5.815  14.864  0.00  0.00    +0.000 HD
ENDBRANCH  12  14
ENDBRANCH   1  12
BRANCH   1  16
ATOM     16  C   UNL     1       7.276   5.217  17.885  0.00  0.00    +0.000 C 
BRANCH  16  18
ATOM     17  O   UNL     1       7.576   5.380  20.225  0.00  0.00    +0.000 OA
ATOM     18  C   UNL     1       7.800   5.879  19.133  0.00  0.00    +0.000 C 
BRANCH  18  19
ATOM     19  O   UNL     1       8.480   7.043  19.065  0.00  0.00    +0.000 OA
ATOM     20  H   UNL     1       9.215   7.239  19.661  0.00  0.00    +0.000 HD
ENDBRANCH  18  19
ENDBRANCH  16  18
ENDBRANCH   1  16
TORSDOF 6
ENDMDL
MODEL 4
REMARK VINA RESULT:      -6.9      1.528      3.065
REMARK  Name = 
REMARK  6 active torsions:
REMARK  status: ('A' for Active; 'I' for Inactive)
REMARK    1  A    between atoms: C_2  and  O_3
REMARK    2  A    between atoms: C_2  and  C_4
REMARK    3  A    between atoms: C_4  and  C_5
REMARK    4  A    between atoms: C_5  and  C_6
REMARK    5  A    between atoms: C_5  and  N_9
REMARK    6  A    between atoms: C_6  and  O_8
REMARK                            x       y       z     vdW  Elec       q    Type
REMARK                         _______ _______ _______ _____ _____    ______ ____
ROOT
ATOM      1  C   UNL     1       5.834   5.803  17.526  0.00  0.00    +0.000 C 
ENDROOT
BRANCH   1   2
ATOM      2  N   UNL     1       4.576   5.182  17.971  0.00  0.00    +0.000 N 
ATOM      3 SE   UNL     1       3.600   5.953  19.278  0.00  0.00    +0.000 Se
ATOM      4  C   UNL     1       2.527   4.501  19.183  0.00  0.00    +0.000 A 
ATOM      5  C   UNL     1       1.416   4.267  19.993  0.00  0.00    +0.000 A 
ATOM      6  C   UNL     1       0.688   3.081  19.821  0.00  0.00    +0.000 A 
ATOM      7  C   UNL     1       1.073   2.149  18.842  0.00  0.00    +0.000 A 
ATOM      8  C   UNL     1       2.192   2.400  18.029  0.00  0.00    +0.000 A 
ATOM      9  C   UNL     1       2.912   3.590  18.218  0.00  0.00    +0.000 A 
ATOM     10  C   UNL     1       4.048   3.989  17.544  0.00  0.00    +0.000 A 
ATOM     11  O   UNL     1       4.563   3.315  16.667  0.00  0.00    +0.000 OA
ENDBRANCH   1   2
BRANCH   1  12
ATOM     12  C   UNL     1       5.912   5.867  16.012  0.00  0.00    +0.000 C 
ATOM     13  O   UNL     1       5.277   6.704  15.393  0.00  0.00    +0.000 OA
BRANCH  12  14
ATOM     14  O   UNL     1       6.684   4.992  15.326  0.00  0.00    +0.000 OA
ATOM     15  H   UNL     1       7.589   4.783  15.596  0.00  0.00    +0.000 HD
ENDBRANCH  12  14
ENDBRANCH   1  12
BRANCH   1  16
ATOM     16  C   UNL     1       7.038   5.063  18.146  0.00  0.00    +0.000 C 
BRANCH  16  18
ATOM     17  O   UNL     1       8.274   6.972  18.792  0.00  0.00    +0.000 OA
ATOM     18  C   UNL     1       7.800   5.902  19.139  0.00  0.00    +0.000 C 
BRANCH  18  19
ATOM     19  O   UNL     1       8.004   5.466  20.400  0.00  0.00    +0.000 OA
ATOM     20  H   UNL     1       8.809   5.682  20.890  0.00  0.00    +0.000 HD
ENDBRANCH  18  19
ENDBRANCH  16  18
ENDBRANCH   1  16
TORSDOF 6
ENDMDL
MODEL 5
REMARK VINA RESULT:      -6.9      1.384      1.811
REMARK  Name = 
REMARK  6 active torsions:
REMARK  status: ('A' for Active; 'I' for Inactive)
REMARK    1  A    between atoms: C_2  and  O_3
REMARK    2  A    between atoms: C_2  and  C_4
REMARK    3  A    between atoms: C_4  and  C_5
REMARK    4  A    between atoms: C_5  and  C_6
REMARK    5  A    between atoms: C_5  and  N_9
REMARK    6  A    between atoms: C_6  and  O_8
REMARK                            x       y       z     vdW  Elec       q    Type
REMARK                         _______ _______ _______ _____ _____    ______ ____
ROOT
ATOM      1  C   UNL     1       6.064   4.184  16.728  0.00  0.00    +0.000 C 
ENDROOT
BRANCH   1   2
ATOM      2  N   UNL     1       4.924   4.126  17.657  0.00  0.00    +0.000 N 
ATOM      3 SE   UNL     1       3.979   2.600  17.836  0.00  0.00    +0.000 Se
ATOM      4  C   UNL     1       2.874   3.539  18.917  0.00  0.00    +0.000 A 
ATOM      5  C   UNL     1       1.719   3.038  19.517  0.00  0.00    +0.000 A 
ATOM      6  C   UNL     1       0.944   3.892  20.314  0.00  0.00    +0.000 A 
ATOM      7  C   UNL     1       1.333   5.228  20.506  0.00  0.00    +0.000 A 
ATOM      8  C   UNL     1       2.502   5.718  19.899  0.00  0.00    +0.000 A 
ATOM      9  C   UNL     1       3.264   4.851  19.101  0.00  0.00    +0.000 A 
ATOM     10  C   UNL     1       4.413   5.160  18.402  0.00  0.00    +0.000 A 
ATOM     11  O   UNL     1       4.911   6.274  18.415  0.00  0.00    +0.000 OA
ENDBRANCH   1   2
BRANCH   1  12
ATOM     12  C   UNL     1       7.251   4.891  17.355  0.00  0.00    +0.000 C 
ATOM     13  O   UNL     1       7.936   4.330  18.193  0.00  0.00    +0.000 OA
BRANCH  12  14
ATOM     14  O   UNL     1       7.563   6.158  16.996  0.00  0.00    +0.000 OA
ATOM     15  H   UNL     1       7.941   6.370  16.131  0.00  0.00    +0.000 HD
ENDBRANCH  12  14
ENDBRANCH   1  12
BRANCH   1  16
ATOM     16  C   UNL     1       5.629   4.831  15.396  0.00  0.00    +0.000 C 
BRANCH  16  18
ATOM     17  O   UNL     1       7.506   5.302  14.038  0.00  0.00    +0.000 OA
ATOM     18  C   UNL     1       6.576   4.542  14.261  0.00  0.00    +0.000 C 
BRANCH  18  19
ATOM     19  O   UNL     1       6.387   3.475  13.457  0.00  0.00    +0.000 OA
ATOM     20  H   UNL     1       6.794   3.418  12.582  0.00  0.00    +0.000 HD
ENDBRANCH  18  19
ENDBRANCH  16  18
ENDBRANCH   1  16
TORSDOF 6
ENDMDL
MODEL 6
REMARK VINA RESULT:      -6.9      1.587      3.129
REMARK  Name = 
REMARK  6 active torsions:
REMARK  status: ('A' for Active; 'I' for Inactive)
REMARK    1  A    between atoms: C_2  and  O_3
REMARK    2  A    between atoms: C_2  and  C_4
REMARK    3  A    between atoms: C_4  and  C_5
REMARK    4  A    between atoms: C_5  and  C_6
REMARK    5  A    between atoms: C_5  and  N_9
REMARK    6  A    between atoms: C_6  and  O_8
REMARK                            x       y       z     vdW  Elec       q    Type
REMARK                         _______ _______ _______ _____ _____    ______ ____
ROOT
ATOM      1  C   UNL     1       6.046   5.853  17.508  0.00  0.00    +0.000 C 
ENDROOT
BRANCH   1   2
ATOM      2  N   UNL     1       4.775   5.226  17.905  0.00  0.00    +0.000 N 
ATOM      3 SE   UNL     1       3.742   5.994  19.168  0.00  0.00    +0.000 Se
ATOM      4  C   UNL     1       2.683   4.535  19.035  0.00  0.00    +0.000 A 
ATOM      5  C   UNL     1       1.541   4.297  19.801  0.00  0.00    +0.000 A 
ATOM      6  C   UNL     1       0.829   3.105  19.604  0.00  0.00    +0.000 A 
ATOM      7  C   UNL     1       1.259   2.173  18.645  0.00  0.00    +0.000 A 
ATOM      8  C   UNL     1       2.408   2.428  17.877  0.00  0.00    +0.000 A 
ATOM      9  C   UNL     1       3.113   3.623  18.090  0.00  0.00    +0.000 A 
ATOM     10  C   UNL     1       4.272   4.027  17.462  0.00  0.00    +0.000 A 
ATOM     11  O   UNL     1       4.827   3.353  16.608  0.00  0.00    +0.000 OA
ENDBRANCH   1   2
BRANCH   1  12
ATOM     12  C   UNL     1       6.151   5.982  16.000  0.00  0.00    +0.000 C 
ATOM     13  O   UNL     1       7.113   5.529  15.404  0.00  0.00    +0.000 OA
BRANCH  12  14
ATOM     14  O   UNL     1       5.179   6.607  15.295  0.00  0.00    +0.000 OA
ATOM     15  H   UNL     1       4.796   6.223  14.494  0.00  0.00    +0.000 HD
ENDBRANCH  12  14
ENDBRANCH   1  12
BRANCH   1  16
ATOM     16  C   UNL     1       7.233   5.075  18.116  0.00  0.00    +0.000 C 
BRANCH  16  18
ATOM     17  O   UNL     1       7.804   5.303  20.399  0.00  0.00    +0.000 OA
ATOM     18  C   UNL     1       7.871   5.787  19.280  0.00  0.00    +0.000 C 
BRANCH  18  19
ATOM     19  O   UNL     1       8.482   6.979  19.111  0.00  0.00    +0.000 OA
ATOM     20  H   UNL     1       8.968   7.192  18.303  0.00  0.00    +0.000 HD
ENDBRANCH  18  19
ENDBRANCH  16  18
ENDBRANCH   1  16
TORSDOF 6
ENDMDL
MODEL 7
REMARK VINA RESULT:      -6.8      1.393      1.585
REMARK  Name = 
REMARK  6 active torsions:
REMARK  status: ('A' for Active; 'I' for Inactive)
REMARK    1  A    between atoms: C_2  and  O_3
REMARK    2  A    between atoms: C_2  and  C_4
REMARK    3  A    between atoms: C_4  and  C_5
REMARK    4  A    between atoms: C_5  and  C_6
REMARK    5  A    between atoms: C_5  and  N_9
REMARK    6  A    between atoms: C_6  and  O_8
REMARK                            x       y       z     vdW  Elec       q    Type
REMARK                         _______ _______ _______ _____ _____    ______ ____
ROOT
ATOM      1  C   UNL     1       6.256   4.841  17.718  0.00  0.00    +0.000 C 
ENDROOT
BRANCH   1   2
ATOM      2  N   UNL     1       4.946   4.550  18.324  0.00  0.00    +0.000 N 
ATOM      3 SE   UNL     1       3.517   5.575  17.924  0.00  0.00    +0.000 Se
ATOM      4  C   UNL     1       2.614   4.607  19.156  0.00  0.00    +0.000 A 
ATOM      5  C   UNL     1       1.287   4.817  19.528  0.00  0.00    +0.000 A 
ATOM      6  C   UNL     1       0.723   4.000  20.519  0.00  0.00    +0.000 A 
ATOM      7  C   UNL     1       1.487   2.985  21.119  0.00  0.00    +0.000 A 
ATOM      8  C   UNL     1       2.822   2.782  20.730  0.00  0.00    +0.000 A 
ATOM      9  C   UNL     1       3.372   3.611  19.741  0.00  0.00    +0.000 A 
ATOM     10  C   UNL     1       4.665   3.585  19.259  0.00  0.00    +0.000 A 
ATOM     11  O   UNL     1       5.501   2.792  19.662  0.00  0.00    +0.000 OA
ENDBRANCH   1   2
BRANCH   1  12
ATOM     12  C   UNL     1       7.116   5.684  18.641  0.00  0.00    +0.000 C 
ATOM     13  O   UNL     1       7.706   6.663  18.216  0.00  0.00    +0.000 OA
BRANCH  12  14
ATOM     14  O   UNL     1       7.244   5.359  19.948  0.00  0.00    +0.000 OA
ATOM     15  H   UNL     1       6.692   5.758  20.635  0.00  0.00    +0.000 HD
ENDBRANCH  12  14
ENDBRANCH   1  12
BRANCH   1  16
ATOM     16  C   UNL     1       6.064   5.493  16.332  0.00  0.00    +0.000 C 
BRANCH  16  18
ATOM     17  O   UNL     1       7.756   5.309  14.691  0.00  0.00    +0.000 OA
ATOM     18  C   UNL     1       6.802   4.773  15.234  0.00  0.00    +0.000 C 
BRANCH  18  19
ATOM     19  O   UNL     1       6.397   3.558  14.808  0.00  0.00    +0.000 OA
ATOM     20  H   UNL     1       6.998   2.801  14.780  0.00  0.00    +0.000 HD
ENDBRANCH  18  19
ENDBRANCH  16  18
ENDBRANCH   1  16
TORSDOF 6
ENDMDL
MODEL 8
REMARK VINA RESULT:      -6.7      0.934      1.142
REMARK  Name = 
REMARK  6 active torsions:
REMARK  status: ('A' for Active; 'I' for Inactive)
REMARK    1  A    between atoms: C_2  and  O_3
REMARK    2  A    between atoms: C_2  and  C_4
REMARK    3  A    between atoms: C_4  and  C_5
REMARK    4  A    between atoms: C_5  and  C_6
REMARK    5  A    between atoms: C_5  and  N_9
REMARK    6  A    between atoms: C_6  and  O_8
REMARK                            x       y       z     vdW  Elec       q    Type
REMARK                         _______ _______ _______ _____ _____    ______ ____
ROOT
ATOM      1  C   UNL     1       5.935   4.605  16.568  0.00  0.00    +0.000 C 
ENDROOT
BRANCH   1   2
ATOM      2  N   UNL     1       4.827   4.979  17.463  0.00  0.00    +0.000 N 
ATOM      3 SE   UNL     1       4.246   6.686  17.518  0.00  0.00    +0.000 Se
ATOM      4  C   UNL     1       3.157   6.157  18.861  0.00  0.00    +0.000 A 
ATOM      5  C   UNL     1       2.295   6.990  19.574  0.00  0.00    +0.000 A 
ATOM      6  C   UNL     1       1.524   6.443  20.609  0.00  0.00    +0.000 A 
ATOM      7  C   UNL     1       1.619   5.075  20.916  0.00  0.00    +0.000 A 
ATOM      8  C   UNL     1       2.488   4.247  20.187  0.00  0.00    +0.000 A 
ATOM      9  C   UNL     1       3.256   4.811  19.157  0.00  0.00    +0.000 A 
ATOM     10  C   UNL     1       4.182   4.167  18.362  0.00  0.00    +0.000 A 
ATOM     11  O   UNL     1       4.434   2.978  18.478  0.00  0.00    +0.000 OA
ENDBRANCH   1   2
BRANCH   1  12
ATOM     12  C   UNL     1       7.268   5.088  17.109  0.00  0.00    +0.000 C 
ATOM     13  O   UNL     1       7.916   4.393  17.872  0.00  0.00    +0.000 OA
BRANCH  12  14
ATOM     14  O   UNL     1       7.753   6.300  16.754  0.00  0.00    +0.000 OA
ATOM     15  H   UNL     1       8.309   6.826  17.347  0.00  0.00    +0.000 HD
ENDBRANCH  12  14
ENDBRANCH   1  12
BRANCH   1  16
ATOM     16  C   UNL     1       5.657   5.119  15.139  0.00  0.00    +0.000 C 
BRANCH  16  18
ATOM     17  O   UNL     1       7.613   5.292  13.823  0.00  0.00    +0.000 OA
ATOM     18  C   UNL     1       6.647   4.609  14.125  0.00  0.00    +0.000 C 
BRANCH  18  19
ATOM     19  O   UNL     1       6.459   3.422  13.511  0.00  0.00    +0.000 OA
ATOM     20  H   UNL     1       6.145   3.366  12.598  0.00  0.00    +0.000 HD
ENDBRANCH  18  19
ENDBRANCH  16  18
ENDBRANCH   1  16
TORSDOF 6
ENDMDL
MODEL 9
REMARK VINA RESULT:      -6.6      1.968      3.561
REMARK  Name = 
REMARK  6 active torsions:
REMARK  status: ('A' for Active; 'I' for Inactive)
REMARK    1  A    between atoms: C_2  and  O_3
REMARK    2  A    between atoms: C_2  and  C_4
REMARK    3  A    between atoms: C_4  and  C_5
REMARK    4  A    between atoms: C_5  and  C_6
REMARK    5  A    between atoms: C_5  and  N_9
REMARK    6  A    between atoms: C_6  and  O_8
REMARK                            x       y       z     vdW  Elec       q    Type
REMARK                         _______ _______ _______ _____ _____    ______ ____
ROOT
ATOM      1  C   UNL     1       5.819   5.949  17.467  0.00  0.00    +0.000 C 
ENDROOT
BRANCH   1   2
ATOM      2  N   UNL     1       4.803   5.265  18.284  0.00  0.00    +0.000 N 
ATOM      3 SE   UNL     1       4.996   3.518  18.690  0.00  0.00    +0.000 Se
ATOM      4  C   UNL     1       3.360   3.627  19.452  0.00  0.00    +0.000 A 
ATOM      5  C   UNL     1       2.673   2.564  20.039  0.00  0.00    +0.000 A 
ATOM      6  C   UNL     1       1.396   2.792  20.572  0.00  0.00    +0.000 A 
ATOM      7  C   UNL     1       0.825   4.075  20.517  0.00  0.00    +0.000 A 
ATOM      8  C   UNL     1       1.531   5.138  19.927  0.00  0.00    +0.000 A 
ATOM      9  C   UNL     1       2.805   4.891  19.395  0.00  0.00    +0.000 A 
ATOM     10  C   UNL     1       3.626   5.794  18.751  0.00  0.00    +0.000 A 
ATOM     11  O   UNL     1       3.311   6.961  18.578  0.00  0.00    +0.000 OA
ENDBRANCH   1   2
BRANCH   1  12
ATOM     12  C   UNL     1       5.491   5.858  15.989  0.00  0.00    +0.000 C 
ATOM     13  O   UNL     1       5.162   6.852  15.364  0.00  0.00    +0.000 OA
BRANCH  12  14
ATOM     14  O   UNL     1       5.554   4.670  15.343  0.00  0.00    +0.000 OA
ATOM     15  H   UNL     1       6.383   4.321  14.987  0.00  0.00    +0.000 HD
ENDBRANCH  12  14
ENDBRANCH   1  12
BRANCH   1  16
ATOM     16  C   UNL     1       7.222   5.395  17.795  0.00  0.00    +0.000 C 
BRANCH  16  18
ATOM     17  O   UNL     1       7.666   5.445  20.116  0.00  0.00    +0.000 OA
ATOM     18  C   UNL     1       7.820   5.998  19.039  0.00  0.00    +0.000 C 
BRANCH  18  19
ATOM     19  O   UNL     1       8.489   7.170  18.986  0.00  0.00    +0.000 OA
ATOM     20  H   UNL     1       8.567   7.675  18.166  0.00  0.00    +0.000 HD
ENDBRANCH  18  19
ENDBRANCH  16  18
ENDBRANCH   1  16
TORSDOF 6
ENDMDL
