MODEL 1
REMARK VINA RESULT:      -7.5      0.000      0.000
REMARK  Name = 
REMARK  0 active torsions:
REMARK  status: ('A' for Active; 'I' for Inactive)
REMARK                            x       y       z     vdW  Elec       q    Type
REMARK                         _______ _______ _______ _____ _____    ______ ____
ROOT
ATOM      1 CL   UNL     1       4.018   2.482  19.988  0.00  0.00    +0.000 Cl
ATOM      2  C   UNL     1       3.691   4.045  19.340  0.00  0.00    +0.000 A 
ATOM      3  C   UNL     1       4.201   4.389  18.092  0.00  0.00    +0.000 A 
ATOM      4  C   UNL     1       3.937   5.645  17.538  0.00  0.00    +0.000 A 
ATOM      5  C   UNL     1       3.148   6.540  18.277  0.00  0.00    +0.000 A 
ATOM      6  S   UNL     1       2.635   8.130  17.862  0.00  0.00    +0.000 S 
ATOM      7  C   UNL     1       1.824   8.259  19.357  0.00  0.00    +0.000 A 
ATOM      8  N   UNL     1       1.127   9.444  19.680  0.00  0.00    +0.000 N 
ATOM      9  C   UNL     1       0.945  10.553  18.861  0.00  0.00    +0.000 A 
ATOM     10  C   UNL     1       0.184  11.492  19.510  0.00  0.00    +0.000 A 
ATOM     11  C   UNL     1      -0.110  10.987  20.796  0.00  0.00    +0.000 A 
ATOM     12  C   UNL     1      -0.830  11.507  21.891  0.00  0.00    +0.000 A 
ATOM     13  C   UNL     1      -0.935  10.762  23.068  0.00  0.00    +0.000 A 
ATOM     14  C   UNL     1      -0.337   9.511  23.164  0.00  0.00    +0.000 A 
ATOM     15  C   UNL     1       0.375   8.972  22.087  0.00  0.00    +0.000 A 
ATOM     16  C   UNL     1       0.482   9.722  20.897  0.00  0.00    +0.000 A 
ATOM     17  N   UNL     1       1.896   7.211  20.148  0.00  0.00    +0.000 NA
ATOM     18  C   UNL     1       2.640   6.215  19.536  0.00  0.00    +0.000 A 
ATOM     19  C   UNL     1       2.914   4.942  20.074  0.00  0.00    +0.000 A 
ENDROOT
TORSDOF 0
ENDMDL
MODEL 2
REMARK VINA RESULT:      -7.3      4.722      6.463
REMARK  Name = 
REMARK  0 active torsions:
REMARK  status: ('A' for Active; 'I' for Inactive)
REMARK                            x       y       z     vdW  Elec       q    Type
REMARK                         _______ _______ _______ _____ _____    ______ ____
ROOT
ATOM      1 CL   UNL     1       6.787   3.141  11.815  0.00  0.00    +0.000 Cl
ATOM      2  C   UNL     1       6.593   3.985  13.304  0.00  0.00    +0.000 A 
ATOM      3  C   UNL     1       7.480   5.006  13.633  0.00  0.00    +0.000 A 
ATOM      4  C   UNL     1       7.335   5.716  14.829  0.00  0.00    +0.000 A 
ATOM      5  C   UNL     1       6.276   5.366  15.680  0.00  0.00    +0.000 A 
ATOM      6  S   UNL     1       5.827   6.058  17.191  0.00  0.00    +0.000 S 
ATOM      7  C   UNL     1       4.539   4.946  17.316  0.00  0.00    +0.000 A 
ATOM      8  N   UNL     1       3.689   4.977  18.445  0.00  0.00    +0.000 N 
ATOM      9  C   UNL     1       3.724   5.896  19.488  0.00  0.00    +0.000 A 
ATOM     10  C   UNL     1       2.719   5.624  20.382  0.00  0.00    +0.000 A 
ATOM     11  C   UNL     1       2.033   4.481  19.917  0.00  0.00    +0.000 A 
ATOM     12  C   UNL     1       0.941   3.744  20.419  0.00  0.00    +0.000 A 
ATOM     13  C   UNL     1       0.487   2.618  19.729  0.00  0.00    +0.000 A 
ATOM     14  C   UNL     1       1.103   2.223  18.547  0.00  0.00    +0.000 A 
ATOM     15  C   UNL     1       2.182   2.944  18.024  0.00  0.00    +0.000 A 
ATOM     16  C   UNL     1       2.643   4.081  18.720  0.00  0.00    +0.000 A 
ATOM     17  N   UNL     1       4.406   4.097  16.322  0.00  0.00    +0.000 NA
ATOM     18  C   UNL     1       5.386   4.335  15.372  0.00  0.00    +0.000 A 
ATOM     19  C   UNL     1       5.547   3.636  14.160  0.00  0.00    +0.000 A 
ENDROOT
TORSDOF 0
ENDMDL
MODEL 3
REMARK VINA RESULT:      -7.3      2.659      6.559
REMARK  Name = 
REMARK  0 active torsions:
REMARK  status: ('A' for Active; 'I' for Inactive)
REMARK                            x       y       z     vdW  Elec       q    Type
REMARK                         _______ _______ _______ _____ _____    ______ ____
ROOT
ATOM      1 CL   UNL     1      -1.330  11.130  23.075  0.00  0.00    +0.000 Cl
ATOM      2  C   UNL     1      -0.412  10.566  21.731  0.00  0.00    +0.000 A 
ATOM      3  C   UNL     1      -0.206  11.407  20.641  0.00  0.00    +0.000 A 
ATOM      4  C   UNL     1       0.548  10.977  19.545  0.00  0.00    +0.000 A 
ATOM      5  C   UNL     1       1.084   9.680  19.579  0.00  0.00    +0.000 A 
ATOM      6  S   UNL     1       2.061   8.881  18.409  0.00  0.00    +0.000 S 
ATOM      7  C   UNL     1       2.103   7.490  19.396  0.00  0.00    +0.000 A 
ATOM      8  N   UNL     1       2.813   6.345  18.970  0.00  0.00    +0.000 N 
ATOM      9  C   UNL     1       3.586   6.226  17.820  0.00  0.00    +0.000 A 
ATOM     10  C   UNL     1       4.148   4.975  17.765  0.00  0.00    +0.000 A 
ATOM     11  C   UNL     1       3.704   4.258  18.897  0.00  0.00    +0.000 A 
ATOM     12  C   UNL     1       3.936   2.945  19.356  0.00  0.00    +0.000 A 
ATOM     13  C   UNL     1       3.326   2.503  20.532  0.00  0.00    +0.000 A 
ATOM     14  C   UNL     1       2.496   3.351  21.254  0.00  0.00    +0.000 A 
ATOM     15  C   UNL     1       2.258   4.661  20.823  0.00  0.00    +0.000 A 
ATOM     16  C   UNL     1       2.872   5.110  19.636  0.00  0.00    +0.000 A 
ATOM     17  N   UNL     1       1.452   7.566  20.535  0.00  0.00    +0.000 NA
ATOM     18  C   UNL     1       0.875   8.820  20.659  0.00  0.00    +0.000 A 
ATOM     19  C   UNL     1       0.116   9.274  21.756  0.00  0.00    +0.000 A 
ENDROOT
TORSDOF 0
ENDMDL
MODEL 4
REMARK VINA RESULT:      -7.1      2.951      7.416
REMARK  Name = 
REMARK  0 active torsions:
REMARK  status: ('A' for Active; 'I' for Inactive)
REMARK                            x       y       z     vdW  Elec       q    Type
REMARK                         _______ _______ _______ _____ _____    ______ ____
ROOT
ATOM      1 CL   UNL     1       0.240  12.205  18.978  0.00  0.00    +0.000 Cl
ATOM      2  C   UNL     1       0.697  10.619  19.474  0.00  0.00    +0.000 A 
ATOM      3  C   UNL     1       0.246  10.128  20.696  0.00  0.00    +0.000 A 
ATOM      4  C   UNL     1       0.590   8.839  21.114  0.00  0.00    +0.000 A 
ATOM      5  C   UNL     1       1.400   8.064  20.269  0.00  0.00    +0.000 A 
ATOM      6  S   UNL     1       1.969   6.455  20.489  0.00  0.00    +0.000 S 
ATOM      7  C   UNL     1       2.790   6.541  18.996  0.00  0.00    +0.000 A 
ATOM      8  N   UNL     1       3.536   5.433  18.538  0.00  0.00    +0.000 N 
ATOM      9  C   UNL     1       3.632   4.185  19.146  0.00  0.00    +0.000 A 
ATOM     10  C   UNL     1       4.420   3.357  18.386  0.00  0.00    +0.000 A 
ATOM     11  C   UNL     1       4.867   4.099  17.271  0.00  0.00    +0.000 A 
ATOM     12  C   UNL     1       5.700   3.783  16.178  0.00  0.00    +0.000 A 
ATOM     13  C   UNL     1       5.983   4.758  15.218  0.00  0.00    +0.000 A 
ATOM     14  C   UNL     1       5.446   6.034  15.332  0.00  0.00    +0.000 A 
ATOM     15  C   UNL     1       4.609   6.367  16.404  0.00  0.00    +0.000 A 
ATOM     16  C   UNL     1       4.322   5.385  17.374  0.00  0.00    +0.000 A 
ATOM     17  N   UNL     1       2.676   7.672  18.335  0.00  0.00    +0.000 NA
ATOM     18  C   UNL     1       1.872   8.548  19.047  0.00  0.00    +0.000 A 
ATOM     19  C   UNL     1       1.509   9.848  18.642  0.00  0.00    +0.000 A 
ENDROOT
TORSDOF 0
ENDMDL
MODEL 5
REMARK VINA RESULT:      -6.9      2.792      6.486
REMARK  Name = 
REMARK  0 active torsions:
REMARK  status: ('A' for Active; 'I' for Inactive)
REMARK                            x       y       z     vdW  Elec       q    Type
REMARK                         _______ _______ _______ _____ _____    ______ ____
ROOT
ATOM      1 CL   UNL     1      -0.628  12.095  21.509  0.00  0.00    +0.000 Cl
ATOM      2  C   UNL     1       0.253  11.136  20.381  0.00  0.00    +0.000 A 
ATOM      3  C   UNL     1       0.621  11.685  19.156  0.00  0.00    +0.000 A 
ATOM      4  C   UNL     1       1.349  10.932  18.229  0.00  0.00    +0.000 A 
ATOM      5  C   UNL     1       1.691   9.615  18.571  0.00  0.00    +0.000 A 
ATOM      6  S   UNL     1       2.589   8.458  17.666  0.00  0.00    +0.000 S 
ATOM      7  C   UNL     1       2.391   7.322  18.924  0.00  0.00    +0.000 A 
ATOM      8  N   UNL     1       2.946   6.029  18.797  0.00  0.00    +0.000 N 
ATOM      9  C   UNL     1       3.739   5.561  17.755  0.00  0.00    +0.000 A 
ATOM     10  C   UNL     1       4.117   4.266  18.003  0.00  0.00    +0.000 A 
ATOM     11  C   UNL     1       3.529   3.877  19.226  0.00  0.00    +0.000 A 
ATOM     12  C   UNL     1       3.552   2.676  19.965  0.00  0.00    +0.000 A 
ATOM     13  C   UNL     1       2.839   2.585  21.162  0.00  0.00    +0.000 A 
ATOM     14  C   UNL     1       2.110   3.672  21.631  0.00  0.00    +0.000 A 
ATOM     15  C   UNL     1       2.081   4.876  20.919  0.00  0.00    +0.000 A 
ATOM     16  C   UNL     1       2.800   4.971  19.710  0.00  0.00    +0.000 A 
ATOM     17  N   UNL     1       1.713   7.730  19.973  0.00  0.00    +0.000 NA
ATOM     18  C   UNL     1       1.317   9.045  19.790  0.00  0.00    +0.000 A 
ATOM     19  C   UNL     1       0.589   9.822  20.712  0.00  0.00    +0.000 A 
ENDROOT
TORSDOF 0
ENDMDL
MODEL 6
REMARK VINA RESULT:      -6.8      2.081      3.309
REMARK  Name = 
REMARK  0 active torsions:
REMARK  status: ('A' for Active; 'I' for Inactive)
REMARK                            x       y       z     vdW  Elec       q    Type
REMARK                         _______ _______ _______ _____ _____    ______ ____
ROOT
ATOM      1 CL   UNL     1       6.453   5.136  14.662  0.00  0.00    +0.000 Cl
ATOM      2  C   UNL     1       5.458   5.134  16.069  0.00  0.00    +0.000 A 
ATOM      3  C   UNL     1       5.361   3.978  16.837  0.00  0.00    +0.000 A 
ATOM      4  C   UNL     1       4.572   3.955  17.991  0.00  0.00    +0.000 A 
ATOM      5  C   UNL     1       3.886   5.127  18.346  0.00  0.00    +0.000 A 
ATOM      6  S   UNL     1       2.867   5.418  19.702  0.00  0.00    +0.000 S 
ATOM      7  C   UNL     1       2.602   7.013  19.159  0.00  0.00    +0.000 A 
ATOM      8  N   UNL     1       1.764   7.878  19.899  0.00  0.00    +0.000 N 
ATOM      9  C   UNL     1       1.155   7.605  21.118  0.00  0.00    +0.000 A 
ATOM     10  C   UNL     1       0.448   8.703  21.542  0.00  0.00    +0.000 A 
ATOM     11  C   UNL     1       0.583   9.703  20.555  0.00  0.00    +0.000 A 
ATOM     12  C   UNL     1       0.076  11.014  20.438  0.00  0.00    +0.000 A 
ATOM     13  C   UNL     1       0.374  11.775  19.306  0.00  0.00    +0.000 A 
ATOM     14  C   UNL     1       1.172  11.250  18.296  0.00  0.00    +0.000 A 
ATOM     15  C   UNL     1       1.694   9.955  18.395  0.00  0.00    +0.000 A 
ATOM     16  C   UNL     1       1.394   9.184  19.537  0.00  0.00    +0.000 A 
ATOM     17  N   UNL     1       3.213   7.358  18.048  0.00  0.00    +0.000 NA
ATOM     18  C   UNL     1       3.962   6.291  17.578  0.00  0.00    +0.000 A 
ATOM     19  C   UNL     1       4.767   6.294  16.422  0.00  0.00    +0.000 A 
ENDROOT
TORSDOF 0
ENDMDL
MODEL 7
REMARK VINA RESULT:      -6.8      2.801      4.357
REMARK  Name = 
REMARK  0 active torsions:
REMARK  status: ('A' for Active; 'I' for Inactive)
REMARK                            x       y       z     vdW  Elec       q    Type
REMARK                         _______ _______ _______ _____ _____    ______ ____
ROOT
ATOM      1 CL   UNL     1       7.179   5.130  13.256  0.00  0.00    +0.000 Cl
ATOM      2  C   UNL     1       6.280   4.857  14.700  0.00  0.00    +0.000 A 
ATOM      3  C   UNL     1       6.312   3.600  15.299  0.00  0.00    +0.000 A 
ATOM      4  C   UNL     1       5.603   3.357  16.479  0.00  0.00    +0.000 A 
ATOM      5  C   UNL     1       4.863   4.412  17.035  0.00  0.00    +0.000 A 
ATOM      6  S   UNL     1       3.917   4.433  18.473  0.00  0.00    +0.000 S 
ATOM      7  C   UNL     1       3.509   6.064  18.180  0.00  0.00    +0.000 A 
ATOM      8  N   UNL     1       2.665   6.751  19.080  0.00  0.00    +0.000 N 
ATOM      9  C   UNL     1       2.156   6.265  20.279  0.00  0.00    +0.000 A 
ATOM     10  C   UNL     1       1.405   7.236  20.894  0.00  0.00    +0.000 A 
ATOM     11  C   UNL     1       1.408   8.371  20.054  0.00  0.00    +0.000 A 
ATOM     12  C   UNL     1       0.806   9.642  20.155  0.00  0.00    +0.000 A 
ATOM     13  C   UNL     1       0.978  10.574  19.129  0.00  0.00    +0.000 A 
ATOM     14  C   UNL     1       1.742  10.257  18.012  0.00  0.00    +0.000 A 
ATOM     15  C   UNL     1       2.356   9.005  17.895  0.00  0.00    +0.000 A 
ATOM     16  C   UNL     1       2.184   8.062  18.930  0.00  0.00    +0.000 A 
ATOM     17  N   UNL     1       4.022   6.605  17.097  0.00  0.00    +0.000 NA
ATOM     18  C   UNL     1       4.810   5.674  16.439  0.00  0.00    +0.000 A 
ATOM     19  C   UNL     1       5.536   5.900  15.253  0.00  0.00    +0.000 A 
ENDROOT
TORSDOF 0
ENDMDL
MODEL 8
REMARK VINA RESULT:      -6.8      2.888      6.518
REMARK  Name = 
REMARK  0 active torsions:
REMARK  status: ('A' for Active; 'I' for Inactive)
REMARK                            x       y       z     vdW  Elec       q    Type
REMARK                         _______ _______ _______ _____ _____    ______ ____
ROOT
ATOM      1 CL   UNL     1      -1.737  12.200  22.681  0.00  0.00    +0.000 Cl
ATOM      2  C   UNL     1      -0.760  11.620  21.387  0.00  0.00    +0.000 A 
ATOM      3  C   UNL     1      -0.480  12.458  20.312  0.00  0.00    +0.000 A 
ATOM      4  C   UNL     1       0.323  12.016  19.256  0.00  0.00    +0.000 A 
ATOM      5  C   UNL     1       0.831  10.709  19.314  0.00  0.00    +0.000 A 
ATOM      6  S   UNL     1       1.852   9.892  18.195  0.00  0.00    +0.000 S 
ATOM      7  C   UNL     1       1.815   8.499  19.179  0.00  0.00    +0.000 A 
ATOM      8  N   UNL     1       2.523   7.341  18.787  0.00  0.00    +0.000 N 
ATOM      9  C   UNL     1       3.354   7.209  17.680  0.00  0.00    +0.000 A 
ATOM     10  C   UNL     1       3.893   5.947  17.651  0.00  0.00    +0.000 A 
ATOM     11  C   UNL     1       3.375   5.237  18.756  0.00  0.00    +0.000 A 
ATOM     12  C   UNL     1       3.556   3.918  19.222  0.00  0.00    +0.000 A 
ATOM     13  C   UNL     1       2.876   3.486  20.363  0.00  0.00    +0.000 A 
ATOM     14  C   UNL     1       2.025   4.349  21.043  0.00  0.00    +0.000 A 
ATOM     15  C   UNL     1       1.837   5.665  20.603  0.00  0.00    +0.000 A 
ATOM     16  C   UNL     1       2.522   6.104  19.452  0.00  0.00    +0.000 A 
ATOM     17  N   UNL     1       1.105   8.586  20.282  0.00  0.00    +0.000 NA
ATOM     18  C   UNL     1       0.547   9.851  20.378  0.00  0.00    +0.000 A 
ATOM     19  C   UNL     1      -0.260  10.318  21.435  0.00  0.00    +0.000 A 
ENDROOT
TORSDOF 0
ENDMDL
MODEL 9
REMARK VINA RESULT:      -6.5      3.067      7.142
REMARK  Name = 
REMARK  0 active torsions:
REMARK  status: ('A' for Active; 'I' for Inactive)
REMARK                            x       y       z     vdW  Elec       q    Type
REMARK                         _______ _______ _______ _____ _____    ______ ____
ROOT
ATOM      1 CL   UNL     1      -0.142  13.610  18.527  0.00  0.00    +0.000 Cl
ATOM      2  C   UNL     1       0.134  12.104  19.316  0.00  0.00    +0.000 A 
ATOM      3  C   UNL     1      -0.451  11.864  20.556  0.00  0.00    +0.000 A 
ATOM      4  C   UNL     1      -0.255  10.644  21.211  0.00  0.00    +0.000 A 
ATOM      5  C   UNL     1       0.546   9.678  20.581  0.00  0.00    +0.000 A 
ATOM      6  S   UNL     1       0.952   8.093  21.114  0.00  0.00    +0.000 S 
ATOM      7  C   UNL     1       1.889   7.861  19.708  0.00  0.00    +0.000 A 
ATOM      8  N   UNL     1       2.568   6.638  19.508  0.00  0.00    +0.000 N 
ATOM      9  C   UNL     1       2.507   5.510  20.319  0.00  0.00    +0.000 A 
ATOM     10  C   UNL     1       3.274   4.508  19.780  0.00  0.00    +0.000 A 
ATOM     11  C   UNL     1       3.869   5.012  18.603  0.00  0.00    +0.000 A 
ATOM     12  C   UNL     1       4.752   4.453  17.657  0.00  0.00    +0.000 A 
ATOM     13  C   UNL     1       5.193   5.224  16.579  0.00  0.00    +0.000 A 
ATOM     14  C   UNL     1       4.763   6.538  16.433  0.00  0.00    +0.000 A 
ATOM     15  C   UNL     1       3.880   7.110  17.355  0.00  0.00    +0.000 A 
ATOM     16  C   UNL     1       3.433   6.334  18.444  0.00  0.00    +0.000 A 
ATOM     17  N   UNL     1       1.926   8.867  18.862  0.00  0.00    +0.000 NA
ATOM     18  C   UNL     1       1.151   9.909  19.344  0.00  0.00    +0.000 A 
ATOM     19  C   UNL     1       0.936  11.143  18.699  0.00  0.00    +0.000 A 
ENDROOT
TORSDOF 0
ENDMDL
