MODEL 1
REMARK VINA RESULT:      -6.4      0.000      0.000
REMARK  Name = 
REMARK  7 active torsions:
REMARK  status: ('A' for Active; 'I' for Inactive)
REMARK    1  A    between atoms: C_1  and  C_2
REMARK    2  A    between atoms: C_5  and  C_6
REMARK    3  A    between atoms: C_6  and  S_7
REMARK    4  A    between atoms: S_7  and  C_10
REMARK    5  A    between atoms: C_10  and  C_11
REMARK    6  A    between atoms: C_11  and  N_12
REMARK    7  A    between atoms: N_12  and  C_13
REMARK                            x       y       z     vdW  Elec       q    Type
REMARK                         _______ _______ _______ _____ _____    ______ ____
ROOT
ATOM      1  S   UNL     1       2.717   4.178  18.760  0.00  0.00    +0.000 S 
ATOM      2  O   UNL     1       3.028   2.962  19.487  0.00  0.00    +0.000 OA
ATOM      3  O   UNL     1       1.360   4.476  18.349  0.00  0.00    +0.000 OA
ENDROOT
BRANCH   1   4
ATOM      4  C   UNL     1       3.431   5.596  19.595  0.00  0.00    +0.000 C 
BRANCH   4   9
ATOM      5  C   UNL     1       0.581  10.600  18.629  0.00  0.00    +0.000 C 
ATOM      6  C   UNL     1       1.292   9.307  18.889  0.00  0.00    +0.000 A 
ATOM      7  C   UNL     1       1.251   8.673  20.132  0.00  0.00    +0.000 A 
ATOM      8  C   UNL     1       1.936   7.471  20.339  0.00  0.00    +0.000 A 
ATOM      9  C   UNL     1       2.671   6.868  19.301  0.00  0.00    +0.000 A 
ATOM     10  C   UNL     1       2.721   7.530  18.070  0.00  0.00    +0.000 A 
ATOM     11  C   UNL     1       2.033   8.724  17.860  0.00  0.00    +0.000 A 
ENDBRANCH   4   9
ENDBRANCH   1   4
BRANCH   1  12
ATOM     12  C   UNL     1       3.630   4.054  17.247  0.00  0.00    +0.000 C 
BRANCH  12  13
ATOM     13  C   UNL     1       5.099   3.914  17.630  0.00  0.00    +0.000 C 
BRANCH  13  14
ATOM     14  N   UNL     1       6.085   4.586  16.631  0.00  0.00    +0.000 N 
ATOM     15  C   UNL     1       6.100   3.825  15.316  0.00  0.00    +0.000 C 
ATOM     16  C   UNL     1       7.490   4.767  17.202  0.00  0.00    +0.000 C 
ATOM     17  C   UNL     1       7.352   5.971  18.111  0.00  0.00    +0.000 C 
ATOM     18  C   UNL     1       6.491   6.920  17.299  0.00  0.00    +0.000 C 
ATOM     19  C   UNL     1       5.624   6.051  16.391  0.00  0.00    +0.000 C 
ENDBRANCH  13  14
ENDBRANCH  12  13
ENDBRANCH   1  12
TORSDOF 5
ENDMDL
MODEL 2
REMARK VINA RESULT:      -6.4      3.351      6.096
REMARK  Name = 
REMARK  7 active torsions:
REMARK  status: ('A' for Active; 'I' for Inactive)
REMARK    1  A    between atoms: C_1  and  C_2
REMARK    2  A    between atoms: C_5  and  C_6
REMARK    3  A    between atoms: C_6  and  S_7
REMARK    4  A    between atoms: S_7  and  C_10
REMARK    5  A    between atoms: C_10  and  C_11
REMARK    6  A    between atoms: C_11  and  N_12
REMARK    7  A    between atoms: N_12  and  C_13
REMARK                            x       y       z     vdW  Elec       q    Type
REMARK                         _______ _______ _______ _____ _____    ______ ____
ROOT
ATOM      1  S   UNL     1       5.865   4.980  18.924  0.00  0.00    +0.000 S 
ATOM      2  O   UNL     1       5.932   3.611  18.452  0.00  0.00    +0.000 OA
ATOM      3  O   UNL     1       6.798   5.476  19.915  0.00  0.00    +0.000 OA
ENDROOT
BRANCH   1   4
ATOM      4  C   UNL     1       5.791   6.109  17.531  0.00  0.00    +0.000 C 
BRANCH   4   9
ATOM      5  C   UNL     1       6.372   3.462  12.360  0.00  0.00    +0.000 C 
ATOM      6  C   UNL     1       6.210   4.121  13.694  0.00  0.00    +0.000 A 
ATOM      7  C   UNL     1       4.980   4.170  14.355  0.00  0.00    +0.000 A 
ATOM      8  C   UNL     1       4.866   4.804  15.596  0.00  0.00    +0.000 A 
ATOM      9  C   UNL     1       5.983   5.396  16.214  0.00  0.00    +0.000 A 
ATOM     10  C   UNL     1       7.202   5.358  15.527  0.00  0.00    +0.000 A 
ATOM     11  C   UNL     1       7.319   4.721  14.293  0.00  0.00    +0.000 A 
ENDBRANCH   4   9
ENDBRANCH   1   4
BRANCH   1  12
ATOM     12  C   UNL     1       4.274   5.124  19.690  0.00  0.00    +0.000 C 
BRANCH  12  13
ATOM     13  C   UNL     1       3.855   3.717  20.102  0.00  0.00    +0.000 C 
BRANCH  13  14
ATOM     14  N   UNL     1       2.356   3.395  19.840  0.00  0.00    +0.000 N 
ATOM     15  C   UNL     1       1.601   3.297  21.156  0.00  0.00    +0.000 C 
ATOM     16  C   UNL     1       2.148   2.158  18.970  0.00  0.00    +0.000 C 
ATOM     17  C   UNL     1       2.443   2.655  17.569  0.00  0.00    +0.000 C 
ATOM     18  C   UNL     1       1.760   4.009  17.532  0.00  0.00    +0.000 C 
ATOM     19  C   UNL     1       1.752   4.531  18.967  0.00  0.00    +0.000 C 
ENDBRANCH  13  14
ENDBRANCH  12  13
ENDBRANCH   1  12
TORSDOF 5
ENDMDL
MODEL 3
REMARK VINA RESULT:      -6.4      3.461      6.194
REMARK  Name = 
REMARK  7 active torsions:
REMARK  status: ('A' for Active; 'I' for Inactive)
REMARK    1  A    between atoms: C_1  and  C_2
REMARK    2  A    between atoms: C_5  and  C_6
REMARK    3  A    between atoms: C_6  and  S_7
REMARK    4  A    between atoms: S_7  and  C_10
REMARK    5  A    between atoms: C_10  and  C_11
REMARK    6  A    between atoms: C_11  and  N_12
REMARK    7  A    between atoms: N_12  and  C_13
REMARK                            x       y       z     vdW  Elec       q    Type
REMARK                         _______ _______ _______ _____ _____    ______ ____
ROOT
ATOM      1  S   UNL     1       5.801   5.034  18.831  0.00  0.00    +0.000 S 
ATOM      2  O   UNL     1       6.033   3.670  18.397  0.00  0.00    +0.000 OA
ATOM      3  O   UNL     1       6.693   5.680  19.773  0.00  0.00    +0.000 OA
ENDROOT
BRANCH   1   4
ATOM      4  C   UNL     1       5.536   6.096  17.409  0.00  0.00    +0.000 C 
BRANCH   4   9
ATOM      5  C   UNL     1       6.589   3.472  12.300  0.00  0.00    +0.000 C 
ATOM      6  C   UNL     1       6.306   4.125  13.618  0.00  0.00    +0.000 A 
ATOM      7  C   UNL     1       5.040   4.094  14.206  0.00  0.00    +0.000 A 
ATOM      8  C   UNL     1       4.813   4.723  15.434  0.00  0.00    +0.000 A 
ATOM      9  C   UNL     1       5.851   5.392  16.110  0.00  0.00    +0.000 A 
ATOM     10  C   UNL     1       7.106   5.433  15.494  0.00  0.00    +0.000 A 
ATOM     11  C   UNL     1       7.337   4.801  14.274  0.00  0.00    +0.000 A 
ENDBRANCH   4   9
ENDBRANCH   1   4
BRANCH   1  12
ATOM     12  C   UNL     1       4.230   4.995  19.649  0.00  0.00    +0.000 C 
BRANCH  12  13
ATOM     13  C   UNL     1       3.240   4.373  18.670  0.00  0.00    +0.000 C 
BRANCH  13  14
ATOM     14  N   UNL     1       2.694   2.986  19.112  0.00  0.00    +0.000 N 
ATOM     15  C   UNL     1       3.257   1.890  18.222  0.00  0.00    +0.000 C 
ATOM     16  C   UNL     1       1.169   2.934  19.184  0.00  0.00    +0.000 C 
ATOM     17  C   UNL     1       0.850   3.643  20.485  0.00  0.00    +0.000 C 
ATOM     18  C   UNL     1       1.899   3.103  21.439  0.00  0.00    +0.000 C 
ATOM     19  C   UNL     1       3.113   2.737  20.589  0.00  0.00    +0.000 C 
ENDBRANCH  13  14
ENDBRANCH  12  13
ENDBRANCH   1  12
TORSDOF 5
ENDMDL
MODEL 4
REMARK VINA RESULT:      -6.4      1.656      2.297
REMARK  Name = 
REMARK  7 active torsions:
REMARK  status: ('A' for Active; 'I' for Inactive)
REMARK    1  A    between atoms: C_1  and  C_2
REMARK    2  A    between atoms: C_5  and  C_6
REMARK    3  A    between atoms: C_6  and  S_7
REMARK    4  A    between atoms: S_7  and  C_10
REMARK    5  A    between atoms: C_10  and  C_11
REMARK    6  A    between atoms: C_11  and  N_12
REMARK    7  A    between atoms: N_12  and  C_13
REMARK                            x       y       z     vdW  Elec       q    Type
REMARK                         _______ _______ _______ _____ _____    ______ ____
ROOT
ATOM      1  S   UNL     1       3.815   3.080  18.112  0.00  0.00    +0.000 S 
ATOM      2  O   UNL     1       4.510   3.591  19.277  0.00  0.00    +0.000 OA
ATOM      3  O   UNL     1       3.743   1.658  17.848  0.00  0.00    +0.000 OA
ENDROOT
BRANCH   1   4
ATOM      4  C   UNL     1       2.178   3.808  18.002  0.00  0.00    +0.000 C 
BRANCH   4   9
ATOM      5  C   UNL     1       1.527   8.592  21.286  0.00  0.00    +0.000 C 
ATOM      6  C   UNL     1       1.717   7.373  20.437  0.00  0.00    +0.000 A 
ATOM      7  C   UNL     1       2.226   7.444  19.138  0.00  0.00    +0.000 A 
ATOM      8  C   UNL     1       2.379   6.284  18.372  0.00  0.00    +0.000 A 
ATOM      9  C   UNL     1       2.037   5.021  18.891  0.00  0.00    +0.000 A 
ATOM     10  C   UNL     1       1.507   4.972  20.185  0.00  0.00    +0.000 A 
ATOM     11  C   UNL     1       1.360   6.126  20.952  0.00  0.00    +0.000 A 
ENDBRANCH   4   9
ENDBRANCH   1   4
BRANCH   1  12
ATOM     12  C   UNL     1       4.688   3.754  16.725  0.00  0.00    +0.000 C 
BRANCH  12  13
ATOM     13  C   UNL     1       5.302   5.070  17.189  0.00  0.00    +0.000 C 
BRANCH  13  14
ATOM     14  N   UNL     1       6.808   5.232  16.835  0.00  0.00    +0.000 N 
ATOM     15  C   UNL     1       7.080   4.692  15.440  0.00  0.00    +0.000 C 
ATOM     16  C   UNL     1       7.741   4.618  17.876  0.00  0.00    +0.000 C 
ATOM     17  C   UNL     1       7.740   5.637  18.998  0.00  0.00    +0.000 C 
ATOM     18  C   UNL     1       7.823   6.961  18.262  0.00  0.00    +0.000 C 
ATOM     19  C   UNL     1       7.172   6.742  16.899  0.00  0.00    +0.000 C 
ENDBRANCH  13  14
ENDBRANCH  12  13
ENDBRANCH   1  12
TORSDOF 5
ENDMDL
MODEL 5
REMARK VINA RESULT:      -6.4      3.297      6.237
REMARK  Name = 
REMARK  7 active torsions:
REMARK  status: ('A' for Active; 'I' for Inactive)
REMARK    1  A    between atoms: C_1  and  C_2
REMARK    2  A    between atoms: C_5  and  C_6
REMARK    3  A    between atoms: C_6  and  S_7
REMARK    4  A    between atoms: S_7  and  C_10
REMARK    5  A    between atoms: C_10  and  C_11
REMARK    6  A    between atoms: C_11  and  N_12
REMARK    7  A    between atoms: N_12  and  C_13
REMARK                            x       y       z     vdW  Elec       q    Type
REMARK                         _______ _______ _______ _____ _____    ______ ____
ROOT
ATOM      1  S   UNL     1       6.296   5.148  18.836  0.00  0.00    +0.000 S 
ATOM      2  O   UNL     1       6.399   3.763  18.422  0.00  0.00    +0.000 OA
ATOM      3  O   UNL     1       7.112   5.668  19.915  0.00  0.00    +0.000 OA
ENDROOT
BRANCH   1   4
ATOM      4  C   UNL     1       6.407   6.228  17.407  0.00  0.00    +0.000 C 
BRANCH   4   9
ATOM      5  C   UNL     1       5.994   3.376  12.329  0.00  0.00    +0.000 C 
ATOM      6  C   UNL     1       6.085   4.090  13.642  0.00  0.00    +0.000 A 
ATOM      7  C   UNL     1       4.968   4.304  14.452  0.00  0.00    +0.000 A 
ATOM      8  C   UNL     1       5.092   4.983  15.667  0.00  0.00    +0.000 A 
ATOM      9  C   UNL     1       6.341   5.458  16.109  0.00  0.00    +0.000 A 
ATOM     10  C   UNL     1       7.445   5.256  15.274  0.00  0.00    +0.000 A 
ATOM     11  C   UNL     1       7.325   4.573  14.066  0.00  0.00    +0.000 A 
ENDBRANCH   4   9
ENDBRANCH   1   4
BRANCH   1  12
ATOM     12  C   UNL     1       4.628   5.337  19.400  0.00  0.00    +0.000 C 
BRANCH  12  13
ATOM     13  C   UNL     1       3.939   3.992  19.193  0.00  0.00    +0.000 C 
BRANCH  13  14
ATOM     14  N   UNL     1       2.386   4.055  19.255  0.00  0.00    +0.000 N 
ATOM     15  C   UNL     1       1.832   4.632  17.963  0.00  0.00    +0.000 C 
ATOM     16  C   UNL     1       1.862   4.797  20.482  0.00  0.00    +0.000 C 
ATOM     17  C   UNL     1       2.016   3.787  21.601  0.00  0.00    +0.000 C 
ATOM     18  C   UNL     1       1.552   2.491  20.963  0.00  0.00    +0.000 C 
ATOM     19  C   UNL     1       1.841   2.615  19.469  0.00  0.00    +0.000 C 
ENDBRANCH  13  14
ENDBRANCH  12  13
ENDBRANCH   1  12
TORSDOF 5
ENDMDL
MODEL 6
REMARK VINA RESULT:      -6.3      0.167      1.115
REMARK  Name = 
REMARK  7 active torsions:
REMARK  status: ('A' for Active; 'I' for Inactive)
REMARK    1  A    between atoms: C_1  and  C_2
REMARK    2  A    between atoms: C_5  and  C_6
REMARK    3  A    between atoms: C_6  and  S_7
REMARK    4  A    between atoms: S_7  and  C_10
REMARK    5  A    between atoms: C_10  and  C_11
REMARK    6  A    between atoms: C_11  and  N_12
REMARK    7  A    between atoms: N_12  and  C_13
REMARK                            x       y       z     vdW  Elec       q    Type
REMARK                         _______ _______ _______ _____ _____    ______ ____
ROOT
ATOM      1  S   UNL     1       2.792   4.284  18.736  0.00  0.00    +0.000 S 
ATOM      2  O   UNL     1       3.164   3.072  19.439  0.00  0.00    +0.000 OA
ATOM      3  O   UNL     1       1.404   4.586  18.449  0.00  0.00    +0.000 OA
ENDROOT
BRANCH   1   4
ATOM      4  C   UNL     1       3.585   5.705  19.492  0.00  0.00    +0.000 C 
BRANCH   4   9
ATOM      5  C   UNL     1       0.371  10.502  18.624  0.00  0.00    +0.000 C 
ATOM      6  C   UNL     1       1.215   9.283  18.836  0.00  0.00    +0.000 A 
ATOM      7  C   UNL     1       2.022   8.753  17.827  0.00  0.00    +0.000 A 
ATOM      8  C   UNL     1       2.789   7.607  18.059  0.00  0.00    +0.000 A 
ATOM      9  C   UNL     1       2.775   6.967  19.313  0.00  0.00    +0.000 A 
ATOM     10  C   UNL     1       1.943   7.498  20.304  0.00  0.00    +0.000 A 
ATOM     11  C   UNL     1       1.183   8.644  20.077  0.00  0.00    +0.000 A 
ENDBRANCH   4   9
ENDBRANCH   1   4
BRANCH   1  12
ATOM     12  C   UNL     1       3.562   4.147  17.146  0.00  0.00    +0.000 C 
BRANCH  12  13
ATOM     13  C   UNL     1       5.017   3.766  17.394  0.00  0.00    +0.000 C 
BRANCH  13  14
ATOM     14  N   UNL     1       6.033   4.497  16.469  0.00  0.00    +0.000 N 
ATOM     15  C   UNL     1       6.115   3.798  15.122  0.00  0.00    +0.000 C 
ATOM     16  C   UNL     1       7.410   4.671  17.106  0.00  0.00    +0.000 C 
ATOM     17  C   UNL     1       7.216   5.830  18.062  0.00  0.00    +0.000 C 
ATOM     18  C   UNL     1       6.374   6.803  17.258  0.00  0.00    +0.000 C 
ATOM     19  C   UNL     1       5.559   5.965  16.276  0.00  0.00    +0.000 C 
ENDBRANCH  13  14
ENDBRANCH  12  13
ENDBRANCH   1  12
TORSDOF 5
ENDMDL
MODEL 7
REMARK VINA RESULT:      -6.3      3.356      6.092
REMARK  Name = 
REMARK  7 active torsions:
REMARK  status: ('A' for Active; 'I' for Inactive)
REMARK    1  A    between atoms: C_1  and  C_2
REMARK    2  A    between atoms: C_5  and  C_6
REMARK    3  A    between atoms: C_6  and  S_7
REMARK    4  A    between atoms: S_7  and  C_10
REMARK    5  A    between atoms: C_10  and  C_11
REMARK    6  A    between atoms: C_11  and  N_12
REMARK    7  A    between atoms: N_12  and  C_13
REMARK                            x       y       z     vdW  Elec       q    Type
REMARK                         _______ _______ _______ _____ _____    ______ ____
ROOT
ATOM      1  S   UNL     1       6.513   5.270  18.923  0.00  0.00    +0.000 S 
ATOM      2  O   UNL     1       6.710   3.901  18.488  0.00  0.00    +0.000 OA
ATOM      3  O   UNL     1       7.304   5.833  19.998  0.00  0.00    +0.000 OA
ENDROOT
BRANCH   1   4
ATOM      4  C   UNL     1       6.525   6.374  17.508  0.00  0.00    +0.000 C 
BRANCH   4   9
ATOM      5  C   UNL     1       5.793   3.385  12.546  0.00  0.00    +0.000 C 
ATOM      6  C   UNL     1       5.995   4.169  13.806  0.00  0.00    +0.000 A 
ATOM      7  C   UNL     1       7.247   4.659  14.185  0.00  0.00    +0.000 A 
ATOM      8  C   UNL     1       7.397   5.378  15.374  0.00  0.00    +0.000 A 
ATOM      9  C   UNL     1       6.295   5.634  16.212  0.00  0.00    +0.000 A 
ATOM     10  C   UNL     1       5.053   5.115  15.829  0.00  0.00    +0.000 A 
ATOM     11  C   UNL     1       4.900   4.404  14.640  0.00  0.00    +0.000 A 
ENDBRANCH   4   9
ENDBRANCH   1   4
BRANCH   1  12
ATOM     12  C   UNL     1       4.843   5.329  19.512  0.00  0.00    +0.000 C 
BRANCH  12  13
ATOM     13  C   UNL     1       4.355   3.887  19.597  0.00  0.00    +0.000 C 
BRANCH  13  14
ATOM     14  N   UNL     1       2.811   3.743  19.709  0.00  0.00    +0.000 N 
ATOM     15  C   UNL     1       2.360   4.005  21.136  0.00  0.00    +0.000 C 
ATOM     16  C   UNL     1       2.291   2.406  19.183  0.00  0.00    +0.000 C 
ATOM     17  C   UNL     1       2.318   2.582  17.678  0.00  0.00    +0.000 C 
ATOM     18  C   UNL     1       1.785   3.989  17.485  0.00  0.00    +0.000 C 
ATOM     19  C   UNL     1       2.147   4.768  18.746  0.00  0.00    +0.000 C 
ENDBRANCH  13  14
ENDBRANCH  12  13
ENDBRANCH   1  12
TORSDOF 5
ENDMDL
MODEL 8
REMARK VINA RESULT:      -6.2      3.437      6.358
REMARK  Name = 
REMARK  7 active torsions:
REMARK  status: ('A' for Active; 'I' for Inactive)
REMARK    1  A    between atoms: C_1  and  C_2
REMARK    2  A    between atoms: C_5  and  C_6
REMARK    3  A    between atoms: C_6  and  S_7
REMARK    4  A    between atoms: S_7  and  C_10
REMARK    5  A    between atoms: C_10  and  C_11
REMARK    6  A    between atoms: C_11  and  N_12
REMARK    7  A    between atoms: N_12  and  C_13
REMARK                            x       y       z     vdW  Elec       q    Type
REMARK                         _______ _______ _______ _____ _____    ______ ____
ROOT
ATOM      1  S   UNL     1       7.204   5.637  17.797  0.00  0.00    +0.000 S 
ATOM      2  O   UNL     1       7.891   4.424  17.399  0.00  0.00    +0.000 OA
ATOM      3  O   UNL     1       7.917   6.725  18.436  0.00  0.00    +0.000 OA
ENDROOT
BRANCH   1   4
ATOM      4  C   UNL     1       6.221   6.265  16.433  0.00  0.00    +0.000 C 
BRANCH   4   9
ATOM      5  C   UNL     1       6.235   2.803  11.731  0.00  0.00    +0.000 C 
ATOM      6  C   UNL     1       6.224   3.671  12.951  0.00  0.00    +0.000 A 
ATOM      7  C   UNL     1       5.168   3.656  13.865  0.00  0.00    +0.000 A 
ATOM      8  C   UNL     1       5.189   4.489  14.987  0.00  0.00    +0.000 A 
ATOM      9  C   UNL     1       6.274   5.352  15.230  0.00  0.00    +0.000 A 
ATOM     10  C   UNL     1       7.312   5.372  14.292  0.00  0.00    +0.000 A 
ATOM     11  C   UNL     1       7.296   4.537  13.176  0.00  0.00    +0.000 A 
ENDBRANCH   4   9
ENDBRANCH   1   4
BRANCH   1  12
ATOM     12  C   UNL     1       6.008   5.116  18.996  0.00  0.00    +0.000 C 
BRANCH  12  13
ATOM     13  C   UNL     1       4.649   5.603  18.502  0.00  0.00    +0.000 C 
BRANCH  13  14
ATOM     14  N   UNL     1       3.446   4.763  19.017  0.00  0.00    +0.000 N 
ATOM     15  C   UNL     1       2.813   5.436  20.224  0.00  0.00    +0.000 C 
ATOM     16  C   UNL     1       3.805   3.306  19.299  0.00  0.00    +0.000 C 
ATOM     17  C   UNL     1       3.849   2.677  17.921  0.00  0.00    +0.000 C 
ATOM     18  C   UNL     1       2.639   3.275  17.230  0.00  0.00    +0.000 C 
ATOM     19  C   UNL     1       2.402   4.640  17.871  0.00  0.00    +0.000 C 
ENDBRANCH  13  14
ENDBRANCH  12  13
ENDBRANCH   1  12
TORSDOF 5
ENDMDL
MODEL 9
REMARK VINA RESULT:      -6.2      3.481      6.354
REMARK  Name = 
REMARK  7 active torsions:
REMARK  status: ('A' for Active; 'I' for Inactive)
REMARK    1  A    between atoms: C_1  and  C_2
REMARK    2  A    between atoms: C_5  and  C_6
REMARK    3  A    between atoms: C_6  and  S_7
REMARK    4  A    between atoms: S_7  and  C_10
REMARK    5  A    between atoms: C_10  and  C_11
REMARK    6  A    between atoms: C_11  and  N_12
REMARK    7  A    between atoms: N_12  and  C_13
REMARK                            x       y       z     vdW  Elec       q    Type
REMARK                         _______ _______ _______ _____ _____    ______ ____
ROOT
ATOM      1  S   UNL     1       7.207   5.551  17.999  0.00  0.00    +0.000 S 
ATOM      2  O   UNL     1       7.888   4.367  17.510  0.00  0.00    +0.000 OA
ATOM      3  O   UNL     1       7.916   6.560  18.760  0.00  0.00    +0.000 OA
ENDROOT
BRANCH   1   4
ATOM      4  C   UNL     1       6.281   6.322  16.669  0.00  0.00    +0.000 C 
BRANCH   4   9
ATOM      5  C   UNL     1       6.357   2.935  11.914  0.00  0.00    +0.000 C 
ATOM      6  C   UNL     1       6.343   3.823  13.119  0.00  0.00    +0.000 A 
ATOM      7  C   UNL     1       7.353   4.756  13.367  0.00  0.00    +0.000 A 
ATOM      8  C   UNL     1       7.311   5.561  14.509  0.00  0.00    +0.000 A 
ATOM      9  C   UNL     1       6.250   5.461  15.428  0.00  0.00    +0.000 A 
ATOM     10  C   UNL     1       5.259   4.505  15.176  0.00  0.00    +0.000 A 
ATOM     11  C   UNL     1       5.296   3.707  14.035  0.00  0.00    +0.000 A 
ENDBRANCH   4   9
ENDBRANCH   1   4
BRANCH   1  12
ATOM     12  C   UNL     1       5.964   4.942  19.104  0.00  0.00    +0.000 C 
BRANCH  12  13
ATOM     13  C   UNL     1       4.624   5.451  18.582  0.00  0.00    +0.000 C 
BRANCH  13  14
ATOM     14  N   UNL     1       3.396   4.634  19.076  0.00  0.00    +0.000 N 
ATOM     15  C   UNL     1       2.801   5.277  20.318  0.00  0.00    +0.000 C 
ATOM     16  C   UNL     1       3.705   3.154  19.292  0.00  0.00    +0.000 C 
ATOM     17  C   UNL     1       3.710   2.583  17.888  0.00  0.00    +0.000 C 
ATOM     18  C   UNL     1       2.516   3.254  17.238  0.00  0.00    +0.000 C 
ATOM     19  C   UNL     1       2.337   4.598  17.939  0.00  0.00    +0.000 C 
ENDBRANCH  13  14
ENDBRANCH  12  13
ENDBRANCH   1  12
TORSDOF 5
ENDMDL
