MODEL 1
REMARK VINA RESULT:      -7.8      0.000      0.000
REMARK  Name = 
REMARK  5 active torsions:
REMARK  status: ('A' for Active; 'I' for Inactive)
REMARK    1  A    between atoms: C_1  and  O_2
REMARK    2  A    between atoms: O_2  and  C_3
REMARK    3  A    between atoms: C_8  and  C_9
REMARK    4  A    between atoms: C_9  and  C_11
REMARK    5  A    between atoms: C_16  and  C_18
REMARK                            x       y       z     vdW  Elec       q    Type
REMARK                         _______ _______ _______ _____ _____    ______ ____
ROOT
ATOM      1  C   UNL     1       0.914   9.687  21.078  0.00  0.00    +0.000 C 
ATOM      2  O   UNL     1       1.635  10.167  21.948  0.00  0.00    +0.000 OA
ENDROOT
BRANCH   1   8
ATOM      3  C   UNL     1       3.090   3.888  18.884  0.00  0.00    +0.000 A 
ATOM      4  C   UNL     1       2.491   3.706  20.129  0.00  0.00    +0.000 A 
ATOM      5  C   UNL     1       1.893   4.793  20.789  0.00  0.00    +0.000 A 
ATOM      6  C   UNL     1       1.890   6.078  20.221  0.00  0.00    +0.000 A 
ATOM      7  C   UNL     1       1.358   7.211  20.888  0.00  0.00    +0.000 A 
ATOM      8  C   UNL     1       1.394   8.489  20.297  0.00  0.00    +0.000 A 
ATOM      9  C   UNL     1       1.934   8.611  19.011  0.00  0.00    +0.000 A 
ATOM     10  C   UNL     1       2.458   7.503  18.343  0.00  0.00    +0.000 A 
ATOM     11  C   UNL     1       2.466   6.243  18.945  0.00  0.00    +0.000 A 
ATOM     12  C   UNL     1       3.066   5.152  18.297  0.00  0.00    +0.000 A 
BRANCH   3  14
ATOM     13  C   UNL     1       3.469   1.583  18.479  0.00  0.00    +0.000 C 
ATOM     14  O   UNL     1       3.764   2.937  18.167  0.00  0.00    +0.000 OA
ENDBRANCH   3  14
ENDBRANCH   1   8
BRANCH   1  15
ATOM     15  C   UNL     1      -0.479  10.267  20.759  0.00  0.00    +0.000 C 
ATOM     16  C   UNL     1      -0.983   9.964  19.341  0.00  0.00    +0.000 C 
ATOM     17  C   UNL     1      -0.582  10.968  18.273  0.00  0.00    +0.000 C 
ATOM     18  C   UNL     1      -0.528  12.415  18.737  0.00  0.00    +0.000 C 
ATOM     19  N   UNL     1       0.074  12.586  20.056  0.00  0.00    +0.000 N 
ATOM     20  C   UNL     1       1.076  13.495  20.435  0.00  0.00    +0.000 C 
ATOM     21  O   UNL     1       1.461  13.582  21.599  0.00  0.00    +0.000 OA
ATOM     22  C   UNL     1      -0.521  11.754  21.099  0.00  0.00    +0.000 C 
BRANCH  20  23
ATOM     23  C   UNL     1       1.773  14.354  19.445  0.00  0.00    +0.000 A 
ATOM     24  C   UNL     1       2.862  13.974  18.663  0.00  0.00    +0.000 A 
ATOM     25  C   UNL     1       3.532  14.927  17.898  0.00  0.00    +0.000 A 
ATOM     26  C   UNL     1       3.020  16.214  17.852  0.00  0.00    +0.000 A 
ATOM     27  N   UNL     1       1.892  16.589  18.488  0.00  0.00    +0.000 NA
ATOM     28  C   UNL     1       1.294  15.650  19.269  0.00  0.00    +0.000 A 
ENDBRANCH  20  23
ENDBRANCH   1  15
TORSDOF 4
ENDMDL
MODEL 2
REMARK VINA RESULT:      -7.8      1.211      2.021
REMARK  Name = 
REMARK  5 active torsions:
REMARK  status: ('A' for Active; 'I' for Inactive)
REMARK    1  A    between atoms: C_1  and  O_2
REMARK    2  A    between atoms: O_2  and  C_3
REMARK    3  A    between atoms: C_8  and  C_9
REMARK    4  A    between atoms: C_9  and  C_11
REMARK    5  A    between atoms: C_16  and  C_18
REMARK                            x       y       z     vdW  Elec       q    Type
REMARK                         _______ _______ _______ _____ _____    ______ ____
ROOT
ATOM      1  C   UNL     1       1.209   9.831  18.856  0.00  0.00    +0.000 C 
ATOM      2  O   UNL     1       1.806  10.618  18.128  0.00  0.00    +0.000 OA
ENDROOT
BRANCH   1   8
ATOM      3  C   UNL     1       3.979   3.874  18.754  0.00  0.00    +0.000 A 
ATOM      4  C   UNL     1       4.325   4.556  17.589  0.00  0.00    +0.000 A 
ATOM      5  C   UNL     1       3.900   5.880  17.394  0.00  0.00    +0.000 A 
ATOM      6  C   UNL     1       3.118   6.544  18.355  0.00  0.00    +0.000 A 
ATOM      7  C   UNL     1       2.614   7.855  18.163  0.00  0.00    +0.000 A 
ATOM      8  C   UNL     1       1.813   8.479  19.139  0.00  0.00    +0.000 A 
ATOM      9  C   UNL     1       1.556   7.787  20.330  0.00  0.00    +0.000 A 
ATOM     10  C   UNL     1       2.049   6.496  20.531  0.00  0.00    +0.000 A 
ATOM     11  C   UNL     1       2.805   5.858  19.547  0.00  0.00    +0.000 A 
ATOM     12  C   UNL     1       3.229   4.532  19.728  0.00  0.00    +0.000 A 
BRANCH   3  14
ATOM     13  C   UNL     1       3.428   1.590  18.438  0.00  0.00    +0.000 C 
ATOM     14  O   UNL     1       4.266   2.567  19.039  0.00  0.00    +0.000 OA
ENDBRANCH   3  14
ENDBRANCH   1   8
BRANCH   1  15
ATOM     15  C   UNL     1      -0.148  10.185  19.502  0.00  0.00    +0.000 C 
ATOM     16  C   UNL     1      -1.254  10.539  18.499  0.00  0.00    +0.000 C 
ATOM     17  C   UNL     1      -1.332  12.003  18.097  0.00  0.00    +0.000 C 
ATOM     18  C   UNL     1      -1.002  12.993  19.204  0.00  0.00    +0.000 C 
ATOM     19  N   UNL     1       0.140  12.598  20.022  0.00  0.00    +0.000 N 
ATOM     20  C   UNL     1       1.248  13.380  20.389  0.00  0.00    +0.000 C 
ATOM     21  O   UNL     1       2.124  12.948  21.136  0.00  0.00    +0.000 OA
ATOM     22  C   UNL     1       0.043  11.251  20.577  0.00  0.00    +0.000 C 
BRANCH  20  23
ATOM     23  C   UNL     1       1.462  14.746  19.847  0.00  0.00    +0.000 A 
ATOM     24  C   UNL     1       0.886  15.914  20.340  0.00  0.00    +0.000 A 
ATOM     25  C   UNL     1       1.032  17.109  19.636  0.00  0.00    +0.000 A 
ATOM     26  C   UNL     1       1.846  17.119  18.516  0.00  0.00    +0.000 A 
ATOM     27  N   UNL     1       2.528  16.040  18.083  0.00  0.00    +0.000 NA
ATOM     28  C   UNL     1       2.321  14.877  18.759  0.00  0.00    +0.000 A 
ENDBRANCH  20  23
ENDBRANCH   1  15
TORSDOF 4
ENDMDL
MODEL 3
REMARK VINA RESULT:      -7.6      1.291      1.505
REMARK  Name = 
REMARK  5 active torsions:
REMARK  status: ('A' for Active; 'I' for Inactive)
REMARK    1  A    between atoms: C_1  and  O_2
REMARK    2  A    between atoms: O_2  and  C_3
REMARK    3  A    between atoms: C_8  and  C_9
REMARK    4  A    between atoms: C_9  and  C_11
REMARK    5  A    between atoms: C_16  and  C_18
REMARK                            x       y       z     vdW  Elec       q    Type
REMARK                         _______ _______ _______ _____ _____    ______ ____
ROOT
ATOM      1  C   UNL     1       1.494   9.906  18.723  0.00  0.00    +0.000 C 
ATOM      2  O   UNL     1       2.129  10.815  18.200  0.00  0.00    +0.000 OA
ENDROOT
BRANCH   1   8
ATOM      3  C   UNL     1       3.461   3.713  19.699  0.00  0.00    +0.000 A 
ATOM      4  C   UNL     1       2.515   4.047  20.667  0.00  0.00    +0.000 A 
ATOM      5  C   UNL     1       1.895   5.307  20.642  0.00  0.00    +0.000 A 
ATOM      6  C   UNL     1       2.214   6.256  19.656  0.00  0.00    +0.000 A 
ATOM      7  C   UNL     1       1.660   7.562  19.640  0.00  0.00    +0.000 A 
ATOM      8  C   UNL     1       2.022   8.495  18.649  0.00  0.00    +0.000 A 
ATOM      9  C   UNL     1       2.916   8.090  17.649  0.00  0.00    +0.000 A 
ATOM     10  C   UNL     1       3.465   6.807  17.653  0.00  0.00    +0.000 A 
ATOM     11  C   UNL     1       3.144   5.895  18.660  0.00  0.00    +0.000 A 
ATOM     12  C   UNL     1       3.762   4.635  18.698  0.00  0.00    +0.000 A 
BRANCH   3  14
ATOM     13  C   UNL     1       3.709   1.549  18.763  0.00  0.00    +0.000 C 
ATOM     14  O   UNL     1       4.186   2.554  19.647  0.00  0.00    +0.000 OA
ENDBRANCH   3  14
ENDBRANCH   1   8
BRANCH   1  15
ATOM     15  C   UNL     1       0.165  10.159  19.466  0.00  0.00    +0.000 C 
ATOM     16  C   UNL     1      -1.025  10.473  18.549  0.00  0.00    +0.000 C 
ATOM     17  C   UNL     1      -1.214  11.940  18.199  0.00  0.00    +0.000 C 
ATOM     18  C   UNL     1      -0.870  12.918  19.312  0.00  0.00    +0.000 C 
ATOM     19  N   UNL     1       0.346  12.570  20.042  0.00  0.00    +0.000 N 
ATOM     20  C   UNL     1       1.428  13.407  20.361  0.00  0.00    +0.000 C 
ATOM     21  O   UNL     1       2.376  13.008  21.036  0.00  0.00    +0.000 OA
ATOM     22  C   UNL     1       0.365  11.205  20.560  0.00  0.00    +0.000 C 
BRANCH  20  23
ATOM     23  C   UNL     1       1.525  14.797  19.849  0.00  0.00    +0.000 A 
ATOM     24  C   UNL     1       2.008  15.170  18.597  0.00  0.00    +0.000 A 
ATOM     25  C   UNL     1       2.206  16.518  18.303  0.00  0.00    +0.000 A 
ATOM     26  C   UNL     1       1.807  17.461  19.236  0.00  0.00    +0.000 A 
ATOM     27  N   UNL     1       1.212  17.146  20.404  0.00  0.00    +0.000 NA
ATOM     28  C   UNL     1       1.084  15.820  20.683  0.00  0.00    +0.000 A 
ENDBRANCH  20  23
ENDBRANCH   1  15
TORSDOF 4
ENDMDL
MODEL 4
REMARK VINA RESULT:      -7.6      2.944      4.440
REMARK  Name = 
REMARK  5 active torsions:
REMARK  status: ('A' for Active; 'I' for Inactive)
REMARK    1  A    between atoms: C_1  and  O_2
REMARK    2  A    between atoms: O_2  and  C_3
REMARK    3  A    between atoms: C_8  and  C_9
REMARK    4  A    between atoms: C_9  and  C_11
REMARK    5  A    between atoms: C_16  and  C_18
REMARK                            x       y       z     vdW  Elec       q    Type
REMARK                         _______ _______ _______ _____ _____    ______ ____
ROOT
ATOM      1  C   UNL     1       0.595   9.602  19.905  0.00  0.00    +0.000 C 
ATOM      2  O   UNL     1      -0.497   9.846  19.402  0.00  0.00    +0.000 OA
ENDROOT
BRANCH   1   8
ATOM      3  C   UNL     1       4.906   4.987  18.090  0.00  0.00    +0.000 A 
ATOM      4  C   UNL     1       4.328   4.617  19.302  0.00  0.00    +0.000 A 
ATOM      5  C   UNL     1       3.326   5.415  19.879  0.00  0.00    +0.000 A 
ATOM      6  C   UNL     1       2.890   6.598  19.259  0.00  0.00    +0.000 A 
ATOM      7  C   UNL     1       1.932   7.464  19.845  0.00  0.00    +0.000 A 
ATOM      8  C   UNL     1       1.537   8.655  19.205  0.00  0.00    +0.000 A 
ATOM      9  C   UNL     1       2.086   8.948  17.950  0.00  0.00    +0.000 A 
ATOM     10  C   UNL     1       3.028   8.102  17.362  0.00  0.00    +0.000 A 
ATOM     11  C   UNL     1       3.456   6.945  18.015  0.00  0.00    +0.000 A 
ATOM     12  C   UNL     1       4.460   6.143  17.450  0.00  0.00    +0.000 A 
BRANCH   3  14
ATOM     13  C   UNL     1       7.248   4.763  17.791  0.00  0.00    +0.000 C 
ATOM     14  O   UNL     1       5.933   4.342  17.456  0.00  0.00    +0.000 OA
ENDBRANCH   3  14
ENDBRANCH   1   8
BRANCH   1  15
ATOM     15  C   UNL     1       1.043  10.240  21.236  0.00  0.00    +0.000 C 
ATOM     16  C   UNL     1       0.647   9.443  22.487  0.00  0.00    +0.000 C 
ATOM     17  C   UNL     1      -0.721   9.767  23.065  0.00  0.00    +0.000 C 
ATOM     18  C   UNL     1      -1.133  11.228  22.967  0.00  0.00    +0.000 C 
ATOM     19  N   UNL     1      -0.800  11.846  21.687  0.00  0.00    +0.000 N 
ATOM     20  C   UNL     1      -1.635  12.612  20.857  0.00  0.00    +0.000 C 
ATOM     21  O   UNL     1      -1.217  13.131  19.823  0.00  0.00    +0.000 OA
ATOM     22  C   UNL     1       0.600  11.699  21.296  0.00  0.00    +0.000 C 
BRANCH  20  23
ATOM     23  C   UNL     1      -3.081  12.787  21.142  0.00  0.00    +0.000 A 
ATOM     24  C   UNL     1      -3.621  13.299  22.320  0.00  0.00    +0.000 A 
ATOM     25  C   UNL     1      -4.999  13.252  22.529  0.00  0.00    +0.000 A 
ATOM     26  C   UNL     1      -5.805  12.793  21.501  0.00  0.00    +0.000 A 
ATOM     27  N   UNL     1      -5.333  12.415  20.297  0.00  0.00    +0.000 NA
ATOM     28  C   UNL     1      -3.981  12.422  20.145  0.00  0.00    +0.000 A 
ENDBRANCH  20  23
ENDBRANCH   1  15
TORSDOF 4
ENDMDL
MODEL 5
REMARK VINA RESULT:      -7.5      3.097      4.257
REMARK  Name = 
REMARK  5 active torsions:
REMARK  status: ('A' for Active; 'I' for Inactive)
REMARK    1  A    between atoms: C_1  and  O_2
REMARK    2  A    between atoms: O_2  and  C_3
REMARK    3  A    between atoms: C_8  and  C_9
REMARK    4  A    between atoms: C_9  and  C_11
REMARK    5  A    between atoms: C_16  and  C_18
REMARK                            x       y       z     vdW  Elec       q    Type
REMARK                         _______ _______ _______ _____ _____    ______ ____
ROOT
ATOM      1  C   UNL     1       0.725   8.268  20.993  0.00  0.00    +0.000 C 
ATOM      2  O   UNL     1      -0.315   7.652  21.201  0.00  0.00    +0.000 OA
ENDROOT
BRANCH   1   8
ATOM      3  C   UNL     1       5.241   5.520  17.090  0.00  0.00    +0.000 A 
ATOM      4  C   UNL     1       4.989   4.668  18.163  0.00  0.00    +0.000 A 
ATOM      5  C   UNL     1       4.015   5.003  19.117  0.00  0.00    +0.000 A 
ATOM      6  C   UNL     1       3.281   6.198  19.020  0.00  0.00    +0.000 A 
ATOM      7  C   UNL     1       2.339   6.604  20.000  0.00  0.00    +0.000 A 
ATOM      8  C   UNL     1       1.640   7.821  19.881  0.00  0.00    +0.000 A 
ATOM      9  C   UNL     1       1.867   8.609  18.745  0.00  0.00    +0.000 A 
ATOM     10  C   UNL     1       2.790   8.219  17.772  0.00  0.00    +0.000 A 
ATOM     11  C   UNL     1       3.518   7.036  17.911  0.00  0.00    +0.000 A 
ATOM     12  C   UNL     1       4.498   6.694  16.966  0.00  0.00    +0.000 A 
BRANCH   3  14
ATOM     13  C   UNL     1       6.323   4.046  15.581  0.00  0.00    +0.000 C 
ATOM     14  O   UNL     1       6.204   5.349  16.133  0.00  0.00    +0.000 OA
ENDBRANCH   3  14
ENDBRANCH   1   8
BRANCH   1  15
ATOM     15  C   UNL     1       1.129   9.497  21.833  0.00  0.00    +0.000 C 
ATOM     16  C   UNL     1       0.444   9.581  23.204  0.00  0.00    +0.000 C 
ATOM     17  C   UNL     1      -0.894  10.301  23.227  0.00  0.00    +0.000 C 
ATOM     18  C   UNL     1      -1.004  11.486  22.280  0.00  0.00    +0.000 C 
ATOM     19  N   UNL     1      -0.413  11.244  20.967  0.00  0.00    +0.000 N 
ATOM     20  C   UNL     1      -0.983  11.488  19.707  0.00  0.00    +0.000 C 
ATOM     21  O   UNL     1      -0.357  11.295  18.666  0.00  0.00    +0.000 OA
ATOM     22  C   UNL     1       0.969  10.773  21.010  0.00  0.00    +0.000 C 
BRANCH  20  23
ATOM     23  C   UNL     1      -2.393  11.928  19.553  0.00  0.00    +0.000 A 
ATOM     24  C   UNL     1      -3.081  12.769  20.426  0.00  0.00    +0.000 A 
ATOM     25  C   UNL     1      -4.451  12.968  20.260  0.00  0.00    +0.000 A 
ATOM     26  C   UNL     1      -5.069  12.406  19.156  0.00  0.00    +0.000 A 
ATOM     27  N   UNL     1      -4.413  11.697  18.216  0.00  0.00    +0.000 NA
ATOM     28  C   UNL     1      -3.089  11.476  18.436  0.00  0.00    +0.000 A 
ENDBRANCH  20  23
ENDBRANCH   1  15
TORSDOF 4
ENDMDL
MODEL 6
REMARK VINA RESULT:      -7.4      2.771      3.958
REMARK  Name = 
REMARK  5 active torsions:
REMARK  status: ('A' for Active; 'I' for Inactive)
REMARK    1  A    between atoms: C_1  and  O_2
REMARK    2  A    between atoms: O_2  and  C_3
REMARK    3  A    between atoms: C_8  and  C_9
REMARK    4  A    between atoms: C_9  and  C_11
REMARK    5  A    between atoms: C_16  and  C_18
REMARK                            x       y       z     vdW  Elec       q    Type
REMARK                         _______ _______ _______ _____ _____    ______ ____
ROOT
ATOM      1  C   UNL     1       0.379   9.690  20.072  0.00  0.00    +0.000 C 
ATOM      2  O   UNL     1      -0.741   9.893  19.615  0.00  0.00    +0.000 OA
ENDROOT
BRANCH   1   8
ATOM      3  C   UNL     1       4.640   5.040  18.230  0.00  0.00    +0.000 A 
ATOM      4  C   UNL     1       4.086   4.687  19.458  0.00  0.00    +0.000 A 
ATOM      5  C   UNL     1       3.099   5.495  20.045  0.00  0.00    +0.000 A 
ATOM      6  C   UNL     1       2.653   6.672  19.419  0.00  0.00    +0.000 A 
ATOM      7  C   UNL     1       1.709   7.548  20.012  0.00  0.00    +0.000 A 
ATOM      8  C   UNL     1       1.304   8.731  19.365  0.00  0.00    +0.000 A 
ATOM      9  C   UNL     1       1.827   9.006  18.095  0.00  0.00    +0.000 A 
ATOM     10  C   UNL     1       2.755   8.150  17.499  0.00  0.00    +0.000 A 
ATOM     11  C   UNL     1       3.193   7.000  18.158  0.00  0.00    +0.000 A 
ATOM     12  C   UNL     1       4.184   6.188  17.584  0.00  0.00    +0.000 A 
BRANCH   3  14
ATOM     13  C   UNL     1       5.490   4.195  16.184  0.00  0.00    +0.000 C 
ATOM     14  O   UNL     1       5.652   4.384  17.583  0.00  0.00    +0.000 OA
ENDBRANCH   3  14
ENDBRANCH   1   8
BRANCH   1  15
ATOM     15  C   UNL     1       0.879  10.391  21.351  0.00  0.00    +0.000 C 
ATOM     16  C   UNL     1       0.306   9.817  22.655  0.00  0.00    +0.000 C 
ATOM     17  C   UNL     1      -1.006  10.426  23.119  0.00  0.00    +0.000 C 
ATOM     18  C   UNL     1      -1.160  11.914  22.845  0.00  0.00    +0.000 C 
ATOM     19  N   UNL     1      -0.679  12.320  21.527  0.00  0.00    +0.000 N 
ATOM     20  C   UNL     1      -1.340  13.115  20.577  0.00  0.00    +0.000 C 
ATOM     21  O   UNL     1      -0.802  13.438  19.519  0.00  0.00    +0.000 OA
ATOM     22  C   UNL     1       0.689  11.901  21.233  0.00  0.00    +0.000 C 
BRANCH  20  23
ATOM     23  C   UNL     1      -2.745  13.557  20.761  0.00  0.00    +0.000 A 
ATOM     24  C   UNL     1      -3.879  12.797  20.482  0.00  0.00    +0.000 A 
ATOM     25  C   UNL     1      -5.141  13.388  20.537  0.00  0.00    +0.000 A 
ATOM     26  C   UNL     1      -5.236  14.697  20.980  0.00  0.00    +0.000 A 
ATOM     27  N   UNL     1      -4.176  15.424  21.387  0.00  0.00    +0.000 NA
ATOM     28  C   UNL     1      -2.955  14.836  21.269  0.00  0.00    +0.000 A 
ENDBRANCH  20  23
ENDBRANCH   1  15
TORSDOF 4
ENDMDL
MODEL 7
REMARK VINA RESULT:      -7.4      1.012      1.381
REMARK  Name = 
REMARK  5 active torsions:
REMARK  status: ('A' for Active; 'I' for Inactive)
REMARK    1  A    between atoms: C_1  and  O_2
REMARK    2  A    between atoms: O_2  and  C_3
REMARK    3  A    between atoms: C_8  and  C_9
REMARK    4  A    between atoms: C_9  and  C_11
REMARK    5  A    between atoms: C_16  and  C_18
REMARK                            x       y       z     vdW  Elec       q    Type
REMARK                         _______ _______ _______ _____ _____    ______ ____
ROOT
ATOM      1  C   UNL     1       0.760  10.035  20.792  0.00  0.00    +0.000 C 
ATOM      2  O   UNL     1       1.458  10.580  21.641  0.00  0.00    +0.000 OA
ENDROOT
BRANCH   1   8
ATOM      3  C   UNL     1       3.515   4.563  18.417  0.00  0.00    +0.000 A 
ATOM      4  C   UNL     1       3.036   4.310  19.701  0.00  0.00    +0.000 A 
ATOM      5  C   UNL     1       2.350   5.311  20.408  0.00  0.00    +0.000 A 
ATOM      6  C   UNL     1       2.136   6.583  19.848  0.00  0.00    +0.000 A 
ATOM      7  C   UNL     1       1.510   7.639  20.558  0.00  0.00    +0.000 A 
ATOM      8  C   UNL     1       1.335   8.908  19.972  0.00  0.00    +0.000 A 
ATOM      9  C   UNL     1       1.761   9.095  18.651  0.00  0.00    +0.000 A 
ATOM     10  C   UNL     1       2.377   8.062  17.942  0.00  0.00    +0.000 A 
ATOM     11  C   UNL     1       2.593   6.816  18.535  0.00  0.00    +0.000 A 
ATOM     12  C   UNL     1       3.283   5.811  17.839  0.00  0.00    +0.000 A 
BRANCH   3  14
ATOM     13  C   UNL     1       5.421   4.246  17.043  0.00  0.00    +0.000 C 
ATOM     14  O   UNL     1       4.254   3.706  17.649  0.00  0.00    +0.000 OA
ENDBRANCH   3  14
ENDBRANCH   1   8
BRANCH   1  15
ATOM     15  C   UNL     1      -0.701  10.463  20.537  0.00  0.00    +0.000 C 
ATOM     16  C   UNL     1      -1.159  10.318  19.079  0.00  0.00    +0.000 C 
ATOM     17  C   UNL     1      -0.899  11.521  18.187  0.00  0.00    +0.000 C 
ATOM     18  C   UNL     1      -1.044  12.873  18.868  0.00  0.00    +0.000 C 
ATOM     19  N   UNL     1      -0.471  12.917  20.210  0.00  0.00    +0.000 N 
ATOM     20  C   UNL     1       0.397  13.883  20.745  0.00  0.00    +0.000 C 
ATOM     21  O   UNL     1       0.768  13.841  21.917  0.00  0.00    +0.000 OA
ATOM     22  C   UNL     1      -0.945  11.861  21.100  0.00  0.00    +0.000 C 
BRANCH  20  23
ATOM     23  C   UNL     1       0.970  14.972  19.914  0.00  0.00    +0.000 A 
ATOM     24  C   UNL     1       0.373  16.208  19.672  0.00  0.00    +0.000 A 
ATOM     25  C   UNL     1       0.934  17.077  18.736  0.00  0.00    +0.000 A 
ATOM     26  C   UNL     1       2.140  16.726  18.152  0.00  0.00    +0.000 A 
ATOM     27  N   UNL     1       2.817  15.602  18.459  0.00  0.00    +0.000 NA
ATOM     28  C   UNL     1       2.216  14.751  19.335  0.00  0.00    +0.000 A 
ENDBRANCH  20  23
ENDBRANCH   1  15
TORSDOF 4
ENDMDL
MODEL 8
REMARK VINA RESULT:      -7.3      2.685      4.558
REMARK  Name = 
REMARK  5 active torsions:
REMARK  status: ('A' for Active; 'I' for Inactive)
REMARK    1  A    between atoms: C_1  and  O_2
REMARK    2  A    between atoms: O_2  and  C_3
REMARK    3  A    between atoms: C_8  and  C_9
REMARK    4  A    between atoms: C_9  and  C_11
REMARK    5  A    between atoms: C_16  and  C_18
REMARK                            x       y       z     vdW  Elec       q    Type
REMARK                         _______ _______ _______ _____ _____    ______ ____
ROOT
ATOM      1  C   UNL     1      -0.190  10.477  18.785  0.00  0.00    +0.000 C 
ATOM      2  O   UNL     1      -1.379  10.204  18.651  0.00  0.00    +0.000 OA
ENDROOT
BRANCH   1   8
ATOM      3  C   UNL     1       4.166   5.559  18.745  0.00  0.00    +0.000 A 
ATOM      4  C   UNL     1       4.229   6.230  17.526  0.00  0.00    +0.000 A 
ATOM      5  C   UNL     1       3.429   7.364  17.303  0.00  0.00    +0.000 A 
ATOM      6  C   UNL     1       2.550   7.841  18.291  0.00  0.00    +0.000 A 
ATOM      7  C   UNL     1       1.679   8.940  18.077  0.00  0.00    +0.000 A 
ATOM      8  C   UNL     1       0.794   9.375  19.083  0.00  0.00    +0.000 A 
ATOM      9  C   UNL     1       0.821   8.720  20.321  0.00  0.00    +0.000 A 
ATOM     10  C   UNL     1       1.677   7.639  20.544  0.00  0.00    +0.000 A 
ATOM     11  C   UNL     1       2.522   7.176  19.534  0.00  0.00    +0.000 A 
ATOM     12  C   UNL     1       3.321   6.041  19.744  0.00  0.00    +0.000 A 
BRANCH   3  14
ATOM     13  C   UNL     1       4.039   3.318  19.510  0.00  0.00    +0.000 C 
ATOM     14  O   UNL     1       4.835   4.409  19.068  0.00  0.00    +0.000 OA
ENDBRANCH   3  14
ENDBRANCH   1   8
BRANCH   1  15
ATOM     15  C   UNL     1       0.336  11.922  18.651  0.00  0.00    +0.000 C 
ATOM     16  C   UNL     1       1.493  12.265  19.601  0.00  0.00    +0.000 C 
ATOM     17  C   UNL     1       1.086  12.792  20.967  0.00  0.00    +0.000 C 
ATOM     18  C   UNL     1      -0.155  13.672  20.976  0.00  0.00    +0.000 C 
ATOM     19  N   UNL     1      -1.228  13.180  20.117  0.00  0.00    +0.000 N 
ATOM     20  C   UNL     1      -2.586  13.020  20.440  0.00  0.00    +0.000 C 
ATOM     21  O   UNL     1      -3.409  12.649  19.606  0.00  0.00    +0.000 OA
ATOM     22  C   UNL     1      -0.820  12.914  18.740  0.00  0.00    +0.000 C 
BRANCH  20  23
ATOM     23  C   UNL     1      -3.095  13.224  21.820  0.00  0.00    +0.000 A 
ATOM     24  C   UNL     1      -3.045  12.289  22.851  0.00  0.00    +0.000 A 
ATOM     25  C   UNL     1      -3.710  12.542  24.050  0.00  0.00    +0.000 A 
ATOM     26  C   UNL     1      -4.314  13.777  24.220  0.00  0.00    +0.000 A 
ATOM     27  N   UNL     1      -4.270  14.760  23.298  0.00  0.00    +0.000 NA
ATOM     28  C   UNL     1      -3.660  14.461  22.119  0.00  0.00    +0.000 A 
ENDBRANCH  20  23
ENDBRANCH   1  15
TORSDOF 4
ENDMDL
MODEL 9
REMARK VINA RESULT:      -7.3      2.646      4.519
REMARK  Name = 
REMARK  5 active torsions:
REMARK  status: ('A' for Active; 'I' for Inactive)
REMARK    1  A    between atoms: C_1  and  O_2
REMARK    2  A    between atoms: O_2  and  C_3
REMARK    3  A    between atoms: C_8  and  C_9
REMARK    4  A    between atoms: C_9  and  C_11
REMARK    5  A    between atoms: C_16  and  C_18
REMARK                            x       y       z     vdW  Elec       q    Type
REMARK                         _______ _______ _______ _____ _____    ______ ____
ROOT
ATOM      1  C   UNL     1       0.677   9.725  20.330  0.00  0.00    +0.000 C 
ATOM      2  O   UNL     1      -0.241   9.830  21.137  0.00  0.00    +0.000 OA
ENDROOT
BRANCH   1   8
ATOM      3  C   UNL     1       3.739   4.293  18.260  0.00  0.00    +0.000 A 
ATOM      4  C   UNL     1       4.019   5.335  17.379  0.00  0.00    +0.000 A 
ATOM      5  C   UNL     1       3.524   6.625  17.632  0.00  0.00    +0.000 A 
ATOM      6  C   UNL     1       2.735   6.894  18.765  0.00  0.00    +0.000 A 
ATOM      7  C   UNL     1       2.161   8.165  19.017  0.00  0.00    +0.000 A 
ATOM      8  C   UNL     1       1.356   8.391  20.150  0.00  0.00    +0.000 A 
ATOM      9  C   UNL     1       1.166   7.335  21.051  0.00  0.00    +0.000 A 
ATOM     10  C   UNL     1       1.728   6.079  20.815  0.00  0.00    +0.000 A 
ATOM     11  C   UNL     1       2.489   5.840  19.668  0.00  0.00    +0.000 A 
ATOM     12  C   UNL     1       2.984   4.553  19.403  0.00  0.00    +0.000 A 
BRANCH   3  14
ATOM     13  C   UNL     1       3.041   2.056  17.898  0.00  0.00    +0.000 C 
ATOM     14  O   UNL     1       4.099   2.982  18.099  0.00  0.00    +0.000 OA
ENDBRANCH   3  14
ENDBRANCH   1   8
BRANCH   1  15
ATOM     15  C   UNL     1       1.161  10.920  19.483  0.00  0.00    +0.000 C 
ATOM     16  C   UNL     1       1.230  12.252  20.245  0.00  0.00    +0.000 C 
ATOM     17  C   UNL     1      -0.048  13.074  20.245  0.00  0.00    +0.000 C 
ATOM     18  C   UNL     1      -0.859  13.007  18.960  0.00  0.00    +0.000 C 
ATOM     19  N   UNL     1      -0.943  11.665  18.390  0.00  0.00    +0.000 N 
ATOM     20  C   UNL     1      -2.092  10.988  17.947  0.00  0.00    +0.000 C 
ATOM     21  O   UNL     1      -2.025   9.876  17.428  0.00  0.00    +0.000 OA
ATOM     22  C   UNL     1       0.349  11.015  18.194  0.00  0.00    +0.000 C 
BRANCH  20  23
ATOM     23  C   UNL     1      -3.455  11.544  18.138  0.00  0.00    +0.000 A 
ATOM     24  C   UNL     1      -3.978  12.018  19.339  0.00  0.00    +0.000 A 
ATOM     25  C   UNL     1      -5.329  12.355  19.422  0.00  0.00    +0.000 A 
ATOM     26  C   UNL     1      -6.090  12.313  18.266  0.00  0.00    +0.000 A 
ATOM     27  N   UNL     1      -5.590  11.988  17.057  0.00  0.00    +0.000 NA
ATOM     28  C   UNL     1      -4.283  11.613  17.021  0.00  0.00    +0.000 A 
ENDBRANCH  20  23
ENDBRANCH   1  15
TORSDOF 4
ENDMDL
