MODEL 1
REMARK VINA RESULT:      -7.0      0.000      0.000
REMARK  Name = 
REMARK  6 active torsions:
REMARK  status: ('A' for Active; 'I' for Inactive)
REMARK    1  A    between atoms: C_1  and  C_2
REMARK    2  A    between atoms: C_2  and  C_3
REMARK    3  A    between atoms: N_4  and  C_5
REMARK    4  A    between atoms: C_6  and  C_7
REMARK    5  A    between atoms: C_9  and  C_10
REMARK    6  A    between atoms: C_9  and  C_16
REMARK                            x       y       z     vdW  Elec       q    Type
REMARK                         _______ _______ _______ _____ _____    ______ ____
ROOT
ATOM      1  C   UNL     1       3.591   4.371  17.893  0.00  0.00    +0.000 C 
ATOM      2  N   UNL     1       3.202   3.305  18.489  0.00  0.00    +0.000 N 
ATOM      3  C   UNL     1       2.840   2.000  17.881  0.00  0.00    +0.000 C 
ATOM      4  C   UNL     1       3.194   3.417  19.984  0.00  0.00    +0.000 C 
ATOM      5  C   UNL     1       1.808   3.166  20.561  0.00  0.00    +0.000 C 
ATOM      6  C   UNL     1       3.681   4.831  20.251  0.00  0.00    +0.000 C 
ATOM      7  C   UNL     1       3.938   5.506  18.862  0.00  0.00    +0.000 C 
ENDROOT
BRANCH   7   8
ATOM      8  C   UNL     1       2.916   6.681  18.798  0.00  0.00    +0.000 A 
ATOM      9  C   UNL     1       2.828   7.495  17.645  0.00  0.00    +0.000 A 
ATOM     10  C   UNL     1       2.106   8.689  17.643  0.00  0.00    +0.000 A 
ATOM     11  C   UNL     1       1.456   9.108  18.796  0.00  0.00    +0.000 A 
ATOM     12  C   UNL     1       1.464   8.295  19.924  0.00  0.00    +0.000 A 
ATOM     13  C   UNL     1       2.181   7.091  19.927  0.00  0.00    +0.000 A 
ENDBRANCH   7   8
BRANCH   7  14
ATOM     14  C   UNL     1       5.420   5.884  18.670  0.00  0.00    +0.000 A 
ATOM     15  C   UNL     1       5.815   6.874  17.748  0.00  0.00    +0.000 A 
ATOM     16  C   UNL     1       7.154   7.231  17.591  0.00  0.00    +0.000 A 
ATOM     17  C   UNL     1       8.137   6.616  18.361  0.00  0.00    +0.000 A 
ATOM     18  C   UNL     1       7.774   5.660  19.303  0.00  0.00    +0.000 A 
ATOM     19  C   UNL     1       6.430   5.325  19.480  0.00  0.00    +0.000 A 
ENDBRANCH   7  14
BRANCH   1  21
ATOM     20  C   UNL     1       5.057   3.985  15.855  0.00  0.00    +0.000 C 
ATOM     21  C   UNL     1       3.722   4.483  16.392  0.00  0.00    +0.000 C 
ENDBRANCH   1  21
TORSDOF 3
ENDMDL
MODEL 2
REMARK VINA RESULT:      -6.9      0.040      1.050
REMARK  Name = 
REMARK  6 active torsions:
REMARK  status: ('A' for Active; 'I' for Inactive)
REMARK    1  A    between atoms: C_1  and  C_2
REMARK    2  A    between atoms: C_2  and  C_3
REMARK    3  A    between atoms: N_4  and  C_5
REMARK    4  A    between atoms: C_6  and  C_7
REMARK    5  A    between atoms: C_9  and  C_10
REMARK    6  A    between atoms: C_9  and  C_16
REMARK                            x       y       z     vdW  Elec       q    Type
REMARK                         _______ _______ _______ _____ _____    ______ ____
ROOT
ATOM      1  C   UNL     1       3.633   4.401  17.899  0.00  0.00    +0.000 C 
ATOM      2  N   UNL     1       3.250   3.327  18.485  0.00  0.00    +0.000 N 
ATOM      3  C   UNL     1       2.911   2.021  17.866  0.00  0.00    +0.000 C 
ATOM      4  C   UNL     1       3.222   3.432  19.981  0.00  0.00    +0.000 C 
ATOM      5  C   UNL     1       1.832   3.161  20.538  0.00  0.00    +0.000 C 
ATOM      6  C   UNL     1       3.689   4.850  20.260  0.00  0.00    +0.000 C 
ATOM      7  C   UNL     1       3.954   5.534  18.877  0.00  0.00    +0.000 C 
ENDROOT
BRANCH   7   8
ATOM      8  C   UNL     1       2.920   6.698  18.805  0.00  0.00    +0.000 A 
ATOM      9  C   UNL     1       2.835   7.514  17.655  0.00  0.00    +0.000 A 
ATOM     10  C   UNL     1       2.099   8.700  17.649  0.00  0.00    +0.000 A 
ATOM     11  C   UNL     1       1.431   9.108  18.796  0.00  0.00    +0.000 A 
ATOM     12  C   UNL     1       1.437   8.290  19.922  0.00  0.00    +0.000 A 
ATOM     13  C   UNL     1       2.167   7.095  19.928  0.00  0.00    +0.000 A 
ENDBRANCH   7   8
BRANCH   7  14
ATOM     14  C   UNL     1       5.434   5.932  18.706  0.00  0.00    +0.000 A 
ATOM     15  C   UNL     1       6.455   5.315  19.459  0.00  0.00    +0.000 A 
ATOM     16  C   UNL     1       7.796   5.660  19.287  0.00  0.00    +0.000 A 
ATOM     17  C   UNL     1       8.156   6.624  18.350  0.00  0.00    +0.000 A 
ATOM     18  C   UNL     1       7.175   7.225  17.571  0.00  0.00    +0.000 A 
ATOM     19  C   UNL     1       5.836   6.858  17.721  0.00  0.00    +0.000 A 
ENDBRANCH   7  14
BRANCH   1  21
ATOM     20  C   UNL     1       5.108   3.992  15.871  0.00  0.00    +0.000 C 
ATOM     21  C   UNL     1       3.782   4.521  16.400  0.00  0.00    +0.000 C 
ENDBRANCH   1  21
TORSDOF 3
ENDMDL
MODEL 3
REMARK VINA RESULT:      -6.6      1.273      4.477
REMARK  Name = 
REMARK  6 active torsions:
REMARK  status: ('A' for Active; 'I' for Inactive)
REMARK    1  A    between atoms: C_1  and  C_2
REMARK    2  A    between atoms: C_2  and  C_3
REMARK    3  A    between atoms: N_4  and  C_5
REMARK    4  A    between atoms: C_6  and  C_7
REMARK    5  A    between atoms: C_9  and  C_10
REMARK    6  A    between atoms: C_9  and  C_16
REMARK                            x       y       z     vdW  Elec       q    Type
REMARK                         _______ _______ _______ _____ _____    ______ ____
ROOT
ATOM      1  C   UNL     1       4.574   4.423  19.043  0.00  0.00    +0.000 C 
ATOM      2  N   UNL     1       4.166   3.271  19.432  0.00  0.00    +0.000 N 
ATOM      3  C   UNL     1       4.666   2.462  20.571  0.00  0.00    +0.000 C 
ATOM      4  C   UNL     1       2.995   2.751  18.653  0.00  0.00    +0.000 C 
ATOM      5  C   UNL     1       3.307   1.417  17.990  0.00  0.00    +0.000 C 
ATOM      6  C   UNL     1       2.709   3.845  17.639  0.00  0.00    +0.000 C 
ATOM      7  C   UNL     1       3.769   4.976  17.864  0.00  0.00    +0.000 C 
ENDROOT
BRANCH   7   8
ATOM      8  C   UNL     1       4.594   5.014  16.541  0.00  0.00    +0.000 A 
ATOM      9  C   UNL     1       4.981   3.815  15.902  0.00  0.00    +0.000 A 
ATOM     10  C   UNL     1       5.913   3.806  14.862  0.00  0.00    +0.000 A 
ATOM     11  C   UNL     1       6.489   4.994  14.437  0.00  0.00    +0.000 A 
ATOM     12  C   UNL     1       6.076   6.198  14.998  0.00  0.00    +0.000 A 
ATOM     13  C   UNL     1       5.134   6.212  16.035  0.00  0.00    +0.000 A 
ENDBRANCH   7   8
BRANCH   7  14
ATOM     14  C   UNL     1       3.113   6.304  18.292  0.00  0.00    +0.000 A 
ATOM     15  C   UNL     1       3.009   7.395  17.405  0.00  0.00    +0.000 A 
ATOM     16  C   UNL     1       2.395   8.588  17.787  0.00  0.00    +0.000 A 
ATOM     17  C   UNL     1       1.858   8.720  19.063  0.00  0.00    +0.000 A 
ATOM     18  C   UNL     1       1.915   7.650  19.948  0.00  0.00    +0.000 A 
ATOM     19  C   UNL     1       2.502   6.446  19.556  0.00  0.00    +0.000 A 
ENDBRANCH   7  14
BRANCH   1  21
ATOM     20  C   UNL     1       7.003   5.151  18.897  0.00  0.00    +0.000 C 
ATOM     21  C   UNL     1       5.711   5.166  19.703  0.00  0.00    +0.000 C 
ENDBRANCH   1  21
TORSDOF 3
ENDMDL
MODEL 4
REMARK VINA RESULT:      -6.6      1.277      4.575
REMARK  Name = 
REMARK  6 active torsions:
REMARK  status: ('A' for Active; 'I' for Inactive)
REMARK    1  A    between atoms: C_1  and  C_2
REMARK    2  A    between atoms: C_2  and  C_3
REMARK    3  A    between atoms: N_4  and  C_5
REMARK    4  A    between atoms: C_6  and  C_7
REMARK    5  A    between atoms: C_9  and  C_10
REMARK    6  A    between atoms: C_9  and  C_16
REMARK                            x       y       z     vdW  Elec       q    Type
REMARK                         _______ _______ _______ _____ _____    ______ ____
ROOT
ATOM      1  C   UNL     1       4.528   4.410  19.048  0.00  0.00    +0.000 C 
ATOM      2  N   UNL     1       4.127   3.255  19.435  0.00  0.00    +0.000 N 
ATOM      3  C   UNL     1       4.621   2.455  20.584  0.00  0.00    +0.000 C 
ATOM      4  C   UNL     1       2.973   2.720  18.642  0.00  0.00    +0.000 C 
ATOM      5  C   UNL     1       3.308   1.388  17.988  0.00  0.00    +0.000 C 
ATOM      6  C   UNL     1       2.689   3.809  17.621  0.00  0.00    +0.000 C 
ATOM      7  C   UNL     1       3.733   4.951  17.857  0.00  0.00    +0.000 C 
ENDROOT
BRANCH   7   8
ATOM      8  C   UNL     1       4.575   4.994  16.545  0.00  0.00    +0.000 A 
ATOM      9  C   UNL     1       4.987   3.798  15.916  0.00  0.00    +0.000 A 
ATOM     10  C   UNL     1       5.932   3.796  14.889  0.00  0.00    +0.000 A 
ATOM     11  C   UNL     1       6.499   4.991  14.466  0.00  0.00    +0.000 A 
ATOM     12  C   UNL     1       6.062   6.191  15.017  0.00  0.00    +0.000 A 
ATOM     13  C   UNL     1       5.106   6.197  16.041  0.00  0.00    +0.000 A 
ENDBRANCH   7   8
BRANCH   7  14
ATOM     14  C   UNL     1       3.057   6.273  18.272  0.00  0.00    +0.000 A 
ATOM     15  C   UNL     1       2.503   6.445  19.557  0.00  0.00    +0.000 A 
ATOM     16  C   UNL     1       1.911   7.649  19.939  0.00  0.00    +0.000 A 
ATOM     17  C   UNL     1       1.865   8.719  19.050  0.00  0.00    +0.000 A 
ATOM     18  C   UNL     1       2.432   8.589  17.789  0.00  0.00    +0.000 A 
ATOM     19  C   UNL     1       3.052   7.395  17.417  0.00  0.00    +0.000 A 
ENDBRANCH   7  14
BRANCH   1  21
ATOM     20  C   UNL     1       6.948   5.173  18.928  0.00  0.00    +0.000 C 
ATOM     21  C   UNL     1       5.648   5.168  19.721  0.00  0.00    +0.000 C 
ENDBRANCH   1  21
TORSDOF 3
ENDMDL
MODEL 5
REMARK VINA RESULT:      -6.5      5.539      9.086
REMARK  Name = 
REMARK  6 active torsions:
REMARK  status: ('A' for Active; 'I' for Inactive)
REMARK    1  A    between atoms: C_1  and  C_2
REMARK    2  A    between atoms: C_2  and  C_3
REMARK    3  A    between atoms: N_4  and  C_5
REMARK    4  A    between atoms: C_6  and  C_7
REMARK    5  A    between atoms: C_9  and  C_10
REMARK    6  A    between atoms: C_9  and  C_16
REMARK                            x       y       z     vdW  Elec       q    Type
REMARK                         _______ _______ _______ _____ _____    ______ ____
ROOT
ATOM      1  C   UNL     1       0.004  12.278  18.806  0.00  0.00    +0.000 C 
ATOM      2  N   UNL     1       1.167  11.759  18.659  0.00  0.00    +0.000 N 
ATOM      3  C   UNL     1       2.424  12.436  18.252  0.00  0.00    +0.000 C 
ATOM      4  C   UNL     1       1.231  10.305  19.020  0.00  0.00    +0.000 C 
ATOM      5  C   UNL     1       1.692   9.452  17.847  0.00  0.00    +0.000 C 
ATOM      6  C   UNL     1      -0.186   9.970  19.454  0.00  0.00    +0.000 C 
ATOM      7  C   UNL     1      -1.040  11.273  19.302  0.00  0.00    +0.000 C 
ENDROOT
BRANCH   7   8
ATOM      8  C   UNL     1      -2.101  10.926  18.214  0.00  0.00    +0.000 A 
ATOM      9  C   UNL     1      -1.797  10.013  17.179  0.00  0.00    +0.000 A 
ATOM     10  C   UNL     1      -2.625   9.863  16.066  0.00  0.00    +0.000 A 
ATOM     11  C   UNL     1      -3.778  10.627  15.951  0.00  0.00    +0.000 A 
ATOM     12  C   UNL     1      -4.141  11.483  16.986  0.00  0.00    +0.000 A 
ATOM     13  C   UNL     1      -3.317  11.629  18.109  0.00  0.00    +0.000 A 
ENDBRANCH   7   8
BRANCH   7  14
ATOM     14  C   UNL     1      -1.592  11.762  20.656  0.00  0.00    +0.000 A 
ATOM     15  C   UNL     1      -2.776  12.523  20.738  0.00  0.00    +0.000 A 
ATOM     16  C   UNL     1      -3.287  12.945  21.966  0.00  0.00    +0.000 A 
ATOM     17  C   UNL     1      -2.633  12.609  23.148  0.00  0.00    +0.000 A 
ATOM     18  C   UNL     1      -1.482  11.831  23.100  0.00  0.00    +0.000 A 
ATOM     19  C   UNL     1      -0.989  11.383  21.873  0.00  0.00    +0.000 A 
ENDBRANCH   7  14
BRANCH   1  21
ATOM     20  C   UNL     1       0.079  14.653  19.702  0.00  0.00    +0.000 C 
ATOM     21  C   UNL     1      -0.294  13.735  18.546  0.00  0.00    +0.000 C 
ENDBRANCH   1  21
TORSDOF 3
ENDMDL
MODEL 6
REMARK VINA RESULT:      -6.5      5.544      9.143
REMARK  Name = 
REMARK  6 active torsions:
REMARK  status: ('A' for Active; 'I' for Inactive)
REMARK    1  A    between atoms: C_1  and  C_2
REMARK    2  A    between atoms: C_2  and  C_3
REMARK    3  A    between atoms: N_4  and  C_5
REMARK    4  A    between atoms: C_6  and  C_7
REMARK    5  A    between atoms: C_9  and  C_10
REMARK    6  A    between atoms: C_9  and  C_16
REMARK                            x       y       z     vdW  Elec       q    Type
REMARK                         _______ _______ _______ _____ _____    ______ ____
ROOT
ATOM      1  C   UNL     1      -0.016  12.271  18.809  0.00  0.00    +0.000 C 
ATOM      2  N   UNL     1       1.149  11.755  18.666  0.00  0.00    +0.000 N 
ATOM      3  C   UNL     1       2.407  12.436  18.268  0.00  0.00    +0.000 C 
ATOM      4  C   UNL     1       1.212  10.299  19.021  0.00  0.00    +0.000 C 
ATOM      5  C   UNL     1       1.681   9.453  17.847  0.00  0.00    +0.000 C 
ATOM      6  C   UNL     1      -0.206   9.961  19.447  0.00  0.00    +0.000 C 
ATOM      7  C   UNL     1      -1.061  11.264  19.295  0.00  0.00    +0.000 C 
ENDROOT
BRANCH   7   8
ATOM      8  C   UNL     1      -2.116  10.920  18.200  0.00  0.00    +0.000 A 
ATOM      9  C   UNL     1      -1.806  10.009  17.165  0.00  0.00    +0.000 A 
ATOM     10  C   UNL     1      -2.628   9.863  16.046  0.00  0.00    +0.000 A 
ATOM     11  C   UNL     1      -3.780  10.627  15.927  0.00  0.00    +0.000 A 
ATOM     12  C   UNL     1      -4.149  11.481  16.962  0.00  0.00    +0.000 A 
ATOM     13  C   UNL     1      -3.331  11.623  18.091  0.00  0.00    +0.000 A 
ENDBRANCH   7   8
BRANCH   7  14
ATOM     14  C   UNL     1      -1.621  11.745  20.649  0.00  0.00    +0.000 A 
ATOM     15  C   UNL     1      -0.958  11.467  21.862  0.00  0.00    +0.000 A 
ATOM     16  C   UNL     1      -1.455  11.922  23.084  0.00  0.00    +0.000 A 
ATOM     17  C   UNL     1      -2.622  12.678  23.126  0.00  0.00    +0.000 A 
ATOM     18  C   UNL     1      -3.279  12.996  21.944  0.00  0.00    +0.000 A 
ATOM     19  C   UNL     1      -2.766  12.567  20.718  0.00  0.00    +0.000 A 
ENDBRANCH   7  14
BRANCH   1  21
ATOM     20  C   UNL     1       0.093  14.649  19.697  0.00  0.00    +0.000 C 
ATOM     21  C   UNL     1      -0.314  13.730  18.554  0.00  0.00    +0.000 C 
ENDBRANCH   1  21
TORSDOF 3
ENDMDL
MODEL 7
REMARK VINA RESULT:      -6.3      1.379      2.231
REMARK  Name = 
REMARK  6 active torsions:
REMARK  status: ('A' for Active; 'I' for Inactive)
REMARK    1  A    between atoms: C_1  and  C_2
REMARK    2  A    between atoms: C_2  and  C_3
REMARK    3  A    between atoms: N_4  and  C_5
REMARK    4  A    between atoms: C_6  and  C_7
REMARK    5  A    between atoms: C_9  and  C_10
REMARK    6  A    between atoms: C_9  and  C_16
REMARK                            x       y       z     vdW  Elec       q    Type
REMARK                         _______ _______ _______ _____ _____    ______ ____
ROOT
ATOM      1  C   UNL     1       2.748   3.687  18.374  0.00  0.00    +0.000 C 
ATOM      2  N   UNL     1       2.475   2.861  19.316  0.00  0.00    +0.000 N 
ATOM      3  C   UNL     1       1.531   1.715  19.281  0.00  0.00    +0.000 C 
ATOM      4  C   UNL     1       3.281   3.078  20.562  0.00  0.00    +0.000 C 
ATOM      5  C   UNL     1       2.392   3.353  21.767  0.00  0.00    +0.000 C 
ATOM      6  C   UNL     1       4.174   4.259  20.223  0.00  0.00    +0.000 C 
ATOM      7  C   UNL     1       3.824   4.704  18.763  0.00  0.00    +0.000 C 
ENDROOT
BRANCH   7   8
ATOM      8  C   UNL     1       3.257   6.148  18.915  0.00  0.00    +0.000 A 
ATOM      9  C   UNL     1       2.478   6.499  20.040  0.00  0.00    +0.000 A 
ATOM     10  C   UNL     1       1.761   7.695  20.091  0.00  0.00    +0.000 A 
ATOM     11  C   UNL     1       1.797   8.573  19.016  0.00  0.00    +0.000 A 
ATOM     12  C   UNL     1       2.610   8.288  17.924  0.00  0.00    +0.000 A 
ATOM     13  C   UNL     1       3.339   7.092  17.873  0.00  0.00    +0.000 A 
ENDBRANCH   7   8
BRANCH   7  14
ATOM     14  C   UNL     1       5.025   4.543  17.809  0.00  0.00    +0.000 A 
ATOM     15  C   UNL     1       4.847   4.229  16.446  0.00  0.00    +0.000 A 
ATOM     16  C   UNL     1       5.933   4.106  15.579  0.00  0.00    +0.000 A 
ATOM     17  C   UNL     1       7.228   4.304  16.049  0.00  0.00    +0.000 A 
ATOM     18  C   UNL     1       7.432   4.648  17.379  0.00  0.00    +0.000 A 
ATOM     19  C   UNL     1       6.343   4.801  18.240  0.00  0.00    +0.000 A 
ENDBRANCH   7  14
BRANCH   1  21
ATOM     20  C   UNL     1       0.835   4.484  16.906  0.00  0.00    +0.000 C 
ATOM     21  C   UNL     1       2.096   3.638  17.012  0.00  0.00    +0.000 C 
ENDBRANCH   1  21
TORSDOF 3
ENDMDL
MODEL 8
REMARK VINA RESULT:      -6.3      4.586      8.321
REMARK  Name = 
REMARK  6 active torsions:
REMARK  status: ('A' for Active; 'I' for Inactive)
REMARK    1  A    between atoms: C_1  and  C_2
REMARK    2  A    between atoms: C_2  and  C_3
REMARK    3  A    between atoms: N_4  and  C_5
REMARK    4  A    between atoms: C_6  and  C_7
REMARK    5  A    between atoms: C_9  and  C_10
REMARK    6  A    between atoms: C_9  and  C_16
REMARK                            x       y       z     vdW  Elec       q    Type
REMARK                         _______ _______ _______ _____ _____    ______ ____
ROOT
ATOM      1  C   UNL     1      -0.119  11.930  20.744  0.00  0.00    +0.000 C 
ATOM      2  N   UNL     1       0.317  13.134  20.686  0.00  0.00    +0.000 N 
ATOM      3  C   UNL     1       0.621  14.050  21.815  0.00  0.00    +0.000 C 
ATOM      4  C   UNL     1       0.603  13.607  19.292  0.00  0.00    +0.000 C 
ATOM      5  C   UNL     1      -0.214  14.841  18.937  0.00  0.00    +0.000 C 
ATOM      6  C   UNL     1       0.255  12.414  18.419  0.00  0.00    +0.000 C 
ATOM      7  C   UNL     1      -0.254  11.276  19.366  0.00  0.00    +0.000 C 
ENDROOT
BRANCH   7   8
ATOM      8  C   UNL     1      -1.740  11.050  18.953  0.00  0.00    +0.000 A 
ATOM      9  C   UNL     1      -2.097   9.967  18.118  0.00  0.00    +0.000 A 
ATOM     10  C   UNL     1      -3.363   9.875  17.538  0.00  0.00    +0.000 A 
ATOM     11  C   UNL     1      -4.307  10.866  17.770  0.00  0.00    +0.000 A 
ATOM     12  C   UNL     1      -4.009  11.907  18.643  0.00  0.00    +0.000 A 
ATOM     13  C   UNL     1      -2.742  11.998  19.235  0.00  0.00    +0.000 A 
ENDBRANCH   7   8
BRANCH   7  14
ATOM     14  C   UNL     1       0.660  10.034  19.316  0.00  0.00    +0.000 A 
ATOM     15  C   UNL     1       0.772   9.156  20.414  0.00  0.00    +0.000 A 
ATOM     16  C   UNL     1       1.581   8.022  20.360  0.00  0.00    +0.000 A 
ATOM     17  C   UNL     1       2.294   7.726  19.201  0.00  0.00    +0.000 A 
ATOM     18  C   UNL     1       2.177   8.555  18.092  0.00  0.00    +0.000 A 
ATOM     19  C   UNL     1       1.343   9.674  18.136  0.00  0.00    +0.000 A 
ENDBRANCH   7  14
BRANCH   1  21
ATOM     20  C   UNL     1      -1.704  11.723  22.718  0.00  0.00    +0.000 C 
ATOM     21  C   UNL     1      -0.435  11.223  22.041  0.00  0.00    +0.000 C 
ENDBRANCH   1  21
TORSDOF 3
ENDMDL
MODEL 9
REMARK VINA RESULT:      -6.2      1.360      2.340
REMARK  Name = 
REMARK  6 active torsions:
REMARK  status: ('A' for Active; 'I' for Inactive)
REMARK    1  A    between atoms: C_1  and  C_2
REMARK    2  A    between atoms: C_2  and  C_3
REMARK    3  A    between atoms: N_4  and  C_5
REMARK    4  A    between atoms: C_6  and  C_7
REMARK    5  A    between atoms: C_9  and  C_10
REMARK    6  A    between atoms: C_9  and  C_16
REMARK                            x       y       z     vdW  Elec       q    Type
REMARK                         _______ _______ _______ _____ _____    ______ ____
ROOT
ATOM      1  C   UNL     1       2.752   3.733  18.361  0.00  0.00    +0.000 C 
ATOM      2  N   UNL     1       2.482   2.898  19.296  0.00  0.00    +0.000 N 
ATOM      3  C   UNL     1       1.552   1.742  19.247  0.00  0.00    +0.000 C 
ATOM      4  C   UNL     1       3.278   3.115  20.549  0.00  0.00    +0.000 C 
ATOM      5  C   UNL     1       2.379   3.371  21.749  0.00  0.00    +0.000 C 
ATOM      6  C   UNL     1       4.161   4.307  20.224  0.00  0.00    +0.000 C 
ATOM      7  C   UNL     1       3.815   4.758  18.765  0.00  0.00    +0.000 C 
ENDROOT
BRANCH   7   8
ATOM      8  C   UNL     1       3.232   6.195  18.922  0.00  0.00    +0.000 A 
ATOM      9  C   UNL     1       2.455   6.535  20.052  0.00  0.00    +0.000 A 
ATOM     10  C   UNL     1       1.724   7.722  20.110  0.00  0.00    +0.000 A 
ATOM     11  C   UNL     1       1.743   8.602  19.037  0.00  0.00    +0.000 A 
ATOM     12  C   UNL     1       2.554   8.330  17.940  0.00  0.00    +0.000 A 
ATOM     13  C   UNL     1       3.297   7.143  17.882  0.00  0.00    +0.000 A 
ENDBRANCH   7   8
BRANCH   7  14
ATOM     14  C   UNL     1       5.024   4.617  17.817  0.00  0.00    +0.000 A 
ATOM     15  C   UNL     1       6.343   4.828  18.268  0.00  0.00    +0.000 A 
ATOM     16  C   UNL     1       7.437   4.679  17.416  0.00  0.00    +0.000 A 
ATOM     17  C   UNL     1       7.244   4.304  16.089  0.00  0.00    +0.000 A 
ATOM     18  C   UNL     1       5.957   4.057  15.625  0.00  0.00    +0.000 A 
ATOM     19  C   UNL     1       4.865   4.177  16.487  0.00  0.00    +0.000 A 
ENDBRANCH   7  14
BRANCH   1  21
ATOM     20  C   UNL     1       0.826   4.498  16.894  0.00  0.00    +0.000 C 
ATOM     21  C   UNL     1       2.110   3.686  16.995  0.00  0.00    +0.000 C 
ENDBRANCH   1  21
TORSDOF 3
ENDMDL
