MODEL 1
REMARK VINA RESULT:      -6.3      0.000      0.000
REMARK  Name = 
REMARK  13 active torsions:
REMARK  status: ('A' for Active; 'I' for Inactive)
REMARK    1  A    between atoms: C_1  and  N_2
REMARK    2  A    between atoms: N_2  and  C_3
REMARK    3  A    between atoms: N_2  and  C_4
REMARK    4  A    between atoms: C_4  and  C_5
REMARK    5  A    between atoms: C_5  and  N_6
REMARK    6  A    between atoms: N_6  and  C_7
REMARK    7  A    between atoms: N_6  and  C_8
REMARK    8  A    between atoms: C_8  and  C_9
REMARK    9  A    between atoms: N_11  and  C_12
REMARK   10  A    between atoms: C_12  and  C_13
REMARK   11  A    between atoms: C_17  and  O_18
REMARK   12  A    between atoms: C_21  and  C_22
REMARK   13  A    between atoms: C_22  and  O_23
REMARK                            x       y       z     vdW  Elec       q    Type
REMARK                         _______ _______ _______ _____ _____    ______ ____
ROOT
ATOM      1  C   UNL     1       4.511   4.767  18.419  0.00  0.00    +0.000 C 
ATOM      2  C   UNL     1       3.694   5.377  19.550  0.00  0.00    +0.000 C 
ATOM      3  N   UNL     1       2.454   5.817  18.876  0.00  0.00    +0.000 NA
ATOM      4  C   UNL     1       2.178   4.778  17.858  0.00  0.00    +0.000 C 
ATOM      5  C   UNL     1       3.455   3.929  17.683  0.00  0.00    +0.000 C 
ENDROOT
BRANCH   1   6
ATOM      6  C   UNL     1       5.806   4.087  18.862  0.00  0.00    +0.000 C 
BRANCH   6   7
ATOM      7  N   UNL     1       7.048   4.825  18.520  0.00  0.00    +0.000 NA
ATOM      8  C   UNL     1       7.601   5.565  19.658  0.00  0.00    +0.000 C 
BRANCH   7   9
ATOM      9  C   UNL     1       6.737   5.739  17.391  0.00  0.00    +0.000 C 
BRANCH   9  10
ATOM     10  C   UNL     1       7.164   5.232  15.993  0.00  0.00    +0.000 C 
BRANCH  10  12
ATOM     11  C   UNL     1       5.611   4.320  14.401  0.00  0.00    +0.000 C 
ATOM     12  N   UNL     1       6.211   5.557  14.908  0.00  0.00    +0.000 NA
ATOM     13  C   UNL     1       5.160   6.474  15.350  0.00  0.00    +0.000 C 
ENDBRANCH  10  12
ENDBRANCH   9  10
ENDBRANCH   7   9
ENDBRANCH   6   7
ENDBRANCH   1   6
BRANCH   3  14
ATOM     14  C   UNL     1       2.655   7.159  18.287  0.00  0.00    +0.000 C 
BRANCH  14  15
ATOM     15  C   UNL     1       1.859   8.249  18.968  0.00  0.00    +0.000 A 
ATOM     16  C   UNL     1       1.568   8.180  20.335  0.00  0.00    +0.000 A 
ATOM     17  C   UNL     1       0.807   9.178  20.945  0.00  0.00    +0.000 A 
ATOM     18  C   UNL     1       0.341  10.262  20.196  0.00  0.00    +0.000 A 
ATOM     19  C   UNL     1       0.653  10.341  18.845  0.00  0.00    +0.000 A 
ATOM     20  C   UNL     1       1.404   9.350  18.227  0.00  0.00    +0.000 A 
BRANCH  19  21
ATOM     21  O   UNL     1       0.231  11.389  18.077  0.00  0.00    +0.000 OA
ATOM     22  H   UNL     1       0.557  12.209  18.474  0.00  0.00    +0.000 HD
ENDBRANCH  19  21
ENDBRANCH  14  15
ENDBRANCH   3  14
BRANCH   5  23
ATOM     23  C   UNL     1       3.233   2.509  18.206  0.00  0.00    +0.000 C 
BRANCH  23  24
ATOM     24  O   UNL     1       2.103   1.904  17.588  0.00  0.00    +0.000 OA
ATOM     25  H   UNL     1       1.377   1.895  18.234  0.00  0.00    +0.000 HD
ENDBRANCH  23  24
ENDBRANCH   5  23
TORSDOF 10
ENDMDL
MODEL 2
REMARK VINA RESULT:      -6.2      3.372      5.142
REMARK  Name = 
REMARK  13 active torsions:
REMARK  status: ('A' for Active; 'I' for Inactive)
REMARK    1  A    between atoms: C_1  and  N_2
REMARK    2  A    between atoms: N_2  and  C_3
REMARK    3  A    between atoms: N_2  and  C_4
REMARK    4  A    between atoms: C_4  and  C_5
REMARK    5  A    between atoms: C_5  and  N_6
REMARK    6  A    between atoms: N_6  and  C_7
REMARK    7  A    between atoms: N_6  and  C_8
REMARK    8  A    between atoms: C_8  and  C_9
REMARK    9  A    between atoms: N_11  and  C_12
REMARK   10  A    between atoms: C_12  and  C_13
REMARK   11  A    between atoms: C_17  and  O_18
REMARK   12  A    between atoms: C_21  and  C_22
REMARK   13  A    between atoms: C_22  and  O_23
REMARK                            x       y       z     vdW  Elec       q    Type
REMARK                         _______ _______ _______ _____ _____    ______ ____
ROOT
ATOM      1  C   UNL     1       5.298   5.523  16.403  0.00  0.00    +0.000 C 
ATOM      2  C   UNL     1       5.001   6.688  17.337  0.00  0.00    +0.000 C 
ATOM      3  N   UNL     1       4.380   6.035  18.510  0.00  0.00    +0.000 NA
ATOM      4  C   UNL     1       5.106   4.754  18.668  0.00  0.00    +0.000 C 
ATOM      5  C   UNL     1       5.895   4.488  17.368  0.00  0.00    +0.000 C 
ENDROOT
BRANCH   1   6
ATOM      6  C   UNL     1       6.089   5.896  15.150  0.00  0.00    +0.000 C 
BRANCH   6   7
ATOM      7  N   UNL     1       6.786   4.762  14.491  0.00  0.00    +0.000 NA
ATOM      8  C   UNL     1       7.803   5.201  13.530  0.00  0.00    +0.000 C 
BRANCH   7   9
ATOM      9  C   UNL     1       5.757   3.918  13.830  0.00  0.00    +0.000 C 
BRANCH   9  10
ATOM     10  C   UNL     1       6.093   3.475  12.385  0.00  0.00    +0.000 C 
BRANCH  10  12
ATOM     11  C   UNL     1       4.181   2.985  11.015  0.00  0.00    +0.000 C 
ATOM     12  N   UNL     1       5.225   2.399  11.860  0.00  0.00    +0.000 NA
ATOM     13  C   UNL     1       5.978   1.401  11.099  0.00  0.00    +0.000 C 
ENDBRANCH  10  12
ENDBRANCH   9  10
ENDBRANCH   7   9
ENDBRANCH   6   7
ENDBRANCH   1   6
BRANCH   3  14
ATOM     14  C   UNL     1       2.933   5.849  18.270  0.00  0.00    +0.000 C 
BRANCH  14  15
ATOM     15  C   UNL     1       2.358   4.618  18.932  0.00  0.00    +0.000 A 
ATOM     16  C   UNL     1       1.723   3.625  18.178  0.00  0.00    +0.000 A 
ATOM     17  C   UNL     1       1.171   2.508  18.805  0.00  0.00    +0.000 A 
ATOM     18  C   UNL     1       1.261   2.365  20.192  0.00  0.00    +0.000 A 
ATOM     19  C   UNL     1       1.916   3.338  20.936  0.00  0.00    +0.000 A 
ATOM     20  C   UNL     1       2.463   4.458  20.322  0.00  0.00    +0.000 A 
BRANCH  19  21
ATOM     21  O   UNL     1       2.040   3.234  22.292  0.00  0.00    +0.000 OA
ATOM     22  H   UNL     1       2.982   3.166  22.507  0.00  0.00    +0.000 HD
ENDBRANCH  19  21
ENDBRANCH  14  15
ENDBRANCH   3  14
BRANCH   5  23
ATOM     23  C   UNL     1       7.400   4.588  17.622  0.00  0.00    +0.000 C 
BRANCH  23  24
ATOM     24  O   UNL     1       7.669   5.036  18.946  0.00  0.00    +0.000 OA
ATOM     25  H   UNL     1       6.939   5.614  19.221  0.00  0.00    +0.000 HD
ENDBRANCH  23  24
ENDBRANCH   5  23
TORSDOF 10
ENDMDL
MODEL 3
REMARK VINA RESULT:      -6.1      3.272      4.936
REMARK  Name = 
REMARK  13 active torsions:
REMARK  status: ('A' for Active; 'I' for Inactive)
REMARK    1  A    between atoms: C_1  and  N_2
REMARK    2  A    between atoms: N_2  and  C_3
REMARK    3  A    between atoms: N_2  and  C_4
REMARK    4  A    between atoms: C_4  and  C_5
REMARK    5  A    between atoms: C_5  and  N_6
REMARK    6  A    between atoms: N_6  and  C_7
REMARK    7  A    between atoms: N_6  and  C_8
REMARK    8  A    between atoms: C_8  and  C_9
REMARK    9  A    between atoms: N_11  and  C_12
REMARK   10  A    between atoms: C_12  and  C_13
REMARK   11  A    between atoms: C_17  and  O_18
REMARK   12  A    between atoms: C_21  and  C_22
REMARK   13  A    between atoms: C_22  and  O_23
REMARK                            x       y       z     vdW  Elec       q    Type
REMARK                         _______ _______ _______ _____ _____    ______ ____
ROOT
ATOM      1  C   UNL     1       5.136   5.546  16.243  0.00  0.00    +0.000 C 
ATOM      2  C   UNL     1       4.875   6.718  17.181  0.00  0.00    +0.000 C 
ATOM      3  N   UNL     1       4.258   6.078  18.363  0.00  0.00    +0.000 NA
ATOM      4  C   UNL     1       4.960   4.783  18.511  0.00  0.00    +0.000 C 
ATOM      5  C   UNL     1       5.724   4.500  17.201  0.00  0.00    +0.000 C 
ENDROOT
BRANCH   1   6
ATOM      6  C   UNL     1       5.917   5.902  14.979  0.00  0.00    +0.000 C 
BRANCH   6   7
ATOM      7  N   UNL     1       6.746   4.800  14.426  0.00  0.00    +0.000 NA
ATOM      8  C   UNL     1       7.897   5.286  13.658  0.00  0.00    +0.000 C 
BRANCH   7   9
ATOM      9  C   UNL     1       5.866   3.947  13.587  0.00  0.00    +0.000 C 
BRANCH   9  10
ATOM     10  C   UNL     1       6.557   3.279  12.373  0.00  0.00    +0.000 C 
BRANCH  10  12
ATOM     11  C   UNL     1       5.740   1.321  11.243  0.00  0.00    +0.000 C 
ATOM     12  N   UNL     1       5.623   2.778  11.339  0.00  0.00    +0.000 NA
ATOM     13  C   UNL     1       4.235   3.148  11.620  0.00  0.00    +0.000 C 
ENDBRANCH  10  12
ENDBRANCH   9  10
ENDBRANCH   7   9
ENDBRANCH   6   7
ENDBRANCH   1   6
BRANCH   3  14
ATOM     14  C   UNL     1       2.803   5.921  18.142  0.00  0.00    +0.000 C 
BRANCH  14  15
ATOM     15  C   UNL     1       2.177   4.823  18.970  0.00  0.00    +0.000 A 
ATOM     16  C   UNL     1       2.226   4.859  20.368  0.00  0.00    +0.000 A 
ATOM     17  C   UNL     1       1.670   3.824  21.120  0.00  0.00    +0.000 A 
ATOM     18  C   UNL     1       1.046   2.749  20.482  0.00  0.00    +0.000 A 
ATOM     19  C   UNL     1       0.975   2.729  19.095  0.00  0.00    +0.000 A 
ATOM     20  C   UNL     1       1.531   3.751  18.336  0.00  0.00    +0.000 A 
BRANCH  19  21
ATOM     21  O   UNL     1       0.363   1.705  18.428  0.00  0.00    +0.000 OA
ATOM     22  H   UNL     1       0.125   1.022  19.071  0.00  0.00    +0.000 HD
ENDBRANCH  19  21
ENDBRANCH  14  15
ENDBRANCH   3  14
BRANCH   5  23
ATOM     23  C   UNL     1       7.235   4.569  17.434  0.00  0.00    +0.000 C 
BRANCH  23  24
ATOM     24  O   UNL     1       7.531   4.946  18.774  0.00  0.00    +0.000 OA
ATOM     25  H   UNL     1       7.025   4.367  19.367  0.00  0.00    +0.000 HD
ENDBRANCH  23  24
ENDBRANCH   5  23
TORSDOF 10
ENDMDL
MODEL 4
REMARK VINA RESULT:      -6.0      1.493      2.771
REMARK  Name = 
REMARK  13 active torsions:
REMARK  status: ('A' for Active; 'I' for Inactive)
REMARK    1  A    between atoms: C_1  and  N_2
REMARK    2  A    between atoms: N_2  and  C_3
REMARK    3  A    between atoms: N_2  and  C_4
REMARK    4  A    between atoms: C_4  and  C_5
REMARK    5  A    between atoms: C_5  and  N_6
REMARK    6  A    between atoms: N_6  and  C_7
REMARK    7  A    between atoms: N_6  and  C_8
REMARK    8  A    between atoms: C_8  and  C_9
REMARK    9  A    between atoms: N_11  and  C_12
REMARK   10  A    between atoms: C_12  and  C_13
REMARK   11  A    between atoms: C_17  and  O_18
REMARK   12  A    between atoms: C_21  and  C_22
REMARK   13  A    between atoms: C_22  and  O_23
REMARK                            x       y       z     vdW  Elec       q    Type
REMARK                         _______ _______ _______ _____ _____    ______ ____
ROOT
ATOM      1  C   UNL     1       3.920   4.721  17.169  0.00  0.00    +0.000 C 
ATOM      2  C   UNL     1       4.163   5.574  18.407  0.00  0.00    +0.000 C 
ATOM      3  N   UNL     1       2.805   6.016  18.789  0.00  0.00    +0.000 NA
ATOM      4  C   UNL     1       1.926   4.860  18.495  0.00  0.00    +0.000 C 
ATOM      5  C   UNL     1       2.709   3.880  17.596  0.00  0.00    +0.000 C 
ENDROOT
BRANCH   1   6
ATOM      6  C   UNL     1       5.159   4.002  16.636  0.00  0.00    +0.000 C 
BRANCH   6   7
ATOM      7  N   UNL     1       5.836   4.679  15.501  0.00  0.00    +0.000 NA
ATOM      8  C   UNL     1       6.079   3.782  14.367  0.00  0.00    +0.000 C 
BRANCH   7   9
ATOM      9  C   UNL     1       7.108   5.254  16.009  0.00  0.00    +0.000 C 
BRANCH   9  10
ATOM     10  C   UNL     1       7.550   4.751  17.404  0.00  0.00    +0.000 C 
BRANCH  10  12
ATOM     11  C   UNL     1       7.516   7.116  17.828  0.00  0.00    +0.000 C 
ATOM     12  N   UNL     1       7.982   5.822  18.330  0.00  0.00    +0.000 NA
ATOM     13  C   UNL     1       7.490   5.609  19.691  0.00  0.00    +0.000 C 
ENDBRANCH  10  12
ENDBRANCH   9  10
ENDBRANCH   7   9
ENDBRANCH   6   7
ENDBRANCH   1   6
BRANCH   3  14
ATOM     14  C   UNL     1       2.439   7.225  18.018  0.00  0.00    +0.000 C 
BRANCH  14  15
ATOM     15  C   UNL     1       1.824   8.320  18.859  0.00  0.00    +0.000 A 
ATOM     16  C   UNL     1       1.425   9.531  18.283  0.00  0.00    +0.000 A 
ATOM     17  C   UNL     1       0.886  10.545  19.075  0.00  0.00    +0.000 A 
ATOM     18  C   UNL     1       0.727  10.353  20.450  0.00  0.00    +0.000 A 
ATOM     19  C   UNL     1       1.098   9.140  21.015  0.00  0.00    +0.000 A 
ATOM     20  C   UNL     1       1.642   8.126  20.237  0.00  0.00    +0.000 A 
BRANCH  19  21
ATOM     21  O   UNL     1       0.949   8.902  22.352  0.00  0.00    +0.000 OA
ATOM     22  H   UNL     1       0.413   9.614  22.730  0.00  0.00    +0.000 HD
ENDBRANCH  19  21
ENDBRANCH  14  15
ENDBRANCH   3  14
BRANCH   5  23
ATOM     23  C   UNL     1       3.016   2.586  18.352  0.00  0.00    +0.000 C 
BRANCH  23  24
ATOM     24  O   UNL     1       2.796   2.741  19.749  0.00  0.00    +0.000 OA
ATOM     25  H   UNL     1       1.914   2.390  19.954  0.00  0.00    +0.000 HD
ENDBRANCH  23  24
ENDBRANCH   5  23
TORSDOF 10
ENDMDL
MODEL 5
REMARK VINA RESULT:      -6.0      1.220      2.267
REMARK  Name = 
REMARK  13 active torsions:
REMARK  status: ('A' for Active; 'I' for Inactive)
REMARK    1  A    between atoms: C_1  and  N_2
REMARK    2  A    between atoms: N_2  and  C_3
REMARK    3  A    between atoms: N_2  and  C_4
REMARK    4  A    between atoms: C_4  and  C_5
REMARK    5  A    between atoms: C_5  and  N_6
REMARK    6  A    between atoms: N_6  and  C_7
REMARK    7  A    between atoms: N_6  and  C_8
REMARK    8  A    between atoms: C_8  and  C_9
REMARK    9  A    between atoms: N_11  and  C_12
REMARK   10  A    between atoms: C_12  and  C_13
REMARK   11  A    between atoms: C_17  and  O_18
REMARK   12  A    between atoms: C_21  and  C_22
REMARK   13  A    between atoms: C_22  and  O_23
REMARK                            x       y       z     vdW  Elec       q    Type
REMARK                         _______ _______ _______ _____ _____    ______ ____
ROOT
ATOM      1  C   UNL     1       3.592   4.785  17.539  0.00  0.00    +0.000 C 
ATOM      2  C   UNL     1       3.952   5.230  18.950  0.00  0.00    +0.000 C 
ATOM      3  N   UNL     1       2.722   5.902  19.421  0.00  0.00    +0.000 NA
ATOM      4  C   UNL     1       1.608   5.112  18.848  0.00  0.00    +0.000 C 
ATOM      5  C   UNL     1       2.184   4.205  17.740  0.00  0.00    +0.000 C 
ENDROOT
BRANCH   1   6
ATOM      6  C   UNL     1       4.648   3.919  16.854  0.00  0.00    +0.000 C 
BRANCH   6   7
ATOM      7  N   UNL     1       5.185   4.476  15.586  0.00  0.00    +0.000 NA
ATOM      8  C   UNL     1       6.271   3.666  15.024  0.00  0.00    +0.000 C 
BRANCH   7   9
ATOM      9  C   UNL     1       5.641   5.864  15.856  0.00  0.00    +0.000 C 
BRANCH   9  10
ATOM     10  C   UNL     1       7.039   5.985  16.510  0.00  0.00    +0.000 C 
BRANCH  10  12
ATOM     11  C   UNL     1       7.686   5.962  18.824  0.00  0.00    +0.000 C 
ATOM     12  N   UNL     1       7.058   6.762  17.769  0.00  0.00    +0.000 NA
ATOM     13  C   UNL     1       7.763   8.036  17.624  0.00  0.00    +0.000 C 
ENDBRANCH  10  12
ENDBRANCH   9  10
ENDBRANCH   7   9
ENDBRANCH   6   7
ENDBRANCH   1   6
BRANCH   3  14
ATOM     14  C   UNL     1       2.719   7.311  18.969  0.00  0.00    +0.000 C 
BRANCH  14  15
ATOM     15  C   UNL     1       1.722   8.182  19.699  0.00  0.00    +0.000 A 
ATOM     16  C   UNL     1       1.345   7.896  21.016  0.00  0.00    +0.000 A 
ATOM     17  C   UNL     1       0.403   8.691  21.668  0.00  0.00    +0.000 A 
ATOM     18  C   UNL     1      -0.164   9.789  21.014  0.00  0.00    +0.000 A 
ATOM     19  C   UNL     1       0.232  10.086  19.716  0.00  0.00    +0.000 A 
ATOM     20  C   UNL     1       1.165   9.297  19.055  0.00  0.00    +0.000 A 
BRANCH  19  21
ATOM     21  O   UNL     1      -0.284  11.156  19.042  0.00  0.00    +0.000 OA
ATOM     22  H   UNL     1      -0.489  11.851  19.684  0.00  0.00    +0.000 HD
ENDBRANCH  19  21
ENDBRANCH  14  15
ENDBRANCH   3  14
BRANCH   5  23
ATOM     23  C   UNL     1       2.110   2.735  18.157  0.00  0.00    +0.000 C 
BRANCH  23  24
ATOM     24  O   UNL     1       1.795   2.607  19.538  0.00  0.00    +0.000 OA
ATOM     25  H   UNL     1       1.672   3.500  19.901  0.00  0.00    +0.000 HD
ENDBRANCH  23  24
ENDBRANCH   5  23
TORSDOF 10
ENDMDL
MODEL 6
REMARK VINA RESULT:      -6.0      1.628      2.406
REMARK  Name = 
REMARK  13 active torsions:
REMARK  status: ('A' for Active; 'I' for Inactive)
REMARK    1  A    between atoms: C_1  and  N_2
REMARK    2  A    between atoms: N_2  and  C_3
REMARK    3  A    between atoms: N_2  and  C_4
REMARK    4  A    between atoms: C_4  and  C_5
REMARK    5  A    between atoms: C_5  and  N_6
REMARK    6  A    between atoms: N_6  and  C_7
REMARK    7  A    between atoms: N_6  and  C_8
REMARK    8  A    between atoms: C_8  and  C_9
REMARK    9  A    between atoms: N_11  and  C_12
REMARK   10  A    between atoms: C_12  and  C_13
REMARK   11  A    between atoms: C_17  and  O_18
REMARK   12  A    between atoms: C_21  and  C_22
REMARK   13  A    between atoms: C_22  and  O_23
REMARK                            x       y       z     vdW  Elec       q    Type
REMARK                         _______ _______ _______ _____ _____    ______ ____
ROOT
ATOM      1  C   UNL     1       4.239   4.367  16.993  0.00  0.00    +0.000 C 
ATOM      2  C   UNL     1       4.411   4.961  18.385  0.00  0.00    +0.000 C 
ATOM      3  N   UNL     1       3.114   5.627  18.634  0.00  0.00    +0.000 NA
ATOM      4  C   UNL     1       2.101   4.743  18.014  0.00  0.00    +0.000 C 
ATOM      5  C   UNL     1       2.833   3.756  17.081  0.00  0.00    +0.000 C 
ENDROOT
BRANCH   1   6
ATOM      6  C   UNL     1       5.395   3.481  16.530  0.00  0.00    +0.000 C 
BRANCH   6   7
ATOM      7  N   UNL     1       6.278   4.091  15.504  0.00  0.00    +0.000 NA
ATOM      8  C   UNL     1       6.802   5.398  15.909  0.00  0.00    +0.000 C 
BRANCH   7   9
ATOM      9  C   UNL     1       5.501   4.196  14.241  0.00  0.00    +0.000 C 
BRANCH   9  10
ATOM     10  C   UNL     1       6.210   3.643  12.981  0.00  0.00    +0.000 C 
BRANCH  10  12
ATOM     11  C   UNL     1       4.383   3.336  11.451  0.00  0.00    +0.000 C 
ATOM     12  N   UNL     1       5.419   2.647  12.224  0.00  0.00    +0.000 NA
ATOM     13  C   UNL     1       6.253   1.841  11.331  0.00  0.00    +0.000 C 
ENDBRANCH  10  12
ENDBRANCH   9  10
ENDBRANCH   7   9
ENDBRANCH   6   7
ENDBRANCH   1   6
BRANCH   3  14
ATOM     14  C   UNL     1       3.129   6.984  18.044  0.00  0.00    +0.000 C 
BRANCH  14  15
ATOM     15  C   UNL     1       2.210   7.961  18.741  0.00  0.00    +0.000 A 
ATOM     16  C   UNL     1       1.944   7.848  20.110  0.00  0.00    +0.000 A 
ATOM     17  C   UNL     1       1.070   8.738  20.735  0.00  0.00    +0.000 A 
ATOM     18  C   UNL     1       0.464   9.759  19.999  0.00  0.00    +0.000 A 
ATOM     19  C   UNL     1       0.750   9.886  18.646  0.00  0.00    +0.000 A 
ATOM     20  C   UNL     1       1.613   9.001  18.013  0.00  0.00    +0.000 A 
BRANCH  19  21
ATOM     21  O   UNL     1       0.191  10.877  17.890  0.00  0.00    +0.000 OA
ATOM     22  H   UNL     1      -0.762  10.716  17.833  0.00  0.00    +0.000 HD
ENDBRANCH  19  21
ENDBRANCH  14  15
ENDBRANCH   3  14
BRANCH   5  23
ATOM     23  C   UNL     1       2.748   2.331  17.633  0.00  0.00    +0.000 C 
BRANCH  23  24
ATOM     24  O   UNL     1       1.627   2.180  18.496  0.00  0.00    +0.000 OA
ATOM     25  H   UNL     1       1.796   2.699  19.299  0.00  0.00    +0.000 HD
ENDBRANCH  23  24
ENDBRANCH   5  23
TORSDOF 10
ENDMDL
MODEL 7
REMARK VINA RESULT:      -6.0      1.652      2.307
REMARK  Name = 
REMARK  13 active torsions:
REMARK  status: ('A' for Active; 'I' for Inactive)
REMARK    1  A    between atoms: C_1  and  N_2
REMARK    2  A    between atoms: N_2  and  C_3
REMARK    3  A    between atoms: N_2  and  C_4
REMARK    4  A    between atoms: C_4  and  C_5
REMARK    5  A    between atoms: C_5  and  N_6
REMARK    6  A    between atoms: N_6  and  C_7
REMARK    7  A    between atoms: N_6  and  C_8
REMARK    8  A    between atoms: C_8  and  C_9
REMARK    9  A    between atoms: N_11  and  C_12
REMARK   10  A    between atoms: C_12  and  C_13
REMARK   11  A    between atoms: C_17  and  O_18
REMARK   12  A    between atoms: C_21  and  C_22
REMARK   13  A    between atoms: C_22  and  O_23
REMARK                            x       y       z     vdW  Elec       q    Type
REMARK                         _______ _______ _______ _____ _____    ______ ____
ROOT
ATOM      1  C   UNL     1       4.829   4.701  17.114  0.00  0.00    +0.000 C 
ATOM      2  C   UNL     1       4.827   5.409  18.462  0.00  0.00    +0.000 C 
ATOM      3  N   UNL     1       3.433   5.881  18.598  0.00  0.00    +0.000 NA
ATOM      4  C   UNL     1       2.602   4.810  18.002  0.00  0.00    +0.000 C 
ATOM      5  C   UNL     1       3.529   3.886  17.183  0.00  0.00    +0.000 C 
ENDROOT
BRANCH   1   6
ATOM      6  C   UNL     1       6.130   3.975  16.776  0.00  0.00    +0.000 C 
BRANCH   6   7
ATOM      7  N   UNL     1       7.192   4.835  16.192  0.00  0.00    +0.000 NA
ATOM      8  C   UNL     1       7.269   6.153  16.830  0.00  0.00    +0.000 C 
BRANCH   7   9
ATOM      9  C   UNL     1       6.925   4.961  14.737  0.00  0.00    +0.000 C 
BRANCH   9  10
ATOM     10  C   UNL     1       6.009   3.868  14.135  0.00  0.00    +0.000 C 
BRANCH  10  12
ATOM     11  C   UNL     1       5.173   3.163  11.995  0.00  0.00    +0.000 C 
ATOM     12  N   UNL     1       6.385   3.440  12.770  0.00  0.00    +0.000 NA
ATOM     13  C   UNL     1       7.199   4.441  12.080  0.00  0.00    +0.000 C 
ENDBRANCH  10  12
ENDBRANCH   9  10
ENDBRANCH   7   9
ENDBRANCH   6   7
ENDBRANCH   1   6
BRANCH   3  14
ATOM     14  C   UNL     1       3.276   7.180  17.907  0.00  0.00    +0.000 C 
BRANCH  14  15
ATOM     15  C   UNL     1       2.268   8.099  18.558  0.00  0.00    +0.000 A 
ATOM     16  C   UNL     1       1.652   9.124  17.830  0.00  0.00    +0.000 A 
ATOM     17  C   UNL     1       0.746   9.983  18.451  0.00  0.00    +0.000 A 
ATOM     18  C   UNL     1       0.436   9.820  19.803  0.00  0.00    +0.000 A 
ATOM     19  C   UNL     1       1.028   8.786  20.518  0.00  0.00    +0.000 A 
ATOM     20  C   UNL     1       1.937   7.928  19.911  0.00  0.00    +0.000 A 
BRANCH  19  21
ATOM     21  O   UNL     1       0.746   8.579  21.838  0.00  0.00    +0.000 OA
ATOM     22  H   UNL     1       1.012   7.677  22.069  0.00  0.00    +0.000 HD
ENDBRANCH  19  21
ENDBRANCH  14  15
ENDBRANCH   3  14
BRANCH   5  23
ATOM     23  C   UNL     1       3.629   2.507  17.839  0.00  0.00    +0.000 C 
BRANCH  23  24
ATOM     24  O   UNL     1       2.456   1.739  17.601  0.00  0.00    +0.000 OA
ATOM     25  H   UNL     1       1.812   2.307  17.147  0.00  0.00    +0.000 HD
ENDBRANCH  23  24
ENDBRANCH   5  23
TORSDOF 10
ENDMDL
MODEL 8
REMARK VINA RESULT:      -6.0      1.073      1.384
REMARK  Name = 
REMARK  13 active torsions:
REMARK  status: ('A' for Active; 'I' for Inactive)
REMARK    1  A    between atoms: C_1  and  N_2
REMARK    2  A    between atoms: N_2  and  C_3
REMARK    3  A    between atoms: N_2  and  C_4
REMARK    4  A    between atoms: C_4  and  C_5
REMARK    5  A    between atoms: C_5  and  N_6
REMARK    6  A    between atoms: N_6  and  C_7
REMARK    7  A    between atoms: N_6  and  C_8
REMARK    8  A    between atoms: C_8  and  C_9
REMARK    9  A    between atoms: N_11  and  C_12
REMARK   10  A    between atoms: C_12  and  C_13
REMARK   11  A    between atoms: C_17  and  O_18
REMARK   12  A    between atoms: C_21  and  C_22
REMARK   13  A    between atoms: C_22  and  O_23
REMARK                            x       y       z     vdW  Elec       q    Type
REMARK                         _______ _______ _______ _____ _____    ______ ____
ROOT
ATOM      1  C   UNL     1       4.524   4.832  17.962  0.00  0.00    +0.000 C 
ATOM      2  C   UNL     1       4.226   5.664  19.202  0.00  0.00    +0.000 C 
ATOM      3  N   UNL     1       2.764   5.873  19.130  0.00  0.00    +0.000 NA
ATOM      4  C   UNL     1       2.219   4.607  18.589  0.00  0.00    +0.000 C 
ATOM      5  C   UNL     1       3.390   3.797  17.996  0.00  0.00    +0.000 C 
ENDROOT
BRANCH   1   6
ATOM      6  C   UNL     1       5.965   4.336  17.857  0.00  0.00    +0.000 C 
BRANCH   6   7
ATOM      7  N   UNL     1       6.809   5.069  16.879  0.00  0.00    +0.000 NA
ATOM      8  C   UNL     1       7.394   6.292  17.438  0.00  0.00    +0.000 C 
BRANCH   7   9
ATOM      9  C   UNL     1       5.969   5.374  15.693  0.00  0.00    +0.000 C 
BRANCH   9  10
ATOM     10  C   UNL     1       5.638   4.163  14.789  0.00  0.00    +0.000 C 
BRANCH  10  12
ATOM     11  C   UNL     1       5.957   3.433  12.521  0.00  0.00    +0.000 C 
ATOM     12  N   UNL     1       6.639   3.900  13.731  0.00  0.00    +0.000 NA
ATOM     13  C   UNL     1       7.443   5.083  13.423  0.00  0.00    +0.000 C 
ENDBRANCH  10  12
ENDBRANCH   9  10
ENDBRANCH   7   9
ENDBRANCH   6   7
ENDBRANCH   1   6
BRANCH   3  14
ATOM     14  C   UNL     1       2.469   7.039  18.268  0.00  0.00    +0.000 C 
BRANCH  14  15
ATOM     15  C   UNL     1       1.836   8.197  19.004  0.00  0.00    +0.000 A 
ATOM     16  C   UNL     1       1.578   8.122  20.378  0.00  0.00    +0.000 A 
ATOM     17  C   UNL     1       0.966   9.186  21.040  0.00  0.00    +0.000 A 
ATOM     18  C   UNL     1       0.618  10.343  20.338  0.00  0.00    +0.000 A 
ATOM     19  C   UNL     1       0.898  10.426  18.980  0.00  0.00    +0.000 A 
ATOM     20  C   UNL     1       1.501   9.369  18.310  0.00  0.00    +0.000 A 
BRANCH  19  21
ATOM     21  O   UNL     1       0.588  11.542  18.256  0.00  0.00    +0.000 OA
ATOM     22  H   UNL     1       1.392  12.072  18.154  0.00  0.00    +0.000 HD
ENDBRANCH  19  21
ENDBRANCH  14  15
ENDBRANCH   3  14
BRANCH   5  23
ATOM     23  C   UNL     1       3.648   2.538  18.826  0.00  0.00    +0.000 C 
BRANCH  23  24
ATOM     24  O   UNL     1       3.973   1.430  17.994  0.00  0.00    +0.000 OA
ATOM     25  H   UNL     1       3.763   0.617  18.483  0.00  0.00    +0.000 HD
ENDBRANCH  23  24
ENDBRANCH   5  23
TORSDOF 10
ENDMDL
MODEL 9
REMARK VINA RESULT:      -5.9      2.664      7.088
REMARK  Name = 
REMARK  13 active torsions:
REMARK  status: ('A' for Active; 'I' for Inactive)
REMARK    1  A    between atoms: C_1  and  N_2
REMARK    2  A    between atoms: N_2  and  C_3
REMARK    3  A    between atoms: N_2  and  C_4
REMARK    4  A    between atoms: C_4  and  C_5
REMARK    5  A    between atoms: C_5  and  N_6
REMARK    6  A    between atoms: N_6  and  C_7
REMARK    7  A    between atoms: N_6  and  C_8
REMARK    8  A    between atoms: C_8  and  C_9
REMARK    9  A    between atoms: N_11  and  C_12
REMARK   10  A    between atoms: C_12  and  C_13
REMARK   11  A    between atoms: C_17  and  O_18
REMARK   12  A    between atoms: C_21  and  C_22
REMARK   13  A    between atoms: C_22  and  O_23
REMARK                            x       y       z     vdW  Elec       q    Type
REMARK                         _______ _______ _______ _____ _____    ______ ____
ROOT
ATOM      1  C   UNL     1       4.296   5.598  18.094  0.00  0.00    +0.000 C 
ATOM      2  C   UNL     1       5.811   5.748  18.132  0.00  0.00    +0.000 C 
ATOM      3  N   UNL     1       6.182   5.822  16.702  0.00  0.00    +0.000 NA
ATOM      4  C   UNL     1       5.092   6.590  16.059  0.00  0.00    +0.000 C 
ATOM      5  C   UNL     1       3.901   6.643  17.040  0.00  0.00    +0.000 C 
ENDROOT
BRANCH   1   6
ATOM      6  C   UNL     1       3.615   5.646  19.462  0.00  0.00    +0.000 C 
BRANCH   6   7
ATOM      7  N   UNL     1       2.160   5.349  19.446  0.00  0.00    +0.000 NA
ATOM      8  C   UNL     1       1.569   5.336  20.788  0.00  0.00    +0.000 C 
BRANCH   7   9
ATOM      9  C   UNL     1       1.971   4.041  18.768  0.00  0.00    +0.000 C 
BRANCH   9  10
ATOM     10  C   UNL     1       2.096   2.798  19.682  0.00  0.00    +0.000 C 
BRANCH  10  12
ATOM     11  C   UNL     1       3.480   1.993  17.890  0.00  0.00    +0.000 C 
ATOM     12  N   UNL     1       3.207   1.887  19.326  0.00  0.00    +0.000 NA
ATOM     13  C   UNL     1       4.423   2.174  20.086  0.00  0.00    +0.000 C 
ENDBRANCH  10  12
ENDBRANCH   9  10
ENDBRANCH   7   9
ENDBRANCH   6   7
ENDBRANCH   1   6
BRANCH   3  14
ATOM     14  C   UNL     1       6.323   4.456  16.152  0.00  0.00    +0.000 C 
BRANCH  14  15
ATOM     15  C   UNL     1       6.631   4.423  14.673  0.00  0.00    +0.000 A 
ATOM     16  C   UNL     1       7.610   5.258  14.123  0.00  0.00    +0.000 A 
ATOM     17  C   UNL     1       7.864   5.239  12.752  0.00  0.00    +0.000 A 
ATOM     18  C   UNL     1       7.150   4.376  11.917  0.00  0.00    +0.000 A 
ATOM     19  C   UNL     1       6.197   3.529  12.468  0.00  0.00    +0.000 A 
ATOM     20  C   UNL     1       5.932   3.544  13.832  0.00  0.00    +0.000 A 
BRANCH  19  21
ATOM     21  O   UNL     1       5.484   2.659  11.693  0.00  0.00    +0.000 OA
ATOM     22  H   UNL     1       5.733   1.756  11.941  0.00  0.00    +0.000 HD
ENDBRANCH  19  21
ENDBRANCH  14  15
ENDBRANCH   3  14
BRANCH   5  23
ATOM     23  C   UNL     1       3.686   8.070  17.548  0.00  0.00    +0.000 C 
BRANCH  23  24
ATOM     24  O   UNL     1       2.352   8.504  17.311  0.00  0.00    +0.000 OA
ATOM     25  H   UNL     1       1.856   8.417  18.142  0.00  0.00    +0.000 HD
ENDBRANCH  23  24
ENDBRANCH   5  23
TORSDOF 10
ENDMDL
