MODEL 1
REMARK VINA RESULT:      -8.6      0.000      0.000
REMARK  Name = 
REMARK  5 active torsions:
REMARK  status: ('A' for Active; 'I' for Inactive)
REMARK    1  A    between atoms: C_2  and  O_3
REMARK    2  A    between atoms: O_3  and  C_4
REMARK    3  A    between atoms: C_4  and  C_5
REMARK    4  A    between atoms: N_14  and  C_15
REMARK    5  A    between atoms: C_20  and  C_21
REMARK                            x       y       z     vdW  Elec       q    Type
REMARK                         _______ _______ _______ _____ _____    ______ ____
ROOT
ATOM      1  O   UNL     1       0.748   8.722  21.292  0.00  0.00    +0.000 OA
ATOM      2  C   UNL     1       1.060   9.029  20.145  0.00  0.00    +0.000 C 
ATOM      3  N   UNL     1       1.835   8.228  19.332  0.00  0.00    +0.000 N 
ATOM      4  C   UNL     1       1.978   8.456  17.888  0.00  0.00    +0.000 C 
ATOM      5  C   UNL     1       3.381   8.060  17.390  0.00  0.00    +0.000 C 
ATOM      6  N   UNL     1       3.642   6.664  17.786  0.00  0.00    +0.000 N 
ATOM      7  C   UNL     1       3.601   6.466  19.258  0.00  0.00    +0.000 C 
ATOM      8  C   UNL     1       2.218   6.892  19.798  0.00  0.00    +0.000 C 
ENDROOT
BRANCH   6   9
ATOM      9  C   UNL     1       4.463   5.844  17.018  0.00  0.00    +0.000 A 
ATOM     10  C   UNL     1       5.381   6.352  16.101  0.00  0.00    +0.000 A 
ATOM     11  N   UNL     1       6.209   5.626  15.321  0.00  0.00    +0.000 NA
ATOM     12  C   UNL     1       6.116   4.303  15.471  0.00  0.00    +0.000 A 
ATOM     13  N   UNL     1       5.275   3.664  16.292  0.00  0.00    +0.000 NA
ATOM     14  C   UNL     1       4.435   4.431  17.042  0.00  0.00    +0.000 A 
BRANCH  14  15
ATOM     15  C   UNL     1       3.469   3.626  17.839  0.00  0.00    +0.000 A 
ATOM     16  C   UNL     1       3.891   2.861  18.941  0.00  0.00    +0.000 A 
ATOM     17  C   UNL     1       2.973   2.211  19.775  0.00  0.00    +0.000 A 
ATOM     18  C   UNL     1       1.607   2.321  19.530  0.00  0.00    +0.000 A 
ATOM     19  C   UNL     1       1.165   3.010  18.409  0.00  0.00    +0.000 A 
ATOM     20  C   UNL     1       2.092   3.612  17.552  0.00  0.00    +0.000 A 
ENDBRANCH  14  15
ENDBRANCH   6   9
BRANCH   2  21
ATOM     21  O   UNL     1       0.672  10.174  19.532  0.00  0.00    +0.000 OA
BRANCH  21  22
ATOM     22  C   UNL     1      -0.608  10.677  19.923  0.00  0.00    +0.000 C 
BRANCH  22  23
ATOM     23  C   UNL     1      -1.563  10.740  18.759  0.00  0.00    +0.000 A 
ATOM     24  C   UNL     1      -1.347   9.956  17.618  0.00  0.00    +0.000 A 
ATOM     25  C   UNL     1      -2.275   9.951  16.575  0.00  0.00    +0.000 A 
ATOM     26  C   UNL     1      -3.420  10.741  16.656  0.00  0.00    +0.000 A 
ATOM     27  C   UNL     1      -3.628  11.552  17.770  0.00  0.00    +0.000 A 
ATOM     28  C   UNL     1      -2.700  11.558  18.815  0.00  0.00    +0.000 A 
ENDBRANCH  22  23
ENDBRANCH  21  22
ENDBRANCH   2  21
TORSDOF 5
ENDMDL
MODEL 2
REMARK VINA RESULT:      -8.2      3.816      8.435
REMARK  Name = 
REMARK  5 active torsions:
REMARK  status: ('A' for Active; 'I' for Inactive)
REMARK    1  A    between atoms: C_2  and  O_3
REMARK    2  A    between atoms: O_3  and  C_4
REMARK    3  A    between atoms: C_4  and  C_5
REMARK    4  A    between atoms: N_14  and  C_15
REMARK    5  A    between atoms: C_20  and  C_21
REMARK                            x       y       z     vdW  Elec       q    Type
REMARK                         _______ _______ _______ _____ _____    ______ ____
ROOT
ATOM      1  O   UNL     1       7.750   5.941  15.393  0.00  0.00    +0.000 OA
ATOM      2  C   UNL     1       6.682   5.344  15.285  0.00  0.00    +0.000 C 
ATOM      3  N   UNL     1       5.873   5.039  16.360  0.00  0.00    +0.000 N 
ATOM      4  C   UNL     1       4.486   4.581  16.212  0.00  0.00    +0.000 C 
ATOM      5  C   UNL     1       4.099   3.585  17.322  0.00  0.00    +0.000 C 
ATOM      6  N   UNL     1       4.367   4.211  18.629  0.00  0.00    +0.000 N 
ATOM      7  C   UNL     1       5.796   4.574  18.812  0.00  0.00    +0.000 C 
ATOM      8  C   UNL     1       6.230   5.544  17.690  0.00  0.00    +0.000 C 
ENDROOT
BRANCH   6   9
ATOM      9  C   UNL     1       3.606   3.887  19.748  0.00  0.00    +0.000 A 
ATOM     10  C   UNL     1       3.685   2.643  20.372  0.00  0.00    +0.000 A 
ATOM     11  N   UNL     1       2.982   2.252  21.456  0.00  0.00    +0.000 NA
ATOM     12  C   UNL     1       2.149   3.169  21.953  0.00  0.00    +0.000 A 
ATOM     13  N   UNL     1       1.946   4.395  21.458  0.00  0.00    +0.000 NA
ATOM     14  C   UNL     1       2.652   4.742  20.346  0.00  0.00    +0.000 A 
BRANCH  14  15
ATOM     15  C   UNL     1       2.278   6.081  19.813  0.00  0.00    +0.000 A 
ATOM     16  C   UNL     1       1.723   7.069  20.647  0.00  0.00    +0.000 A 
ATOM     17  C   UNL     1       1.495   8.371  20.185  0.00  0.00    +0.000 A 
ATOM     18  C   UNL     1       1.826   8.717  18.879  0.00  0.00    +0.000 A 
ATOM     19  C   UNL     1       2.310   7.745  18.014  0.00  0.00    +0.000 A 
ATOM     20  C   UNL     1       2.485   6.435  18.468  0.00  0.00    +0.000 A 
ENDBRANCH  14  15
ENDBRANCH   6   9
BRANCH   2  21
ATOM     21  O   UNL     1       6.159   4.928  14.106  0.00  0.00    +0.000 OA
BRANCH  21  22
ATOM     22  C   UNL     1       7.113   4.592  13.095  0.00  0.00    +0.000 C 
BRANCH  22  23
ATOM     23  C   UNL     1       6.636   3.451  12.234  0.00  0.00    +0.000 A 
ATOM     24  C   UNL     1       7.554   2.572  11.645  0.00  0.00    +0.000 A 
ATOM     25  C   UNL     1       7.110   1.467  10.916  0.00  0.00    +0.000 A 
ATOM     26  C   UNL     1       5.744   1.238  10.757  0.00  0.00    +0.000 A 
ATOM     27  C   UNL     1       4.821   2.126  11.309  0.00  0.00    +0.000 A 
ATOM     28  C   UNL     1       5.264   3.232  12.039  0.00  0.00    +0.000 A 
ENDBRANCH  22  23
ENDBRANCH  21  22
ENDBRANCH   2  21
TORSDOF 5
ENDMDL
MODEL 3
REMARK VINA RESULT:      -8.2      1.744      2.228
REMARK  Name = 
REMARK  5 active torsions:
REMARK  status: ('A' for Active; 'I' for Inactive)
REMARK    1  A    between atoms: C_2  and  O_3
REMARK    2  A    between atoms: O_3  and  C_4
REMARK    3  A    between atoms: C_4  and  C_5
REMARK    4  A    between atoms: N_14  and  C_15
REMARK    5  A    between atoms: C_20  and  C_21
REMARK                            x       y       z     vdW  Elec       q    Type
REMARK                         _______ _______ _______ _____ _____    ______ ____
ROOT
ATOM      1  O   UNL     1       0.824   8.417  21.684  0.00  0.00    +0.000 OA
ATOM      2  C   UNL     1       1.079   8.820  20.553  0.00  0.00    +0.000 C 
ATOM      3  N   UNL     1       1.819   8.095  19.641  0.00  0.00    +0.000 N 
ATOM      4  C   UNL     1       1.891   8.441  18.215  0.00  0.00    +0.000 C 
ATOM      5  C   UNL     1       3.270   8.100  17.621  0.00  0.00    +0.000 C 
ATOM      6  N   UNL     1       3.559   6.679  17.889  0.00  0.00    +0.000 N 
ATOM      7  C   UNL     1       3.589   6.361  19.339  0.00  0.00    +0.000 C 
ATOM      8  C   UNL     1       2.231   6.729  19.978  0.00  0.00    +0.000 C 
ENDROOT
BRANCH   6   9
ATOM      9  C   UNL     1       4.346   5.931  17.018  0.00  0.00    +0.000 A 
ATOM     10  C   UNL     1       5.207   6.522  16.095  0.00  0.00    +0.000 A 
ATOM     11  N   UNL     1       6.000   5.869  15.219  0.00  0.00    +0.000 NA
ATOM     12  C   UNL     1       5.931   4.538  15.273  0.00  0.00    +0.000 A 
ATOM     13  N   UNL     1       5.142   3.826  16.087  0.00  0.00    +0.000 NA
ATOM     14  C   UNL     1       4.335   4.520  16.936  0.00  0.00    +0.000 A 
BRANCH  14  15
ATOM     15  C   UNL     1       3.423   3.643  17.720  0.00  0.00    +0.000 A 
ATOM     16  C   UNL     1       3.917   2.779  18.714  0.00  0.00    +0.000 A 
ATOM     17  C   UNL     1       3.056   2.053  19.545  0.00  0.00    +0.000 A 
ATOM     18  C   UNL     1       1.677   2.182  19.407  0.00  0.00    +0.000 A 
ATOM     19  C   UNL     1       1.162   2.973  18.389  0.00  0.00    +0.000 A 
ATOM     20  C   UNL     1       2.030   3.654  17.530  0.00  0.00    +0.000 A 
ENDBRANCH  14  15
ENDBRANCH   6   9
BRANCH   2  21
ATOM     21  O   UNL     1       0.656  10.007  20.054  0.00  0.00    +0.000 OA
BRANCH  21  22
ATOM     22  C   UNL     1       0.813  11.130  20.925  0.00  0.00    +0.000 C 
BRANCH  22  23
ATOM     23  C   UNL     1      -0.515  11.658  21.402  0.00  0.00    +0.000 A 
ATOM     24  C   UNL     1      -1.371  12.331  20.520  0.00  0.00    +0.000 A 
ATOM     25  C   UNL     1      -2.637  12.746  20.940  0.00  0.00    +0.000 A 
ATOM     26  C   UNL     1      -3.052  12.506  22.248  0.00  0.00    +0.000 A 
ATOM     27  C   UNL     1      -2.195  11.868  23.144  0.00  0.00    +0.000 A 
ATOM     28  C   UNL     1      -0.929  11.452  22.726  0.00  0.00    +0.000 A 
ENDBRANCH  22  23
ENDBRANCH  21  22
ENDBRANCH   2  21
TORSDOF 5
ENDMDL
MODEL 4
REMARK VINA RESULT:      -8.1      1.955      3.758
REMARK  Name = 
REMARK  5 active torsions:
REMARK  status: ('A' for Active; 'I' for Inactive)
REMARK    1  A    between atoms: C_2  and  O_3
REMARK    2  A    between atoms: O_3  and  C_4
REMARK    3  A    between atoms: C_4  and  C_5
REMARK    4  A    between atoms: N_14  and  C_15
REMARK    5  A    between atoms: C_20  and  C_21
REMARK                            x       y       z     vdW  Elec       q    Type
REMARK                         _______ _______ _______ _____ _____    ______ ____
ROOT
ATOM      1  O   UNL     1       1.875  10.073  17.285  0.00  0.00    +0.000 OA
ATOM      2  C   UNL     1       1.576   9.548  18.354  0.00  0.00    +0.000 C 
ATOM      3  N   UNL     1       2.074   8.328  18.762  0.00  0.00    +0.000 N 
ATOM      4  C   UNL     1       1.943   7.831  20.138  0.00  0.00    +0.000 C 
ATOM      5  C   UNL     1       1.792   6.299  20.173  0.00  0.00    +0.000 C 
ATOM      6  N   UNL     1       2.924   5.699  19.444  0.00  0.00    +0.000 N 
ATOM      7  C   UNL     1       2.985   6.125  18.023  0.00  0.00    +0.000 C 
ATOM      8  C   UNL     1       3.096   7.664  17.948  0.00  0.00    +0.000 C 
ENDROOT
BRANCH   6   9
ATOM      9  C   UNL     1       3.417   4.445  19.794  0.00  0.00    +0.000 A 
ATOM     10  C   UNL     1       2.718   3.572  20.625  0.00  0.00    +0.000 A 
ATOM     11  N   UNL     1       3.126   2.344  21.011  0.00  0.00    +0.000 NA
ATOM     12  C   UNL     1       4.310   1.963  20.529  0.00  0.00    +0.000 A 
ATOM     13  N   UNL     1       5.107   2.691  19.738  0.00  0.00    +0.000 NA
ATOM     14  C   UNL     1       4.674   3.936  19.395  0.00  0.00    +0.000 A 
BRANCH  14  15
ATOM     15  C   UNL     1       5.676   4.704  18.605  0.00  0.00    +0.000 A 
ATOM     16  C   UNL     1       5.671   4.677  17.199  0.00  0.00    +0.000 A 
ATOM     17  C   UNL     1       6.522   5.500  16.451  0.00  0.00    +0.000 A 
ATOM     18  C   UNL     1       7.391   6.377  17.094  0.00  0.00    +0.000 A 
ATOM     19  C   UNL     1       7.466   6.373  18.480  0.00  0.00    +0.000 A 
ATOM     20  C   UNL     1       6.651   5.511  19.219  0.00  0.00    +0.000 A 
ENDBRANCH  14  15
ENDBRANCH   6   9
BRANCH   2  21
ATOM     21  O   UNL     1       0.744  10.103  19.268  0.00  0.00    +0.000 OA
BRANCH  21  22
ATOM     22  C   UNL     1       0.117  11.324  18.867  0.00  0.00    +0.000 C 
BRANCH  22  23
ATOM     23  C   UNL     1      -1.309  11.105  18.433  0.00  0.00    +0.000 A 
ATOM     24  C   UNL     1      -1.634  10.054  17.565  0.00  0.00    +0.000 A 
ATOM     25  C   UNL     1      -2.966   9.799  17.228  0.00  0.00    +0.000 A 
ATOM     26  C   UNL     1      -3.982  10.601  17.745  0.00  0.00    +0.000 A 
ATOM     27  C   UNL     1      -3.667  11.670  18.582  0.00  0.00    +0.000 A 
ATOM     28  C   UNL     1      -2.336  11.927  18.919  0.00  0.00    +0.000 A 
ENDBRANCH  22  23
ENDBRANCH  21  22
ENDBRANCH   2  21
TORSDOF 5
ENDMDL
MODEL 5
REMARK VINA RESULT:      -8.1      1.977      3.780
REMARK  Name = 
REMARK  5 active torsions:
REMARK  status: ('A' for Active; 'I' for Inactive)
REMARK    1  A    between atoms: C_2  and  O_3
REMARK    2  A    between atoms: O_3  and  C_4
REMARK    3  A    between atoms: C_4  and  C_5
REMARK    4  A    between atoms: N_14  and  C_15
REMARK    5  A    between atoms: C_20  and  C_21
REMARK                            x       y       z     vdW  Elec       q    Type
REMARK                         _______ _______ _______ _____ _____    ______ ____
ROOT
ATOM      1  O   UNL     1       1.788  10.036  17.337  0.00  0.00    +0.000 OA
ATOM      2  C   UNL     1       1.496   9.563  18.432  0.00  0.00    +0.000 C 
ATOM      3  N   UNL     1       1.954   8.339  18.874  0.00  0.00    +0.000 N 
ATOM      4  C   UNL     1       1.839   7.899  20.270  0.00  0.00    +0.000 C 
ATOM      5  C   UNL     1       1.627   6.376  20.366  0.00  0.00    +0.000 C 
ATOM      6  N   UNL     1       2.715   5.704  19.633  0.00  0.00    +0.000 N 
ATOM      7  C   UNL     1       2.756   6.075  18.196  0.00  0.00    +0.000 C 
ATOM      8  C   UNL     1       2.928   7.604  18.061  0.00  0.00    +0.000 C 
ENDROOT
BRANCH   6   9
ATOM      9  C   UNL     1       3.166   4.444  20.018  0.00  0.00    +0.000 A 
ATOM     10  C   UNL     1       2.487   3.659  20.948  0.00  0.00    +0.000 A 
ATOM     11  N   UNL     1       2.858   2.433  21.373  0.00  0.00    +0.000 NA
ATOM     12  C   UNL     1       3.979   1.958  20.827  0.00  0.00    +0.000 A 
ATOM     13  N   UNL     1       4.751   2.596  19.939  0.00  0.00    +0.000 NA
ATOM     14  C   UNL     1       4.359   3.843  19.557  0.00  0.00    +0.000 A 
BRANCH  14  15
ATOM     15  C   UNL     1       5.337   4.509  18.652  0.00  0.00    +0.000 A 
ATOM     16  C   UNL     1       6.285   5.421  19.147  0.00  0.00    +0.000 A 
ATOM     17  C   UNL     1       7.291   5.947  18.327  0.00  0.00    +0.000 A 
ATOM     18  C   UNL     1       7.378   5.561  16.993  0.00  0.00    +0.000 A 
ATOM     19  C   UNL     1       6.413   4.717  16.460  0.00  0.00    +0.000 A 
ATOM     20  C   UNL     1       5.381   4.238  17.273  0.00  0.00    +0.000 A 
ENDBRANCH  14  15
ENDBRANCH   6   9
BRANCH   2  21
ATOM     21  O   UNL     1       0.710  10.185  19.345  0.00  0.00    +0.000 OA
BRANCH  21  22
ATOM     22  C   UNL     1       0.042  11.362  18.881  0.00  0.00    +0.000 C 
BRANCH  22  23
ATOM     23  C   UNL     1      -1.394  11.084  18.519  0.00  0.00    +0.000 A 
ATOM     24  C   UNL     1      -2.424  11.879  19.037  0.00  0.00    +0.000 A 
ATOM     25  C   UNL     1      -3.747  11.675  18.636  0.00  0.00    +0.000 A 
ATOM     26  C   UNL     1      -4.052  10.664  17.726  0.00  0.00    +0.000 A 
ATOM     27  C   UNL     1      -3.039   9.844  17.232  0.00  0.00    +0.000 A 
ATOM     28  C   UNL     1      -1.716  10.047  17.631  0.00  0.00    +0.000 A 
ENDBRANCH  22  23
ENDBRANCH  21  22
ENDBRANCH   2  21
TORSDOF 5
ENDMDL
MODEL 6
REMARK VINA RESULT:      -8.0      3.793      8.241
REMARK  Name = 
REMARK  5 active torsions:
REMARK  status: ('A' for Active; 'I' for Inactive)
REMARK    1  A    between atoms: C_2  and  O_3
REMARK    2  A    between atoms: O_3  and  C_4
REMARK    3  A    between atoms: C_4  and  C_5
REMARK    4  A    between atoms: N_14  and  C_15
REMARK    5  A    between atoms: C_20  and  C_21
REMARK                            x       y       z     vdW  Elec       q    Type
REMARK                         _______ _______ _______ _____ _____    ______ ____
ROOT
ATOM      1  O   UNL     1       7.744   6.145  15.767  0.00  0.00    +0.000 OA
ATOM      2  C   UNL     1       7.040   5.141  15.723  0.00  0.00    +0.000 C 
ATOM      3  N   UNL     1       6.086   4.844  16.675  0.00  0.00    +0.000 N 
ATOM      4  C   UNL     1       5.063   3.807  16.485  0.00  0.00    +0.000 C 
ATOM      5  C   UNL     1       4.708   3.115  17.815  0.00  0.00    +0.000 C 
ATOM      6  N   UNL     1       4.315   4.147  18.791  0.00  0.00    +0.000 N 
ATOM      7  C   UNL     1       5.395   5.131  19.056  0.00  0.00    +0.000 C 
ATOM      8  C   UNL     1       5.805   5.818  17.734  0.00  0.00    +0.000 C 
ENDROOT
BRANCH   6   9
ATOM      9  C   UNL     1       3.396   3.867  19.798  0.00  0.00    +0.000 A 
ATOM     10  C   UNL     1       3.348   2.633  20.444  0.00  0.00    +0.000 A 
ATOM     11  N   UNL     1       2.490   2.284  21.426  0.00  0.00    +0.000 NA
ATOM     12  C   UNL     1       1.625   3.234  21.789  0.00  0.00    +0.000 A 
ATOM     13  N   UNL     1       1.533   4.456  21.253  0.00  0.00    +0.000 NA
ATOM     14  C   UNL     1       2.397   4.761  20.245  0.00  0.00    +0.000 A 
BRANCH  14  15
ATOM     15  C   UNL     1       2.143   6.101  19.647  0.00  0.00    +0.000 A 
ATOM     16  C   UNL     1       1.794   7.203  20.447  0.00  0.00    +0.000 A 
ATOM     17  C   UNL     1       1.686   8.492  19.910  0.00  0.00    +0.000 A 
ATOM     18  C   UNL     1       1.937   8.708  18.558  0.00  0.00    +0.000 A 
ATOM     19  C   UNL     1       2.214   7.628  17.731  0.00  0.00    +0.000 A 
ATOM     20  C   UNL     1       2.268   6.338  18.266  0.00  0.00    +0.000 A 
ENDBRANCH  14  15
ENDBRANCH   6   9
BRANCH   2  21
ATOM     21  O   UNL     1       7.095   4.215  14.735  0.00  0.00    +0.000 OA
BRANCH  21  22
ATOM     22  C   UNL     1       6.877   4.714  13.412  0.00  0.00    +0.000 C 
BRANCH  22  23
ATOM     23  C   UNL     1       6.171   3.705  12.544  0.00  0.00    +0.000 A 
ATOM     24  C   UNL     1       4.814   3.859  12.234  0.00  0.00    +0.000 A 
ATOM     25  C   UNL     1       4.180   2.971  11.362  0.00  0.00    +0.000 A 
ATOM     26  C   UNL     1       4.894   1.913  10.803  0.00  0.00    +0.000 A 
ATOM     27  C   UNL     1       6.236   1.729  11.132  0.00  0.00    +0.000 A 
ATOM     28  C   UNL     1       6.872   2.616  12.004  0.00  0.00    +0.000 A 
ENDBRANCH  22  23
ENDBRANCH  21  22
ENDBRANCH   2  21
TORSDOF 5
ENDMDL
MODEL 7
REMARK VINA RESULT:      -8.0      1.705      2.412
REMARK  Name = 
REMARK  5 active torsions:
REMARK  status: ('A' for Active; 'I' for Inactive)
REMARK    1  A    between atoms: C_2  and  O_3
REMARK    2  A    between atoms: O_3  and  C_4
REMARK    3  A    between atoms: C_4  and  C_5
REMARK    4  A    between atoms: N_14  and  C_15
REMARK    5  A    between atoms: C_20  and  C_21
REMARK                            x       y       z     vdW  Elec       q    Type
REMARK                         _______ _______ _______ _____ _____    ______ ____
ROOT
ATOM      1  O   UNL     1       0.813   8.541  21.666  0.00  0.00    +0.000 OA
ATOM      2  C   UNL     1       1.069   8.936  20.533  0.00  0.00    +0.000 C 
ATOM      3  N   UNL     1       1.804   8.202  19.624  0.00  0.00    +0.000 N 
ATOM      4  C   UNL     1       1.877   8.540  18.197  0.00  0.00    +0.000 C 
ATOM      5  C   UNL     1       3.254   8.188  17.603  0.00  0.00    +0.000 C 
ATOM      6  N   UNL     1       3.535   6.767  17.879  0.00  0.00    +0.000 N 
ATOM      7  C   UNL     1       3.565   6.458  19.331  0.00  0.00    +0.000 C 
ATOM      8  C   UNL     1       2.210   6.836  19.969  0.00  0.00    +0.000 C 
ENDROOT
BRANCH   6   9
ATOM      9  C   UNL     1       4.318   6.010  17.012  0.00  0.00    +0.000 A 
ATOM     10  C   UNL     1       5.147   6.591  16.054  0.00  0.00    +0.000 A 
ATOM     11  N   UNL     1       5.934   5.929  15.179  0.00  0.00    +0.000 NA
ATOM     12  C   UNL     1       5.891   4.599  15.271  0.00  0.00    +0.000 A 
ATOM     13  N   UNL     1       5.135   3.895  16.121  0.00  0.00    +0.000 NA
ATOM     14  C   UNL     1       4.333   4.598  16.969  0.00  0.00    +0.000 A 
BRANCH  14  15
ATOM     15  C   UNL     1       3.455   3.725  17.797  0.00  0.00    +0.000 A 
ATOM     16  C   UNL     1       2.060   3.711  17.615  0.00  0.00    +0.000 A 
ATOM     17  C   UNL     1       1.245   2.798  18.295  0.00  0.00    +0.000 A 
ATOM     18  C   UNL     1       1.808   1.870  19.165  0.00  0.00    +0.000 A 
ATOM     19  C   UNL     1       3.173   1.908  19.417  0.00  0.00    +0.000 A 
ATOM     20  C   UNL     1       3.973   2.857  18.774  0.00  0.00    +0.000 A 
ENDBRANCH  14  15
ENDBRANCH   6   9
BRANCH   2  21
ATOM     21  O   UNL     1       0.652  10.123  20.027  0.00  0.00    +0.000 OA
BRANCH  21  22
ATOM     22  C   UNL     1       0.704  11.228  20.933  0.00  0.00    +0.000 C 
BRANCH  22  23
ATOM     23  C   UNL     1      -0.672  11.655  21.373  0.00  0.00    +0.000 A 
ATOM     24  C   UNL     1      -1.084  11.471  22.700  0.00  0.00    +0.000 A 
ATOM     25  C   UNL     1      -2.327  11.942  23.129  0.00  0.00    +0.000 A 
ATOM     26  C   UNL     1      -3.176  12.587  22.232  0.00  0.00    +0.000 A 
ATOM     27  C   UNL     1      -2.792  12.745  20.901  0.00  0.00    +0.000 A 
ATOM     28  C   UNL     1      -1.549  12.275  20.470  0.00  0.00    +0.000 A 
ENDBRANCH  22  23
ENDBRANCH  21  22
ENDBRANCH   2  21
TORSDOF 5
ENDMDL
MODEL 8
REMARK VINA RESULT:      -7.9      1.553      2.522
REMARK  Name = 
REMARK  5 active torsions:
REMARK  status: ('A' for Active; 'I' for Inactive)
REMARK    1  A    between atoms: C_2  and  O_3
REMARK    2  A    between atoms: O_3  and  C_4
REMARK    3  A    between atoms: C_4  and  C_5
REMARK    4  A    between atoms: N_14  and  C_15
REMARK    5  A    between atoms: C_20  and  C_21
REMARK                            x       y       z     vdW  Elec       q    Type
REMARK                         _______ _______ _______ _____ _____    ______ ____
ROOT
ATOM      1  O   UNL     1       0.854   8.496  21.466  0.00  0.00    +0.000 OA
ATOM      2  C   UNL     1       1.151   8.861  20.332  0.00  0.00    +0.000 C 
ATOM      3  N   UNL     1       1.898   8.094  19.461  0.00  0.00    +0.000 N 
ATOM      4  C   UNL     1       2.018   8.399  18.030  0.00  0.00    +0.000 C 
ATOM      5  C   UNL     1       3.405   8.010  17.485  0.00  0.00    +0.000 C 
ATOM      6  N   UNL     1       3.651   6.591  17.799  0.00  0.00    +0.000 N 
ATOM      7  C   UNL     1       3.633   6.312  19.258  0.00  0.00    +0.000 C 
ATOM      8  C   UNL     1       2.267   6.729  19.847  0.00  0.00    +0.000 C 
ENDROOT
BRANCH   6   9
ATOM      9  C   UNL     1       4.444   5.801  16.971  0.00  0.00    +0.000 A 
ATOM     10  C   UNL     1       5.316   6.345  16.030  0.00  0.00    +0.000 A 
ATOM     11  N   UNL     1       6.115   5.651  15.193  0.00  0.00    +0.000 NA
ATOM     12  C   UNL     1       6.041   4.323  15.309  0.00  0.00    +0.000 A 
ATOM     13  N   UNL     1       5.243   3.652  16.147  0.00  0.00    +0.000 NA
ATOM     14  C   UNL     1       4.430   4.388  16.955  0.00  0.00    +0.000 A 
BRANCH  14  15
ATOM     15  C   UNL     1       3.509   3.550  17.771  0.00  0.00    +0.000 A 
ATOM     16  C   UNL     1       3.983   2.782  18.849  0.00  0.00    +0.000 A 
ATOM     17  C   UNL     1       3.106   2.100  19.702  0.00  0.00    +0.000 A 
ATOM     18  C   UNL     1       1.732   2.180  19.501  0.00  0.00    +0.000 A 
ATOM     19  C   UNL     1       1.239   2.873  18.403  0.00  0.00    +0.000 A 
ATOM     20  C   UNL     1       2.124   3.508  17.527  0.00  0.00    +0.000 A 
ENDBRANCH  14  15
ENDBRANCH   6   9
BRANCH   2  21
ATOM     21  O   UNL     1       0.770  10.044  19.790  0.00  0.00    +0.000 OA
BRANCH  21  22
ATOM     22  C   UNL     1      -0.586  10.424  20.034  0.00  0.00    +0.000 C 
BRANCH  22  23
ATOM     23  C   UNL     1      -0.676  11.607  20.963  0.00  0.00    +0.000 A 
ATOM     24  C   UNL     1      -1.315  11.490  22.205  0.00  0.00    +0.000 A 
ATOM     25  C   UNL     1      -1.326  12.561  23.100  0.00  0.00    +0.000 A 
ATOM     26  C   UNL     1      -0.711  13.764  22.757  0.00  0.00    +0.000 A 
ATOM     27  C   UNL     1      -0.104  13.904  21.510  0.00  0.00    +0.000 A 
ATOM     28  C   UNL     1      -0.092  12.833  20.613  0.00  0.00    +0.000 A 
ENDBRANCH  22  23
ENDBRANCH  21  22
ENDBRANCH   2  21
TORSDOF 5
ENDMDL
MODEL 9
REMARK VINA RESULT:      -7.8      1.655      3.123
REMARK  Name = 
REMARK  5 active torsions:
REMARK  status: ('A' for Active; 'I' for Inactive)
REMARK    1  A    between atoms: C_2  and  O_3
REMARK    2  A    between atoms: O_3  and  C_4
REMARK    3  A    between atoms: C_4  and  C_5
REMARK    4  A    between atoms: N_14  and  C_15
REMARK    5  A    between atoms: C_20  and  C_21
REMARK                            x       y       z     vdW  Elec       q    Type
REMARK                         _______ _______ _______ _____ _____    ______ ____
ROOT
ATOM      1  O   UNL     1       1.017  10.172  21.293  0.00  0.00    +0.000 OA
ATOM      2  C   UNL     1       1.201   9.934  20.103  0.00  0.00    +0.000 C 
ATOM      3  N   UNL     1       1.499   8.677  19.619  0.00  0.00    +0.000 N 
ATOM      4  C   UNL     1       1.446   8.336  18.192  0.00  0.00    +0.000 C 
ATOM      5  C   UNL     1       2.518   7.294  17.819  0.00  0.00    +0.000 C 
ATOM      6  N   UNL     1       2.361   6.124  18.702  0.00  0.00    +0.000 N 
ATOM      7  C   UNL     1       2.523   6.460  20.140  0.00  0.00    +0.000 C 
ATOM      8  C   UNL     1       1.487   7.535  20.539  0.00  0.00    +0.000 C 
ENDROOT
BRANCH   6   9
ATOM      9  C   UNL     1       2.702   4.847  18.266  0.00  0.00    +0.000 A 
ATOM     10  C   UNL     1       1.764   3.824  18.140  0.00  0.00    +0.000 A 
ATOM     11  N   UNL     1       2.014   2.564  17.726  0.00  0.00    +0.000 NA
ATOM     12  C   UNL     1       3.287   2.311  17.413  0.00  0.00    +0.000 A 
ATOM     13  N   UNL     1       4.303   3.178  17.499  0.00  0.00    +0.000 NA
ATOM     14  C   UNL     1       4.015   4.431  17.948  0.00  0.00    +0.000 A 
BRANCH  14  15
ATOM     15  C   UNL     1       5.226   5.283  18.109  0.00  0.00    +0.000 A 
ATOM     16  C   UNL     1       6.058   5.163  19.236  0.00  0.00    +0.000 A 
ATOM     17  C   UNL     1       7.267   5.864  19.329  0.00  0.00    +0.000 A 
ATOM     18  C   UNL     1       7.676   6.694  18.289  0.00  0.00    +0.000 A 
ATOM     19  C   UNL     1       6.841   6.886  17.197  0.00  0.00    +0.000 A 
ATOM     20  C   UNL     1       5.611   6.223  17.136  0.00  0.00    +0.000 A 
ENDBRANCH  14  15
ENDBRANCH   6   9
BRANCH   2  21
ATOM     21  O   UNL     1       1.118  10.864  19.120  0.00  0.00    +0.000 OA
BRANCH  21  22
ATOM     22  C   UNL     1       0.110  11.862  19.302  0.00  0.00    +0.000 C 
BRANCH  22  23
ATOM     23  C   UNL     1      -1.201  11.451  18.685  0.00  0.00    +0.000 A 
ATOM     24  C   UNL     1      -1.250  10.422  17.736  0.00  0.00    +0.000 A 
ATOM     25  C   UNL     1      -2.475   9.984  17.227  0.00  0.00    +0.000 A 
ATOM     26  C   UNL     1      -3.661  10.582  17.651  0.00  0.00    +0.000 A 
ATOM     27  C   UNL     1      -3.622  11.630  18.569  0.00  0.00    +0.000 A 
ATOM     28  C   UNL     1      -2.397  12.069  19.079  0.00  0.00    +0.000 A 
ENDBRANCH  22  23
ENDBRANCH  21  22
ENDBRANCH   2  21
TORSDOF 5
ENDMDL
