MODEL 1
REMARK VINA RESULT:      -8.6      0.000      0.000
REMARK  Name = 
REMARK  6 active torsions:
REMARK  status: ('A' for Active; 'I' for Inactive)
REMARK    1  A    between atoms: C_1  and  O_2
REMARK    2  A    between atoms: O_2  and  C_3
REMARK    3  A    between atoms: C_8  and  C_9
REMARK    4  A    between atoms: C_11  and  N_12
REMARK    5  A    between atoms: N_12  and  C_13
REMARK    6  A    between atoms: C_16  and  N_17
REMARK                            x       y       z     vdW  Elec       q    Type
REMARK                         _______ _______ _______ _____ _____    ______ ____
ROOT
ATOM      1  N   UNL     1       2.875   6.713  19.942  0.00  0.00    +0.000 N 
ATOM      2  H   UNL     1       3.517   6.738  20.746  0.00  0.00    +0.000 HD
ENDROOT
BRANCH   1  11
ATOM      3  C   UNL     1       5.823   6.010  16.790  0.00  0.00    +0.000 A 
ATOM      4  C   UNL     1       5.737   4.810  16.058  0.00  0.00    +0.000 A 
ATOM      5  C   UNL     1       4.740   3.885  16.335  0.00  0.00    +0.000 A 
ATOM      6  C   UNL     1       3.802   4.141  17.338  0.00  0.00    +0.000 A 
ATOM      7  N   UNL     1       2.809   3.239  17.548  0.00  0.00    +0.000 NA
ATOM      8  C   UNL     1       1.850   3.429  18.484  0.00  0.00    +0.000 A 
ATOM      9  C   UNL     1       0.771   2.409  18.657  0.00  0.00    +0.000 C 
ATOM     10  C   UNL     1       1.870   4.578  19.274  0.00  0.00    +0.000 A 
ATOM     11  C   UNL     1       2.872   5.552  19.100  0.00  0.00    +0.000 A 
ATOM     12  C   UNL     1       3.868   5.330  18.110  0.00  0.00    +0.000 A 
ATOM     13  C   UNL     1       4.898   6.257  17.823  0.00  0.00    +0.000 A 
BRANCH   3  15
ATOM     14  C   UNL     1       7.513   7.627  17.456  0.00  0.00    +0.000 C 
ATOM     15  O   UNL     1       6.766   6.946  16.512  0.00  0.00    +0.000 OA
ENDBRANCH   3  15
ENDBRANCH   1  11
BRANCH   1  16
ATOM     16  C   UNL     1       2.026   7.851  19.743  0.00  0.00    +0.000 A 
ATOM     17  C   UNL     1       1.927   8.440  18.473  0.00  0.00    +0.000 A 
ATOM     18  C   UNL     1       1.067   9.524  18.255  0.00  0.00    +0.000 A 
ATOM     19  C   UNL     1       0.275  10.044  19.301  0.00  0.00    +0.000 A 
ATOM     20  C   UNL     1       0.383   9.448  20.571  0.00  0.00    +0.000 A 
ATOM     21  C   UNL     1       1.236   8.368  20.786  0.00  0.00    +0.000 A 
BRANCH  19  22
ATOM     22  N   UNL     1      -0.640  11.131  19.083  0.00  0.00    +0.000 N 
ATOM     23  C   UNL     1      -0.779  12.241  20.012  0.00  0.00    +0.000 C 
ATOM     24  C   UNL     1      -2.245  12.334  20.439  0.00  0.00    +0.000 C 
ATOM     25  O   UNL     1      -3.085  12.462  19.301  0.00  0.00    +0.000 OA
ATOM     26  C   UNL     1      -2.964  11.314  18.474  0.00  0.00    +0.000 C 
ATOM     27  C   UNL     1      -1.531  11.187  17.935  0.00  0.00    +0.000 C 
ENDBRANCH  19  22
ENDBRANCH   1  16
TORSDOF 4
ENDMDL
MODEL 2
REMARK VINA RESULT:      -8.5      0.637      1.258
REMARK  Name = 
REMARK  6 active torsions:
REMARK  status: ('A' for Active; 'I' for Inactive)
REMARK    1  A    between atoms: C_1  and  O_2
REMARK    2  A    between atoms: O_2  and  C_3
REMARK    3  A    between atoms: C_8  and  C_9
REMARK    4  A    between atoms: C_11  and  N_12
REMARK    5  A    between atoms: N_12  and  C_13
REMARK    6  A    between atoms: C_16  and  N_17
REMARK                            x       y       z     vdW  Elec       q    Type
REMARK                         _______ _______ _______ _____ _____    ______ ____
ROOT
ATOM      1  N   UNL     1       2.904   6.658  19.890  0.00  0.00    +0.000 N 
ATOM      2  H   UNL     1       3.515   6.691  20.718  0.00  0.00    +0.000 HD
ENDROOT
BRANCH   1  11
ATOM      3  C   UNL     1       5.918   5.880  16.818  0.00  0.00    +0.000 A 
ATOM      4  C   UNL     1       5.844   4.666  16.111  0.00  0.00    +0.000 A 
ATOM      5  C   UNL     1       4.839   3.749  16.386  0.00  0.00    +0.000 A 
ATOM      6  C   UNL     1       3.880   4.028  17.363  0.00  0.00    +0.000 A 
ATOM      7  N   UNL     1       2.881   3.133  17.571  0.00  0.00    +0.000 NA
ATOM      8  C   UNL     1       1.903   3.345  18.481  0.00  0.00    +0.000 A 
ATOM      9  C   UNL     1       0.818   2.331  18.653  0.00  0.00    +0.000 C 
ATOM     10  C   UNL     1       1.909   4.510  19.247  0.00  0.00    +0.000 A 
ATOM     11  C   UNL     1       2.916   5.478  19.074  0.00  0.00    +0.000 A 
ATOM     12  C   UNL     1       3.933   5.234  18.110  0.00  0.00    +0.000 A 
ATOM     13  C   UNL     1       4.972   6.152  17.825  0.00  0.00    +0.000 A 
BRANCH   3  15
ATOM     14  C   UNL     1       7.448   7.656  17.467  0.00  0.00    +0.000 C 
ATOM     15  O   UNL     1       6.868   6.808  16.540  0.00  0.00    +0.000 OA
ENDBRANCH   3  15
ENDBRANCH   1  11
BRANCH   1  16
ATOM     16  C   UNL     1       2.080   7.803  19.635  0.00  0.00    +0.000 A 
ATOM     17  C   UNL     1       1.331   8.375  20.674  0.00  0.00    +0.000 A 
ATOM     18  C   UNL     1       0.558   9.521  20.449  0.00  0.00    +0.000 A 
ATOM     19  C   UNL     1       0.520  10.132  19.177  0.00  0.00    +0.000 A 
ATOM     20  C   UNL     1       1.273   9.549  18.141  0.00  0.00    +0.000 A 
ATOM     21  C   UNL     1       2.044   8.411  18.368  0.00  0.00    +0.000 A 
BRANCH  19  22
ATOM     22  N   UNL     1      -0.239  11.329  18.940  0.00  0.00    +0.000 N 
ATOM     23  C   UNL     1       0.379  12.638  18.796  0.00  0.00    +0.000 C 
ATOM     24  C   UNL     1      -0.237  13.580  19.832  0.00  0.00    +0.000 C 
ATOM     25  O   UNL     1      -1.649  13.621  19.688  0.00  0.00    +0.000 OA
ATOM     26  C   UNL     1      -2.200  12.332  19.917  0.00  0.00    +0.000 C 
ATOM     27  C   UNL     1      -1.692  11.333  18.866  0.00  0.00    +0.000 C 
ENDBRANCH  19  22
ENDBRANCH   1  16
TORSDOF 4
ENDMDL
MODEL 3
REMARK VINA RESULT:      -8.2      0.809      1.249
REMARK  Name = 
REMARK  6 active torsions:
REMARK  status: ('A' for Active; 'I' for Inactive)
REMARK    1  A    between atoms: C_1  and  O_2
REMARK    2  A    between atoms: O_2  and  C_3
REMARK    3  A    between atoms: C_8  and  C_9
REMARK    4  A    between atoms: C_11  and  N_12
REMARK    5  A    between atoms: N_12  and  C_13
REMARK    6  A    between atoms: C_16  and  N_17
REMARK                            x       y       z     vdW  Elec       q    Type
REMARK                         _______ _______ _______ _____ _____    ______ ____
ROOT
ATOM      1  N   UNL     1       3.009   6.284  20.082  0.00  0.00    +0.000 N 
ATOM      2  H   UNL     1       3.654   6.216  20.883  0.00  0.00    +0.000 HD
ENDROOT
BRANCH   1  11
ATOM      3  C   UNL     1       5.826   5.692  16.790  0.00  0.00    +0.000 A 
ATOM      4  C   UNL     1       5.670   4.550  15.983  0.00  0.00    +0.000 A 
ATOM      5  C   UNL     1       4.647   3.645  16.231  0.00  0.00    +0.000 A 
ATOM      6  C   UNL     1       3.752   3.865  17.280  0.00  0.00    +0.000 A 
ATOM      7  N   UNL     1       2.733   2.987  17.463  0.00  0.00    +0.000 NA
ATOM      8  C   UNL     1       1.812   3.147  18.441  0.00  0.00    +0.000 A 
ATOM      9  C   UNL     1       0.701   2.158  18.582  0.00  0.00    +0.000 C 
ATOM     10  C   UNL     1       1.902   4.238  19.307  0.00  0.00    +0.000 A 
ATOM     11  C   UNL     1       2.935   5.184  19.165  0.00  0.00    +0.000 A 
ATOM     12  C   UNL     1       3.890   4.995  18.127  0.00  0.00    +0.000 A 
ATOM     13  C   UNL     1       4.945   5.901  17.869  0.00  0.00    +0.000 A 
BRANCH   3  15
ATOM     14  C   UNL     1       7.354   7.450  17.490  0.00  0.00    +0.000 C 
ATOM     15  O   UNL     1       6.795   6.610  16.544  0.00  0.00    +0.000 OA
ENDBRANCH   3  15
ENDBRANCH   1  11
BRANCH   1  16
ATOM     16  C   UNL     1       2.230   7.481  19.966  0.00  0.00    +0.000 A 
ATOM     17  C   UNL     1       2.179   8.169  18.744  0.00  0.00    +0.000 A 
ATOM     18  C   UNL     1       1.386   9.315  18.604  0.00  0.00    +0.000 A 
ATOM     19  C   UNL     1       0.614   9.800  19.681  0.00  0.00    +0.000 A 
ATOM     20  C   UNL     1       0.673   9.104  20.903  0.00  0.00    +0.000 A 
ATOM     21  C   UNL     1       1.460   7.962  21.040  0.00  0.00    +0.000 A 
BRANCH  19  22
ATOM     22  N   UNL     1      -0.234  10.952  19.542  0.00  0.00    +0.000 N 
ATOM     23  C   UNL     1      -1.562  10.887  18.951  0.00  0.00    +0.000 C 
ATOM     24  C   UNL     1      -1.620  11.873  17.783  0.00  0.00    +0.000 C 
ATOM     25  O   UNL     1      -1.278  13.181  18.220  0.00  0.00    +0.000 OA
ATOM     26  C   UNL     1       0.055  13.196  18.714  0.00  0.00    +0.000 C 
ATOM     27  C   UNL     1       0.185  12.286  19.944  0.00  0.00    +0.000 C 
ENDBRANCH  19  22
ENDBRANCH   1  16
TORSDOF 4
ENDMDL
MODEL 4
REMARK VINA RESULT:      -8.0      1.379      1.533
REMARK  Name = 
REMARK  6 active torsions:
REMARK  status: ('A' for Active; 'I' for Inactive)
REMARK    1  A    between atoms: C_1  and  O_2
REMARK    2  A    between atoms: O_2  and  C_3
REMARK    3  A    between atoms: C_8  and  C_9
REMARK    4  A    between atoms: C_11  and  N_12
REMARK    5  A    between atoms: N_12  and  C_13
REMARK    6  A    between atoms: C_16  and  N_17
REMARK                            x       y       z     vdW  Elec       q    Type
REMARK                         _______ _______ _______ _____ _____    ______ ____
ROOT
ATOM      1  N   UNL     1       2.976   7.137  20.076  0.00  0.00    +0.000 N 
ATOM      2  H   UNL     1       3.812   7.497  20.557  0.00  0.00    +0.000 HD
ENDROOT
BRANCH   1  11
ATOM      3  C   UNL     1       4.782   5.026  16.698  0.00  0.00    +0.000 A 
ATOM      4  C   UNL     1       4.627   3.628  16.631  0.00  0.00    +0.000 A 
ATOM      5  C   UNL     1       3.917   2.950  17.612  0.00  0.00    +0.000 A 
ATOM      6  C   UNL     1       3.338   3.649  18.673  0.00  0.00    +0.000 A 
ATOM      7  N   UNL     1       2.608   2.962  19.588  0.00  0.00    +0.000 NA
ATOM      8  C   UNL     1       1.996   3.573  20.628  0.00  0.00    +0.000 A 
ATOM      9  C   UNL     1       1.190   2.765  21.593  0.00  0.00    +0.000 C 
ATOM     10  C   UNL     1       2.116   4.954  20.790  0.00  0.00    +0.000 A 
ATOM     11  C   UNL     1       2.857   5.722  19.871  0.00  0.00    +0.000 A 
ATOM     12  C   UNL     1       3.490   5.056  18.785  0.00  0.00    +0.000 A 
ATOM     13  C   UNL     1       4.226   5.732  17.783  0.00  0.00    +0.000 A 
BRANCH   3  15
ATOM     14  C   UNL     1       6.114   5.145  14.667  0.00  0.00    +0.000 C 
ATOM     15  O   UNL     1       5.438   5.715  15.731  0.00  0.00    +0.000 OA
ENDBRANCH   3  15
ENDBRANCH   1  11
BRANCH   1  16
ATOM     16  C   UNL     1       1.994   8.094  19.660  0.00  0.00    +0.000 A 
ATOM     17  C   UNL     1       1.904   8.466  18.310  0.00  0.00    +0.000 A 
ATOM     18  C   UNL     1       0.919   9.366  17.882  0.00  0.00    +0.000 A 
ATOM     19  C   UNL     1      -0.010   9.911  18.794  0.00  0.00    +0.000 A 
ATOM     20  C   UNL     1       0.089   9.533  20.146  0.00  0.00    +0.000 A 
ATOM     21  C   UNL     1       1.067   8.635  20.569  0.00  0.00    +0.000 A 
BRANCH  19  22
ATOM     22  N   UNL     1      -1.050  10.806  18.364  0.00  0.00    +0.000 N 
ATOM     23  C   UNL     1      -1.314  12.079  19.018  0.00  0.00    +0.000 C 
ATOM     24  C   UNL     1      -2.777  12.100  19.462  0.00  0.00    +0.000 C 
ATOM     25  O   UNL     1      -3.635  11.863  18.355  0.00  0.00    +0.000 OA
ATOM     26  C   UNL     1      -3.383  10.575  17.810  0.00  0.00    +0.000 C 
ATOM     27  C   UNL     1      -1.949  10.491  17.266  0.00  0.00    +0.000 C 
ENDBRANCH  19  22
ENDBRANCH   1  16
TORSDOF 4
ENDMDL
MODEL 5
REMARK VINA RESULT:      -8.0      2.415      8.558
REMARK  Name = 
REMARK  6 active torsions:
REMARK  status: ('A' for Active; 'I' for Inactive)
REMARK    1  A    between atoms: C_1  and  O_2
REMARK    2  A    between atoms: O_2  and  C_3
REMARK    3  A    between atoms: C_8  and  C_9
REMARK    4  A    between atoms: C_11  and  N_12
REMARK    5  A    between atoms: N_12  and  C_13
REMARK    6  A    between atoms: C_16  and  N_17
REMARK                            x       y       z     vdW  Elec       q    Type
REMARK                         _______ _______ _______ _____ _____    ______ ____
ROOT
ATOM      1  N   UNL     1       0.821  10.851  18.255  0.00  0.00    +0.000 N 
ATOM      2  H   UNL     1       1.320  11.358  17.510  0.00  0.00    +0.000 HD
ENDROOT
BRANCH   1  11
ATOM      3  C   UNL     1      -3.166  10.263  16.557  0.00  0.00    +0.000 A 
ATOM      4  C   UNL     1      -4.260  10.857  17.214  0.00  0.00    +0.000 A 
ATOM      5  C   UNL     1      -4.068  11.607  18.366  0.00  0.00    +0.000 A 
ATOM      6  C   UNL     1      -2.782  11.792  18.880  0.00  0.00    +0.000 A 
ATOM      7  N   UNL     1      -2.624  12.574  19.978  0.00  0.00    +0.000 NA
ATOM      8  C   UNL     1      -1.408  12.819  20.518  0.00  0.00    +0.000 A 
ATOM      9  C   UNL     1      -1.295  13.705  21.717  0.00  0.00    +0.000 C 
ATOM     10  C   UNL     1      -0.269  12.251  19.948  0.00  0.00    +0.000 A 
ATOM     11  C   UNL     1      -0.368  11.435  18.805  0.00  0.00    +0.000 A 
ATOM     12  C   UNL     1      -1.657  11.192  18.255  0.00  0.00    +0.000 A 
ATOM     13  C   UNL     1      -1.872  10.420  17.089  0.00  0.00    +0.000 A 
BRANCH   3  15
ATOM     14  C   UNL     1      -3.071  10.038  14.137  0.00  0.00    +0.000 C 
ATOM     15  O   UNL     1      -3.325   9.557  15.409  0.00  0.00    +0.000 OA
ENDBRANCH   3  15
ENDBRANCH   1  11
BRANCH   1  16
ATOM     16  C   UNL     1       1.362   9.590  18.668  0.00  0.00    +0.000 A 
ATOM     17  C   UNL     1       1.176   9.144  19.985  0.00  0.00    +0.000 A 
ATOM     18  C   UNL     1       1.660   7.893  20.390  0.00  0.00    +0.000 A 
ATOM     19  C   UNL     1       2.337   7.049  19.483  0.00  0.00    +0.000 A 
ATOM     20  C   UNL     1       2.520   7.507  18.165  0.00  0.00    +0.000 A 
ATOM     21  C   UNL     1       2.035   8.750  17.764  0.00  0.00    +0.000 A 
BRANCH  19  22
ATOM     22  N   UNL     1       2.807   5.748  19.873  0.00  0.00    +0.000 N 
ATOM     23  C   UNL     1       4.102   5.224  19.468  0.00  0.00    +0.000 C 
ATOM     24  C   UNL     1       3.881   3.892  18.749  0.00  0.00    +0.000 C 
ATOM     25  O   UNL     1       3.161   2.993  19.580  0.00  0.00    +0.000 OA
ATOM     26  C   UNL     1       1.877   3.525  19.876  0.00  0.00    +0.000 C 
ATOM     27  C   UNL     1       2.006   4.833  20.671  0.00  0.00    +0.000 C 
ENDBRANCH  19  22
ENDBRANCH   1  16
TORSDOF 4
ENDMDL
MODEL 6
REMARK VINA RESULT:      -8.0      2.575      8.459
REMARK  Name = 
REMARK  6 active torsions:
REMARK  status: ('A' for Active; 'I' for Inactive)
REMARK    1  A    between atoms: C_1  and  O_2
REMARK    2  A    between atoms: O_2  and  C_3
REMARK    3  A    between atoms: C_8  and  C_9
REMARK    4  A    between atoms: C_11  and  N_12
REMARK    5  A    between atoms: N_12  and  C_13
REMARK    6  A    between atoms: C_16  and  N_17
REMARK                            x       y       z     vdW  Elec       q    Type
REMARK                         _______ _______ _______ _____ _____    ______ ____
ROOT
ATOM      1  N   UNL     1       1.153  10.418  18.399  0.00  0.00    +0.000 N 
ATOM      2  H   UNL     1       1.716  10.895  17.681  0.00  0.00    +0.000 HD
ENDROOT
BRANCH   1  11
ATOM      3  C   UNL     1      -2.858  10.181  16.673  0.00  0.00    +0.000 A 
ATOM      4  C   UNL     1      -3.901  10.864  17.326  0.00  0.00    +0.000 A 
ATOM      5  C   UNL     1      -3.653  11.591  18.482  0.00  0.00    +0.000 A 
ATOM      6  C   UNL     1      -2.360  11.662  19.005  0.00  0.00    +0.000 A 
ATOM      7  N   UNL     1      -2.143  12.424  20.107  0.00  0.00    +0.000 NA
ATOM      8  C   UNL     1      -0.914  12.562  20.657  0.00  0.00    +0.000 A 
ATOM      9  C   UNL     1      -0.733  13.429  21.861  0.00  0.00    +0.000 C 
ATOM     10  C   UNL     1       0.176  11.900  20.092  0.00  0.00    +0.000 A 
ATOM     11  C   UNL     1       0.015  11.099  18.945  0.00  0.00    +0.000 A 
ATOM     12  C   UNL     1      -1.287  10.971  18.385  0.00  0.00    +0.000 A 
ATOM     13  C   UNL     1      -1.559  10.224  17.214  0.00  0.00    +0.000 A 
BRANCH   3  15
ATOM     14  C   UNL     1      -3.188  10.067  14.266  0.00  0.00    +0.000 C 
ATOM     15  O   UNL     1      -3.069   9.496  15.521  0.00  0.00    +0.000 OA
ENDBRANCH   3  15
ENDBRANCH   1  11
BRANCH   1  16
ATOM     16  C   UNL     1       1.558   9.097  18.783  0.00  0.00    +0.000 A 
ATOM     17  C   UNL     1       2.207   8.266  17.858  0.00  0.00    +0.000 A 
ATOM     18  C   UNL     1       2.649   6.990  18.232  0.00  0.00    +0.000 A 
ATOM     19  C   UNL     1       2.460   6.515  19.548  0.00  0.00    +0.000 A 
ATOM     20  C   UNL     1       1.806   7.356  20.468  0.00  0.00    +0.000 A 
ATOM     21  C   UNL     1       1.371   8.625  20.094  0.00  0.00    +0.000 A 
BRANCH  19  22
ATOM     22  N   UNL     1       2.941   5.224  19.957  0.00  0.00    +0.000 N 
ATOM     23  C   UNL     1       4.145   4.620  19.408  0.00  0.00    +0.000 C 
ATOM     24  C   UNL     1       3.778   3.254  18.825  0.00  0.00    +0.000 C 
ATOM     25  O   UNL     1       3.160   2.443  19.814  0.00  0.00    +0.000 OA
ATOM     26  C   UNL     1       1.952   3.046  20.254  0.00  0.00    +0.000 C 
ATOM     27  C   UNL     1       2.237   4.398  20.926  0.00  0.00    +0.000 C 
ENDBRANCH  19  22
ENDBRANCH   1  16
TORSDOF 4
ENDMDL
MODEL 7
REMARK VINA RESULT:      -7.7      1.893      2.326
REMARK  Name = 
REMARK  6 active torsions:
REMARK  status: ('A' for Active; 'I' for Inactive)
REMARK    1  A    between atoms: C_1  and  O_2
REMARK    2  A    between atoms: O_2  and  C_3
REMARK    3  A    between atoms: C_8  and  C_9
REMARK    4  A    between atoms: C_11  and  N_12
REMARK    5  A    between atoms: N_12  and  C_13
REMARK    6  A    between atoms: C_16  and  N_17
REMARK                            x       y       z     vdW  Elec       q    Type
REMARK                         _______ _______ _______ _____ _____    ______ ____
ROOT
ATOM      1  N   UNL     1       2.499   6.822  17.508  0.00  0.00    +0.000 N 
ATOM      2  H   UNL     1       2.203   7.013  16.541  0.00  0.00    +0.000 HD
ENDROOT
BRANCH   1  11
ATOM      3  C   UNL     1       6.870   6.955  17.458  0.00  0.00    +0.000 A 
ATOM      4  C   UNL     1       7.572   5.773  17.762  0.00  0.00    +0.000 A 
ATOM      5  C   UNL     1       6.887   4.604  18.064  0.00  0.00    +0.000 A 
ATOM      6  C   UNL     1       5.491   4.585  18.060  0.00  0.00    +0.000 A 
ATOM      7  N   UNL     1       4.854   3.413  18.310  0.00  0.00    +0.000 NA
ATOM      8  C   UNL     1       3.504   3.310  18.297  0.00  0.00    +0.000 A 
ATOM      9  C   UNL     1       2.859   1.988  18.562  0.00  0.00    +0.000 C 
ATOM     10  C   UNL     1       2.726   4.437  18.031  0.00  0.00    +0.000 A 
ATOM     11  C   UNL     1       3.329   5.679  17.760  0.00  0.00    +0.000 A 
ATOM     12  C   UNL     1       4.749   5.762  17.777  0.00  0.00    +0.000 A 
ATOM     13  C   UNL     1       5.462   6.948  17.483  0.00  0.00    +0.000 A 
BRANCH   3  15
ATOM     14  C   UNL     1       8.221   8.904  18.001  0.00  0.00    +0.000 C 
ATOM     15  O   UNL     1       7.517   8.100  17.122  0.00  0.00    +0.000 OA
ENDBRANCH   3  15
ENDBRANCH   1  11
BRANCH   1  16
ATOM     16  C   UNL     1       2.059   7.734  18.522  0.00  0.00    +0.000 A 
ATOM     17  C   UNL     1       1.611   9.016  18.168  0.00  0.00    +0.000 A 
ATOM     18  C   UNL     1       1.135   9.900  19.144  0.00  0.00    +0.000 A 
ATOM     19  C   UNL     1       1.085   9.522  20.503  0.00  0.00    +0.000 A 
ATOM     20  C   UNL     1       1.538   8.235  20.849  0.00  0.00    +0.000 A 
ATOM     21  C   UNL     1       2.008   7.356  19.876  0.00  0.00    +0.000 A 
BRANCH  19  22
ATOM     22  N   UNL     1       0.565  10.404  21.511  0.00  0.00    +0.000 N 
ATOM     23  C   UNL     1       0.244   9.959  22.859  0.00  0.00    +0.000 C 
ATOM     24  C   UNL     1      -1.220  10.298  23.144  0.00  0.00    +0.000 C 
ATOM     25  O   UNL     1      -1.454  11.686  22.954  0.00  0.00    +0.000 OA
ATOM     26  C   UNL     1      -1.199  12.044  21.603  0.00  0.00    +0.000 C 
ATOM     27  C   UNL     1       0.278  11.807  21.252  0.00  0.00    +0.000 C 
ENDBRANCH  19  22
ENDBRANCH   1  16
TORSDOF 4
ENDMDL
MODEL 8
REMARK VINA RESULT:      -7.7      1.813      2.356
REMARK  Name = 
REMARK  6 active torsions:
REMARK  status: ('A' for Active; 'I' for Inactive)
REMARK    1  A    between atoms: C_1  and  O_2
REMARK    2  A    between atoms: O_2  and  C_3
REMARK    3  A    between atoms: C_8  and  C_9
REMARK    4  A    between atoms: C_11  and  N_12
REMARK    5  A    between atoms: N_12  and  C_13
REMARK    6  A    between atoms: C_16  and  N_17
REMARK                            x       y       z     vdW  Elec       q    Type
REMARK                         _______ _______ _______ _____ _____    ______ ____
ROOT
ATOM      1  N   UNL     1       2.625   7.385  17.474  0.00  0.00    +0.000 N 
ATOM      2  H   UNL     1       2.621   7.766  16.517  0.00  0.00    +0.000 HD
ENDROOT
BRANCH   1  11
ATOM      3  C   UNL     1       6.945   6.716  17.387  0.00  0.00    +0.000 A 
ATOM      4  C   UNL     1       7.421   5.421  17.668  0.00  0.00    +0.000 A 
ATOM      5  C   UNL     1       6.535   4.393  17.959  0.00  0.00    +0.000 A 
ATOM      6  C   UNL     1       5.159   4.629  17.966  0.00  0.00    +0.000 A 
ATOM      7  N   UNL     1       4.319   3.590  18.205  0.00  0.00    +0.000 NA
ATOM      8  C   UNL     1       2.974   3.737  18.203  0.00  0.00    +0.000 A 
ATOM      9  C   UNL     1       2.099   2.551  18.454  0.00  0.00    +0.000 C 
ATOM     10  C   UNL     1       2.413   4.990  17.960  0.00  0.00    +0.000 A 
ATOM     11  C   UNL     1       3.232   6.106  17.702  0.00  0.00    +0.000 A 
ATOM     12  C   UNL     1       4.643   5.926  17.707  0.00  0.00    +0.000 A 
ATOM     13  C   UNL     1       5.560   6.967  17.424  0.00  0.00    +0.000 A 
BRANCH   3  15
ATOM     14  C   UNL     1       7.994   8.867  17.820  0.00  0.00    +0.000 C 
ATOM     15  O   UNL     1       7.789   7.728  17.062  0.00  0.00    +0.000 OA
ENDBRANCH   3  15
ENDBRANCH   1  11
BRANCH   1  16
ATOM     16  C   UNL     1       2.025   8.184  18.501  0.00  0.00    +0.000 A 
ATOM     17  C   UNL     1       2.011   7.726  19.828  0.00  0.00    +0.000 A 
ATOM     18  C   UNL     1       1.468   8.516  20.849  0.00  0.00    +0.000 A 
ATOM     19  C   UNL     1       0.932   9.792  20.572  0.00  0.00    +0.000 A 
ATOM     20  C   UNL     1       0.949  10.242  19.238  0.00  0.00    +0.000 A 
ATOM     21  C   UNL     1       1.492   9.455  18.225  0.00  0.00    +0.000 A 
BRANCH  19  22
ATOM     22  N   UNL     1       0.406  10.630  21.615  0.00  0.00    +0.000 N 
ATOM     23  C   UNL     1       0.011  10.115  22.916  0.00  0.00    +0.000 C 
ATOM     24  C   UNL     1      -1.449  10.498  23.165  0.00  0.00    +0.000 C 
ATOM     25  O   UNL     1      -1.617  11.905  23.058  0.00  0.00    +0.000 OA
ATOM     26  C   UNL     1      -1.291  12.336  21.744  0.00  0.00    +0.000 C 
ATOM     27  C   UNL     1       0.188  12.058  21.437  0.00  0.00    +0.000 C 
ENDBRANCH  19  22
ENDBRANCH   1  16
TORSDOF 4
ENDMDL
MODEL 9
REMARK VINA RESULT:      -7.7      1.968      3.649
REMARK  Name = 
REMARK  6 active torsions:
REMARK  status: ('A' for Active; 'I' for Inactive)
REMARK    1  A    between atoms: C_1  and  O_2
REMARK    2  A    between atoms: O_2  and  C_3
REMARK    3  A    between atoms: C_8  and  C_9
REMARK    4  A    between atoms: C_11  and  N_12
REMARK    5  A    between atoms: N_12  and  C_13
REMARK    6  A    between atoms: C_16  and  N_17
REMARK                            x       y       z     vdW  Elec       q    Type
REMARK                         _______ _______ _______ _____ _____    ______ ____
ROOT
ATOM      1  N   UNL     1       3.216   6.969  19.482  0.00  0.00    +0.000 N 
ATOM      2  H   UNL     1       3.724   6.977  20.377  0.00  0.00    +0.000 HD
ENDROOT
BRANCH   1  11
ATOM      3  C   UNL     1       1.747   2.853  19.624  0.00  0.00    +0.000 A 
ATOM      4  C   UNL     1       2.121   1.980  18.585  0.00  0.00    +0.000 A 
ATOM      5  C   UNL     1       2.935   2.422  17.551  0.00  0.00    +0.000 A 
ATOM      6  C   UNL     1       3.402   3.738  17.537  0.00  0.00    +0.000 A 
ATOM      7  N   UNL     1       4.238   4.123  16.539  0.00  0.00    +0.000 NA
ATOM      8  C   UNL     1       4.751   5.373  16.471  0.00  0.00    +0.000 A 
ATOM      9  C   UNL     1       5.681   5.734  15.358  0.00  0.00    +0.000 C 
ATOM     10  C   UNL     1       4.415   6.314  17.445  0.00  0.00    +0.000 A 
ATOM     11  C   UNL     1       3.556   5.973  18.507  0.00  0.00    +0.000 A 
ATOM     12  C   UNL     1       3.031   4.652  18.557  0.00  0.00    +0.000 A 
ATOM     13  C   UNL     1       2.190   4.189  19.597  0.00  0.00    +0.000 A 
BRANCH   3  15
ATOM     14  C   UNL     1       1.324   2.554  22.001  0.00  0.00    +0.000 C 
ATOM     15  O   UNL     1       0.984   2.433  20.665  0.00  0.00    +0.000 OA
ENDBRANCH   3  15
ENDBRANCH   1  11
BRANCH   1  16
ATOM     16  C   UNL     1       2.197   7.960  19.295  0.00  0.00    +0.000 A 
ATOM     17  C   UNL     1       1.454   8.419  20.393  0.00  0.00    +0.000 A 
ATOM     18  C   UNL     1       0.487   9.419  20.232  0.00  0.00    +0.000 A 
ATOM     19  C   UNL     1       0.243   9.996  18.967  0.00  0.00    +0.000 A 
ATOM     20  C   UNL     1       0.992   9.528  17.871  0.00  0.00    +0.000 A 
ATOM     21  C   UNL     1       1.956   8.535  18.034  0.00  0.00    +0.000 A 
BRANCH  19  22
ATOM     22  N   UNL     1      -0.719  11.049  18.793  0.00  0.00    +0.000 N 
ATOM     23  C   UNL     1      -0.807  12.192  19.688  0.00  0.00    +0.000 C 
ATOM     24  C   UNL     1      -2.231  12.264  20.243  0.00  0.00    +0.000 C 
ATOM     25  O   UNL     1      -3.174  12.323  19.182  0.00  0.00    +0.000 OA
ATOM     26  C   UNL     1      -3.093  11.146  18.391  0.00  0.00    +0.000 C 
ATOM     27  C   UNL     1      -1.711  11.035  17.729  0.00  0.00    +0.000 C 
ENDBRANCH  19  22
ENDBRANCH   1  16
TORSDOF 4
ENDMDL
