MODEL 1
REMARK VINA RESULT:      -6.8      0.000      0.000
REMARK  Name = 
REMARK  9 active torsions:
REMARK  status: ('A' for Active; 'I' for Inactive)
REMARK    1  A    between atoms: C_1  and  N_2
REMARK    2  A    between atoms: C_3  and  S_4
REMARK    3  A    between atoms: N_5  and  N_6
REMARK    4  A    between atoms: N_6  and  S_7
REMARK    5  A    between atoms: S_7  and  C_10
REMARK    6  A    between atoms: C_13  and  O_14
REMARK    7  A    between atoms: O_14  and  C_15
REMARK    8  A    between atoms: C_17  and  O_18
REMARK    9  A    between atoms: O_18  and  C_19
REMARK                            x       y       z     vdW  Elec       q    Type
REMARK                         _______ _______ _______ _____ _____    ______ ____
ROOT
ATOM      1  S   UNL     1       5.728   4.782  18.842  0.00  0.00    +0.000 S 
ATOM      2  O   UNL     1       4.682   5.747  19.087  0.00  0.00    +0.000 OA
ATOM      3  O   UNL     1       7.018   4.835  19.499  0.00  0.00    +0.000 OA
ENDROOT
BRANCH   1   4
ATOM      4  C   UNL     1       6.045   4.756  17.085  0.00  0.00    +0.000 A 
ATOM      5  C   UNL     1       5.365   3.777  16.327  0.00  0.00    +0.000 A 
ATOM      6  C   UNL     1       5.636   3.584  14.972  0.00  0.00    +0.000 A 
ATOM      7  C   UNL     1       6.563   4.387  14.327  0.00  0.00    +0.000 A 
ATOM      8  C   UNL     1       7.209   5.381  15.058  0.00  0.00    +0.000 A 
ATOM      9  C   UNL     1       6.973   5.587  16.442  0.00  0.00    +0.000 A 
BRANCH   7  10
ATOM     10  O   UNL     1       6.737   4.102  13.003  0.00  0.00    +0.000 OA
ATOM     11  C   UNL     1       5.709   3.362  12.358  0.00  0.00    +0.000 C 
ENDBRANCH   7  10
BRANCH   9  12
ATOM     12  O   UNL     1       7.764   6.611  16.875  0.00  0.00    +0.000 OA
ATOM     13  C   UNL     1       7.261   7.809  17.433  0.00  0.00    +0.000 C 
ENDBRANCH   9  12
ENDBRANCH   1   4
BRANCH   1  14
ATOM     14  N   UNL     1       5.110   3.217  19.169  0.00  0.00    +0.000 N 
ATOM     15  H   UNL     1       5.861   2.552  19.381  0.00  0.00    +0.000 HD
BRANCH  14  19
ATOM     16  C   UNL     1       1.559   2.819  21.645  0.00  0.00    +0.000 C 
ATOM     17  N   UNL     1       1.741   2.375  20.284  0.00  0.00    +0.000 N 
ATOM     18  C   UNL     1       2.893   2.588  19.582  0.00  0.00    +0.000 C 
ATOM     19  N   UNL     1       3.978   3.107  20.080  0.00  0.00    +0.000 NA
ATOM     20  H   UNL     1       0.903   2.118  19.782  0.00  0.00    +0.000 HD
BRANCH  18  21
ATOM     21  S   UNL     1       2.795   2.078  17.893  0.00  0.00    +0.000 S 
ATOM     22  H   UNL     1       3.083   0.788  18.078  0.00  0.00    +0.000 HD
ENDBRANCH  18  21
ENDBRANCH  14  19
ENDBRANCH   1  14
TORSDOF 6
ENDMDL
MODEL 2
REMARK VINA RESULT:      -6.8      3.307      6.452
REMARK  Name = 
REMARK  9 active torsions:
REMARK  status: ('A' for Active; 'I' for Inactive)
REMARK    1  A    between atoms: C_1  and  N_2
REMARK    2  A    between atoms: C_3  and  S_4
REMARK    3  A    between atoms: N_5  and  N_6
REMARK    4  A    between atoms: N_6  and  S_7
REMARK    5  A    between atoms: S_7  and  C_10
REMARK    6  A    between atoms: C_13  and  O_14
REMARK    7  A    between atoms: O_14  and  C_15
REMARK    8  A    between atoms: C_17  and  O_18
REMARK    9  A    between atoms: O_18  and  C_19
REMARK                            x       y       z     vdW  Elec       q    Type
REMARK                         _______ _______ _______ _____ _____    ______ ____
ROOT
ATOM      1  S   UNL     1       4.481   3.355  18.859  0.00  0.00    +0.000 S 
ATOM      2  O   UNL     1       3.927   2.697  17.699  0.00  0.00    +0.000 OA
ATOM      3  O   UNL     1       4.711   2.672  20.116  0.00  0.00    +0.000 OA
ENDROOT
BRANCH   1   4
ATOM      4  C   UNL     1       3.460   4.773  19.221  0.00  0.00    +0.000 A 
ATOM      5  C   UNL     1       3.578   5.884  18.357  0.00  0.00    +0.000 A 
ATOM      6  C   UNL     1       2.926   7.088  18.622  0.00  0.00    +0.000 A 
ATOM      7  C   UNL     1       2.107   7.206  19.732  0.00  0.00    +0.000 A 
ATOM      8  C   UNL     1       1.953   6.103  20.569  0.00  0.00    +0.000 A 
ATOM      9  C   UNL     1       2.621   4.872  20.340  0.00  0.00    +0.000 A 
BRANCH   7  10
ATOM     10  O   UNL     1       1.523   8.432  19.881  0.00  0.00    +0.000 OA
ATOM     11  C   UNL     1       1.443   9.255  18.726  0.00  0.00    +0.000 C 
ENDBRANCH   7  10
BRANCH   9  12
ATOM     12  O   UNL     1       2.288   3.999  21.335  0.00  0.00    +0.000 OA
ATOM     13  C   UNL     1       1.362   2.943  21.174  0.00  0.00    +0.000 C 
ENDBRANCH   9  12
ENDBRANCH   1   4
BRANCH   1  14
ATOM     14  N   UNL     1       5.992   4.039  18.425  0.00  0.00    +0.000 N 
ATOM     15  H   UNL     1       6.763   3.615  18.951  0.00  0.00    +0.000 HD
BRANCH  14  19
ATOM     16  C   UNL     1       6.957   4.791  14.253  0.00  0.00    +0.000 C 
ATOM     17  N   UNL     1       7.310   5.592  15.400  0.00  0.00    +0.000 N 
ATOM     18  C   UNL     1       6.918   5.283  16.671  0.00  0.00    +0.000 C 
ATOM     19  N   UNL     1       6.289   4.193  17.007  0.00  0.00    +0.000 NA
ATOM     20  H   UNL     1       7.648   6.524  15.206  0.00  0.00    +0.000 HD
BRANCH  18  21
ATOM     21  S   UNL     1       7.356   6.510  17.864  0.00  0.00    +0.000 S 
ATOM     22  H   UNL     1       6.663   6.015  18.893  0.00  0.00    +0.000 HD
ENDBRANCH  18  21
ENDBRANCH  14  19
ENDBRANCH   1  14
TORSDOF 6
ENDMDL
MODEL 3
REMARK VINA RESULT:      -6.7      3.583      5.827
REMARK  Name = 
REMARK  9 active torsions:
REMARK  status: ('A' for Active; 'I' for Inactive)
REMARK    1  A    between atoms: C_1  and  N_2
REMARK    2  A    between atoms: C_3  and  S_4
REMARK    3  A    between atoms: N_5  and  N_6
REMARK    4  A    between atoms: N_6  and  S_7
REMARK    5  A    between atoms: S_7  and  C_10
REMARK    6  A    between atoms: C_13  and  O_14
REMARK    7  A    between atoms: O_14  and  C_15
REMARK    8  A    between atoms: C_17  and  O_18
REMARK    9  A    between atoms: O_18  and  C_19
REMARK                            x       y       z     vdW  Elec       q    Type
REMARK                         _______ _______ _______ _____ _____    ______ ____
ROOT
ATOM      1  S   UNL     1       5.645   5.583  15.468  0.00  0.00    +0.000 S 
ATOM      2  O   UNL     1       5.285   6.911  15.030  0.00  0.00    +0.000 OA
ATOM      3  O   UNL     1       5.791   4.467  14.557  0.00  0.00    +0.000 OA
ENDROOT
BRANCH   1   4
ATOM      4  C   UNL     1       4.468   5.082  16.714  0.00  0.00    +0.000 A 
ATOM      5  C   UNL     1       4.116   3.714  16.748  0.00  0.00    +0.000 A 
ATOM      6  C   UNL     1       3.113   3.240  17.593  0.00  0.00    +0.000 A 
ATOM      7  C   UNL     1       2.460   4.107  18.454  0.00  0.00    +0.000 A 
ATOM      8  C   UNL     1       2.828   5.451  18.454  0.00  0.00    +0.000 A 
ATOM      9  C   UNL     1       3.829   5.969  17.591  0.00  0.00    +0.000 A 
BRANCH   7  10
ATOM     10  O   UNL     1       1.501   3.522  19.231  0.00  0.00    +0.000 OA
ATOM     11  C   UNL     1       1.037   2.240  18.831  0.00  0.00    +0.000 C 
ENDBRANCH   7  10
BRANCH   9  12
ATOM     12  O   UNL     1       3.947   7.310  17.811  0.00  0.00    +0.000 OA
ATOM     13  C   UNL     1       2.859   8.212  17.760  0.00  0.00    +0.000 C 
ENDBRANCH   9  12
ENDBRANCH   1   4
BRANCH   1  14
ATOM     14  N   UNL     1       7.128   5.677  16.322  0.00  0.00    +0.000 N 
ATOM     15  H   UNL     1       7.871   5.155  15.845  0.00  0.00    +0.000 HD
BRANCH  14  19
ATOM     16  C   UNL     1       8.409   9.472  18.011  0.00  0.00    +0.000 C 
ATOM     17  N   UNL     1       8.348   8.189  18.667  0.00  0.00    +0.000 N 
ATOM     18  C   UNL     1       7.889   7.060  18.051  0.00  0.00    +0.000 C 
ATOM     19  N   UNL     1       7.564   6.985  16.792  0.00  0.00    +0.000 NA
ATOM     20  H   UNL     1       8.423   8.198  19.675  0.00  0.00    +0.000 HD
BRANCH  18  21
ATOM     21  S   UNL     1       7.777   5.662  19.125  0.00  0.00    +0.000 S 
ATOM     22  H   UNL     1       6.472   5.744  19.391  0.00  0.00    +0.000 HD
ENDBRANCH  18  21
ENDBRANCH  14  19
ENDBRANCH   1  14
TORSDOF 6
ENDMDL
MODEL 4
REMARK VINA RESULT:      -6.5      3.698      6.086
REMARK  Name = 
REMARK  9 active torsions:
REMARK  status: ('A' for Active; 'I' for Inactive)
REMARK    1  A    between atoms: C_1  and  N_2
REMARK    2  A    between atoms: C_3  and  S_4
REMARK    3  A    between atoms: N_5  and  N_6
REMARK    4  A    between atoms: N_6  and  S_7
REMARK    5  A    between atoms: S_7  and  C_10
REMARK    6  A    between atoms: C_13  and  O_14
REMARK    7  A    between atoms: O_14  and  C_15
REMARK    8  A    between atoms: C_17  and  O_18
REMARK    9  A    between atoms: O_18  and  C_19
REMARK                            x       y       z     vdW  Elec       q    Type
REMARK                         _______ _______ _______ _____ _____    ______ ____
ROOT
ATOM      1  S   UNL     1       5.557   5.448  15.926  0.00  0.00    +0.000 S 
ATOM      2  O   UNL     1       5.144   6.663  15.263  0.00  0.00    +0.000 OA
ATOM      3  O   UNL     1       5.494   4.146  15.295  0.00  0.00    +0.000 OA
ENDROOT
BRANCH   1   4
ATOM      4  C   UNL     1       4.645   5.325  17.456  0.00  0.00    +0.000 A 
ATOM      5  C   UNL     1       4.675   4.080  18.121  0.00  0.00    +0.000 A 
ATOM      6  C   UNL     1       3.895   3.836  19.251  0.00  0.00    +0.000 A 
ATOM      7  C   UNL     1       3.095   4.839  19.774  0.00  0.00    +0.000 A 
ATOM      8  C   UNL     1       3.089   6.083  19.147  0.00  0.00    +0.000 A 
ATOM      9  C   UNL     1       3.853   6.356  17.983  0.00  0.00    +0.000 A 
BRANCH   7  10
ATOM     10  O   UNL     1       2.383   4.478  20.882  0.00  0.00    +0.000 OA
ATOM     11  C   UNL     1       2.362   3.098  21.218  0.00  0.00    +0.000 C 
ENDBRANCH   7  10
BRANCH   9  12
ATOM     12  O   UNL     1       3.623   7.644  17.598  0.00  0.00    +0.000 OA
ATOM     13  C   UNL     1       2.411   8.331  17.843  0.00  0.00    +0.000 C 
ENDBRANCH   9  12
ENDBRANCH   1   4
BRANCH   1  14
ATOM     14  N   UNL     1       7.183   5.634  16.434  0.00  0.00    +0.000 N 
ATOM     15  H   UNL     1       7.837   5.207  15.769  0.00  0.00    +0.000 HD
BRANCH  14  19
ATOM     16  C   UNL     1       8.448   9.458  18.070  0.00  0.00    +0.000 C 
ATOM     17  N   UNL     1       8.408   8.181  18.739  0.00  0.00    +0.000 N 
ATOM     18  C   UNL     1       7.953   7.042  18.139  0.00  0.00    +0.000 C 
ATOM     19  N   UNL     1       7.612   6.951  16.886  0.00  0.00    +0.000 NA
ATOM     20  H   UNL     1       8.496   8.201  19.746  0.00  0.00    +0.000 HD
BRANCH  18  21
ATOM     21  S   UNL     1       7.869   5.654  19.229  0.00  0.00    +0.000 S 
ATOM     22  H   UNL     1       9.181   5.431  19.337  0.00  0.00    +0.000 HD
ENDBRANCH  18  21
ENDBRANCH  14  19
ENDBRANCH   1  14
TORSDOF 6
ENDMDL
MODEL 5
REMARK VINA RESULT:      -6.5      3.360      6.197
REMARK  Name = 
REMARK  9 active torsions:
REMARK  status: ('A' for Active; 'I' for Inactive)
REMARK    1  A    between atoms: C_1  and  N_2
REMARK    2  A    between atoms: C_3  and  S_4
REMARK    3  A    between atoms: N_5  and  N_6
REMARK    4  A    between atoms: N_6  and  S_7
REMARK    5  A    between atoms: S_7  and  C_10
REMARK    6  A    between atoms: C_13  and  O_14
REMARK    7  A    between atoms: O_14  and  C_15
REMARK    8  A    between atoms: C_17  and  O_18
REMARK    9  A    between atoms: O_18  and  C_19
REMARK                            x       y       z     vdW  Elec       q    Type
REMARK                         _______ _______ _______ _____ _____    ______ ____
ROOT
ATOM      1  S   UNL     1       4.153   3.199  18.586  0.00  0.00    +0.000 S 
ATOM      2  O   UNL     1       3.220   2.274  17.986  0.00  0.00    +0.000 OA
ATOM      3  O   UNL     1       4.921   2.884  19.773  0.00  0.00    +0.000 OA
ENDROOT
BRANCH   1   4
ATOM      4  C   UNL     1       3.276   4.716  18.926  0.00  0.00    +0.000 A 
ATOM      5  C   UNL     1       3.301   5.709  17.922  0.00  0.00    +0.000 A 
ATOM      6  C   UNL     1       2.760   6.977  18.136  0.00  0.00    +0.000 A 
ATOM      7  C   UNL     1       2.144   7.278  19.339  0.00  0.00    +0.000 A 
ATOM      8  C   UNL     1       2.080   6.291  20.321  0.00  0.00    +0.000 A 
ATOM      9  C   UNL     1       2.641   5.000  20.144  0.00  0.00    +0.000 A 
BRANCH   7  10
ATOM     10  O   UNL     1       1.652   8.548  19.425  0.00  0.00    +0.000 OA
ATOM     11  C   UNL     1       1.545   9.284  18.214  0.00  0.00    +0.000 C 
ENDBRANCH   7  10
BRANCH   9  12
ATOM     12  O   UNL     1       2.437   4.272  21.280  0.00  0.00    +0.000 OA
ATOM     13  C   UNL     1       1.590   3.141  21.346  0.00  0.00    +0.000 C 
ENDBRANCH   9  12
ENDBRANCH   1   4
BRANCH   1  14
ATOM     14  N   UNL     1       5.306   3.652  17.400  0.00  0.00    +0.000 N 
ATOM     15  H   UNL     1       4.911   3.607  16.455  0.00  0.00    +0.000 HD
BRANCH  14  19
ATOM     16  C   UNL     1       7.761   7.215  17.818  0.00  0.00    +0.000 C 
ATOM     17  N   UNL     1       7.476   6.475  16.613  0.00  0.00    +0.000 N 
ATOM     18  C   UNL     1       6.719   5.339  16.601  0.00  0.00    +0.000 C 
ATOM     19  N   UNL     1       6.087   4.859  17.634  0.00  0.00    +0.000 NA
ATOM     20  H   UNL     1       8.057   6.683  15.813  0.00  0.00    +0.000 HD
BRANCH  18  21
ATOM     21  S   UNL     1       6.654   4.549  15.022  0.00  0.00    +0.000 S 
ATOM     22  H   UNL     1       5.351   4.259  15.019  0.00  0.00    +0.000 HD
ENDBRANCH  18  21
ENDBRANCH  14  19
ENDBRANCH   1  14
TORSDOF 6
ENDMDL
MODEL 6
REMARK VINA RESULT:      -6.4      3.678      6.310
REMARK  Name = 
REMARK  9 active torsions:
REMARK  status: ('A' for Active; 'I' for Inactive)
REMARK    1  A    between atoms: C_1  and  N_2
REMARK    2  A    between atoms: C_3  and  S_4
REMARK    3  A    between atoms: N_5  and  N_6
REMARK    4  A    between atoms: N_6  and  S_7
REMARK    5  A    between atoms: S_7  and  C_10
REMARK    6  A    between atoms: C_13  and  O_14
REMARK    7  A    between atoms: O_14  and  C_15
REMARK    8  A    between atoms: C_17  and  O_18
REMARK    9  A    between atoms: O_18  and  C_19
REMARK                            x       y       z     vdW  Elec       q    Type
REMARK                         _______ _______ _______ _____ _____    ______ ____
ROOT
ATOM      1  S   UNL     1       5.518   5.710  15.606  0.00  0.00    +0.000 S 
ATOM      2  O   UNL     1       5.246   6.990  14.994  0.00  0.00    +0.000 OA
ATOM      3  O   UNL     1       5.481   4.463  14.871  0.00  0.00    +0.000 OA
ENDROOT
BRANCH   1   4
ATOM      4  C   UNL     1       4.412   5.524  16.995  0.00  0.00    +0.000 A 
ATOM      5  C   UNL     1       3.891   6.708  17.562  0.00  0.00    +0.000 A 
ATOM      6  C   UNL     1       3.124   6.684  18.727  0.00  0.00    +0.000 A 
ATOM      7  C   UNL     1       2.821   5.478  19.336  0.00  0.00    +0.000 A 
ATOM      8  C   UNL     1       3.297   4.302  18.761  0.00  0.00    +0.000 A 
ATOM      9  C   UNL     1       4.099   4.294  17.590  0.00  0.00    +0.000 A 
BRANCH   7  10
ATOM     10  O   UNL     1       2.062   5.586  20.465  0.00  0.00    +0.000 OA
ATOM     11  C   UNL     1       1.459   4.397  20.958  0.00  0.00    +0.000 C 
ENDBRANCH   7  10
BRANCH   9  12
ATOM     12  O   UNL     1       4.423   3.003  17.288  0.00  0.00    +0.000 OA
ATOM     13  C   UNL     1       3.710   1.882  17.772  0.00  0.00    +0.000 C 
ENDBRANCH   9  12
ENDBRANCH   1   4
BRANCH   1  14
ATOM     14  N   UNL     1       7.071   5.773  16.328  0.00  0.00    +0.000 N 
ATOM     15  H   UNL     1       7.769   5.276  15.764  0.00  0.00    +0.000 HD
BRANCH  14  19
ATOM     16  C   UNL     1       8.472   9.505  18.064  0.00  0.00    +0.000 C 
ATOM     17  N   UNL     1       8.384   8.213  18.700  0.00  0.00    +0.000 N 
ATOM     18  C   UNL     1       7.888   7.107  18.070  0.00  0.00    +0.000 C 
ATOM     19  N   UNL     1       7.547   7.062  16.814  0.00  0.00    +0.000 NA
ATOM     20  H   UNL     1       8.470   8.203  19.706  0.00  0.00    +0.000 HD
BRANCH  18  21
ATOM     21  S   UNL     1       7.751   5.695  19.123  0.00  0.00    +0.000 S 
ATOM     22  H   UNL     1       7.090   4.903  18.276  0.00  0.00    +0.000 HD
ENDBRANCH  18  21
ENDBRANCH  14  19
ENDBRANCH   1  14
TORSDOF 6
ENDMDL
MODEL 7
REMARK VINA RESULT:      -6.3      3.663      6.292
REMARK  Name = 
REMARK  9 active torsions:
REMARK  status: ('A' for Active; 'I' for Inactive)
REMARK    1  A    between atoms: C_1  and  N_2
REMARK    2  A    between atoms: C_3  and  S_4
REMARK    3  A    between atoms: N_5  and  N_6
REMARK    4  A    between atoms: N_6  and  S_7
REMARK    5  A    between atoms: S_7  and  C_10
REMARK    6  A    between atoms: C_13  and  O_14
REMARK    7  A    between atoms: O_14  and  C_15
REMARK    8  A    between atoms: C_17  and  O_18
REMARK    9  A    between atoms: O_18  and  C_19
REMARK                            x       y       z     vdW  Elec       q    Type
REMARK                         _______ _______ _______ _____ _____    ______ ____
ROOT
ATOM      1  S   UNL     1       5.689   5.223  15.792  0.00  0.00    +0.000 S 
ATOM      2  O   UNL     1       5.521   6.292  14.836  0.00  0.00    +0.000 OA
ATOM      3  O   UNL     1       5.619   3.823  15.428  0.00  0.00    +0.000 OA
ENDROOT
BRANCH   1   4
ATOM      4  C   UNL     1       4.506   5.475  17.105  0.00  0.00    +0.000 A 
ATOM      5  C   UNL     1       3.997   6.783  17.266  0.00  0.00    +0.000 A 
ATOM      6  C   UNL     1       3.169   7.118  18.337  0.00  0.00    +0.000 A 
ATOM      7  C   UNL     1       2.794   6.151  19.256  0.00  0.00    +0.000 A 
ATOM      8  C   UNL     1       3.261   4.850  19.083  0.00  0.00    +0.000 A 
ATOM      9  C   UNL     1       4.122   4.482  18.018  0.00  0.00    +0.000 A 
BRANCH   7  10
ATOM     10  O   UNL     1       1.981   6.602  20.256  0.00  0.00    +0.000 OA
ATOM     11  C   UNL     1       1.703   7.995  20.286  0.00  0.00    +0.000 C 
ENDBRANCH   7  10
BRANCH   9  12
ATOM     12  O   UNL     1       4.419   3.155  18.130  0.00  0.00    +0.000 OA
ATOM     13  C   UNL     1       3.474   2.121  17.936  0.00  0.00    +0.000 C 
ENDBRANCH   9  12
ENDBRANCH   1   4
BRANCH   1  14
ATOM     14  N   UNL     1       7.206   5.421  16.566  0.00  0.00    +0.000 N 
ATOM     15  H   UNL     1       7.946   4.903  16.082  0.00  0.00    +0.000 HD
BRANCH  14  19
ATOM     16  C   UNL     1       8.389   9.356  17.987  0.00  0.00    +0.000 C 
ATOM     17  N   UNL     1       8.349   8.122  18.733  0.00  0.00    +0.000 N 
ATOM     18  C   UNL     1       7.921   6.942  18.196  0.00  0.00    +0.000 C 
ATOM     19  N   UNL     1       7.608   6.770  16.944  0.00  0.00    +0.000 NA
ATOM     20  H   UNL     1       8.415   8.205  19.738  0.00  0.00    +0.000 HD
BRANCH  18  21
ATOM     21  S   UNL     1       7.829   5.623  19.368  0.00  0.00    +0.000 S 
ATOM     22  H   UNL     1       6.800   6.087  20.081  0.00  0.00    +0.000 HD
ENDBRANCH  18  21
ENDBRANCH  14  19
ENDBRANCH   1  14
TORSDOF 6
ENDMDL
MODEL 8
REMARK VINA RESULT:      -6.3      3.398      6.756
REMARK  Name = 
REMARK  9 active torsions:
REMARK  status: ('A' for Active; 'I' for Inactive)
REMARK    1  A    between atoms: C_1  and  N_2
REMARK    2  A    between atoms: C_3  and  S_4
REMARK    3  A    between atoms: N_5  and  N_6
REMARK    4  A    between atoms: N_6  and  S_7
REMARK    5  A    between atoms: S_7  and  C_10
REMARK    6  A    between atoms: C_13  and  O_14
REMARK    7  A    between atoms: O_14  and  C_15
REMARK    8  A    between atoms: C_17  and  O_18
REMARK    9  A    between atoms: O_18  and  C_19
REMARK                            x       y       z     vdW  Elec       q    Type
REMARK                         _______ _______ _______ _____ _____    ______ ____
ROOT
ATOM      1  S   UNL     1       3.154   3.135  17.814  0.00  0.00    +0.000 S 
ATOM      2  O   UNL     1       2.586   3.226  16.489  0.00  0.00    +0.000 OA
ATOM      3  O   UNL     1       3.017   1.961  18.651  0.00  0.00    +0.000 OA
ENDROOT
BRANCH   1   4
ATOM      4  C   UNL     1       2.548   4.520  18.764  0.00  0.00    +0.000 A 
ATOM      5  C   UNL     1       2.924   5.810  18.326  0.00  0.00    +0.000 A 
ATOM      6  C   UNL     1       2.615   6.951  19.066  0.00  0.00    +0.000 A 
ATOM      7  C   UNL     1       1.890   6.843  20.241  0.00  0.00    +0.000 A 
ATOM      8  C   UNL     1       1.481   5.578  20.660  0.00  0.00    +0.000 A 
ATOM      9  C   UNL     1       1.799   4.396  19.942  0.00  0.00    +0.000 A 
BRANCH   7  10
ATOM     10  O   UNL     1       1.649   8.030  20.872  0.00  0.00    +0.000 OA
ATOM     11  C   UNL     1       1.069   9.070  20.096  0.00  0.00    +0.000 C 
ENDBRANCH   7  10
BRANCH   9  12
ATOM     12  O   UNL     1       1.282   3.324  20.610  0.00  0.00    +0.000 OA
ATOM     13  C   UNL     1       1.807   2.830  21.826  0.00  0.00    +0.000 C 
ENDBRANCH   9  12
ENDBRANCH   1   4
BRANCH   1  14
ATOM     14  N   UNL     1       4.840   3.424  17.702  0.00  0.00    +0.000 N 
ATOM     15  H   UNL     1       5.380   2.703  18.192  0.00  0.00    +0.000 HD
BRANCH  14  19
ATOM     16  C   UNL     1       6.690   4.585  13.943  0.00  0.00    +0.000 C 
ATOM     17  N   UNL     1       7.226   4.734  15.274  0.00  0.00    +0.000 N 
ATOM     18  C   UNL     1       6.539   4.369  16.396  0.00  0.00    +0.000 C 
ATOM     19  N   UNL     1       5.390   3.755  16.393  0.00  0.00    +0.000 NA
ATOM     20  H   UNL     1       8.026   5.344  15.369  0.00  0.00    +0.000 HD
BRANCH  18  21
ATOM     21  S   UNL     1       7.361   4.798  17.900  0.00  0.00    +0.000 S 
ATOM     22  H   UNL     1       8.550   5.103  17.374  0.00  0.00    +0.000 HD
ENDBRANCH  18  21
ENDBRANCH  14  19
ENDBRANCH   1  14
TORSDOF 6
ENDMDL
MODEL 9
REMARK VINA RESULT:      -6.3      2.528      2.858
REMARK  Name = 
REMARK  9 active torsions:
REMARK  status: ('A' for Active; 'I' for Inactive)
REMARK    1  A    between atoms: C_1  and  N_2
REMARK    2  A    between atoms: C_3  and  S_4
REMARK    3  A    between atoms: N_5  and  N_6
REMARK    4  A    between atoms: N_6  and  S_7
REMARK    5  A    between atoms: S_7  and  C_10
REMARK    6  A    between atoms: C_13  and  O_14
REMARK    7  A    between atoms: O_14  and  C_15
REMARK    8  A    between atoms: C_17  and  O_18
REMARK    9  A    between atoms: O_18  and  C_19
REMARK                            x       y       z     vdW  Elec       q    Type
REMARK                         _______ _______ _______ _____ _____    ______ ____
ROOT
ATOM      1  S   UNL     1       3.763   3.438  17.776  0.00  0.00    +0.000 S 
ATOM      2  O   UNL     1       4.048   2.024  17.845  0.00  0.00    +0.000 OA
ATOM      3  O   UNL     1       2.492   3.963  17.322  0.00  0.00    +0.000 OA
ENDROOT
BRANCH   1   4
ATOM      4  C   UNL     1       5.026   4.202  16.773  0.00  0.00    +0.000 A 
ATOM      5  C   UNL     1       5.007   3.913  15.391  0.00  0.00    +0.000 A 
ATOM      6  C   UNL     1       6.022   4.351  14.539  0.00  0.00    +0.000 A 
ATOM      7  C   UNL     1       7.062   5.121  15.034  0.00  0.00    +0.000 A 
ATOM      8  C   UNL     1       7.068   5.443  16.390  0.00  0.00    +0.000 A 
ATOM      9  C   UNL     1       6.063   4.994  17.286  0.00  0.00    +0.000 A 
BRANCH   7  10
ATOM     10  O   UNL     1       7.989   5.489  14.102  0.00  0.00    +0.000 OA
ATOM     11  C   UNL     1       7.743   5.106  12.756  0.00  0.00    +0.000 C 
ENDBRANCH   7  10
BRANCH   9  12
ATOM     12  O   UNL     1       6.355   5.452  18.538  0.00  0.00    +0.000 OA
ATOM     13  C   UNL     1       7.670   5.688  19.000  0.00  0.00    +0.000 C 
ENDBRANCH   9  12
ENDBRANCH   1   4
BRANCH   1  14
ATOM     14  N   UNL     1       4.010   4.117  19.331  0.00  0.00    +0.000 N 
ATOM     15  H   UNL     1       5.003   4.122  19.586  0.00  0.00    +0.000 HD
BRANCH  14  19
ATOM     16  C   UNL     1       1.785   7.691  20.416  0.00  0.00    +0.000 C 
ATOM     17  N   UNL     1       1.654   6.366  20.971  0.00  0.00    +0.000 N 
ATOM     18  C   UNL     1       2.380   5.299  20.527  0.00  0.00    +0.000 C 
ATOM     19  N   UNL     1       3.335   5.370  19.644  0.00  0.00    +0.000 NA
ATOM     20  H   UNL     1       0.832   6.197  21.534  0.00  0.00    +0.000 HD
BRANCH  18  21
ATOM     21  S   UNL     1       1.915   3.767  21.273  0.00  0.00    +0.000 S 
ATOM     22  H   UNL     1       2.653   3.875  22.381  0.00  0.00    +0.000 HD
ENDBRANCH  18  21
ENDBRANCH  14  19
ENDBRANCH   1  14
TORSDOF 6
ENDMDL
