MODEL 1
REMARK VINA RESULT:      -6.8      0.000      0.000
REMARK  Name = 
REMARK  3 active torsions:
REMARK  status: ('A' for Active; 'I' for Inactive)
REMARK    1  A    between atoms: C_1  and  C_2
REMARK    2  A    between atoms: C_4  and  C_5
REMARK    3  A    between atoms: C_5  and  N_6
REMARK                            x       y       z     vdW  Elec       q    Type
REMARK                         _______ _______ _______ _____ _____    ______ ____
ROOT
ATOM      1  N   UNL     1       4.157   5.571  18.077  0.00  0.00    +0.000 N 
ATOM      2  C   UNL     1       5.368   5.599  18.719  0.00  0.00    +0.000 A 
ATOM      3  N   UNL     1       5.587   4.492  19.396  0.00  0.00    +0.000 NA
ATOM      4  C   UNL     1       4.483   3.704  19.172  0.00  0.00    +0.000 A 
ATOM      5  C   UNL     1       3.572   4.368  18.371  0.00  0.00    +0.000 A 
ATOM      6  C   UNL     1       2.314   3.813  17.973  0.00  0.00    +0.000 C 
ATOM      7  O   UNL     1       1.458   4.402  17.325  0.00  0.00    +0.000 OA
ATOM      8  C   UNL     1       2.092   2.400  18.402  0.00  0.00    +0.000 C 
ATOM      9  C   UNL     1       2.984   1.748  19.168  0.00  0.00    +0.000 C 
ATOM     10  C   UNL     1       4.257   2.356  19.673  0.00  0.00    +0.000 C 
ATOM     11  O   UNL     1       4.995   1.727  20.422  0.00  0.00    +0.000 OA
ENDROOT
BRANCH   1  12
ATOM     12  C   UNL     1       3.613   6.665  17.287  0.00  0.00    +0.000 C 
BRANCH  12  16
ATOM     13  C   UNL     1       1.146   8.023  21.372  0.00  0.00    +0.000 C 
ATOM     14  C   UNL     1       1.683   8.106  19.988  0.00  0.00    +0.000 A 
ATOM     15  N   UNL     1       2.465   7.204  19.426  0.00  0.00    +0.000 NA
ATOM     16  C   UNL     1       2.773   7.575  18.123  0.00  0.00    +0.000 A 
ATOM     17  C   UNL     1       2.205   8.770  17.721  0.00  0.00    +0.000 A 
ATOM     18  S   UNL     1       1.277   9.446  18.991  0.00  0.00    +0.000 S 
ENDBRANCH  12  16
ENDBRANCH   1  12
TORSDOF 2
ENDMDL
MODEL 2
REMARK VINA RESULT:      -6.8      2.996      4.211
REMARK  Name = 
REMARK  3 active torsions:
REMARK  status: ('A' for Active; 'I' for Inactive)
REMARK    1  A    between atoms: C_1  and  C_2
REMARK    2  A    between atoms: C_4  and  C_5
REMARK    3  A    between atoms: C_5  and  N_6
REMARK                            x       y       z     vdW  Elec       q    Type
REMARK                         _______ _______ _______ _____ _____    ______ ____
ROOT
ATOM      1  N   UNL     1       3.912   4.255  17.548  0.00  0.00    +0.000 N 
ATOM      2  C   UNL     1       3.956   2.887  17.471  0.00  0.00    +0.000 A 
ATOM      3  N   UNL     1       3.224   2.321  18.407  0.00  0.00    +0.000 NA
ATOM      4  C   UNL     1       2.666   3.362  19.111  0.00  0.00    +0.000 A 
ATOM      5  C   UNL     1       3.100   4.573  18.605  0.00  0.00    +0.000 A 
ATOM      6  C   UNL     1       2.705   5.842  19.137  0.00  0.00    +0.000 C 
ATOM      7  O   UNL     1       3.127   6.927  18.757  0.00  0.00    +0.000 OA
ATOM      8  C   UNL     1       1.691   5.771  20.230  0.00  0.00    +0.000 C 
ATOM      9  C   UNL     1       1.256   4.594  20.713  0.00  0.00    +0.000 C 
ATOM     10  C   UNL     1       1.739   3.261  20.230  0.00  0.00    +0.000 C 
ATOM     11  O   UNL     1       1.350   2.227  20.758  0.00  0.00    +0.000 OA
ENDROOT
BRANCH   1  12
ATOM     12  C   UNL     1       4.652   5.158  16.681  0.00  0.00    +0.000 C 
BRANCH  12  16
ATOM     13  C   UNL     1       8.056   8.638  17.642  0.00  0.00    +0.000 C 
ATOM     14  C   UNL     1       7.332   7.344  17.747  0.00  0.00    +0.000 A 
ATOM     15  N   UNL     1       6.252   7.024  17.061  0.00  0.00    +0.000 NA
ATOM     16  C   UNL     1       5.837   5.738  17.383  0.00  0.00    +0.000 A 
ATOM     17  C   UNL     1       6.629   5.101  18.321  0.00  0.00    +0.000 A 
ATOM     18  S   UNL     1       7.908   6.126  18.815  0.00  0.00    +0.000 S 
ENDBRANCH  12  16
ENDBRANCH   1  12
TORSDOF 2
ENDMDL
MODEL 3
REMARK VINA RESULT:      -6.7      1.008      1.313
REMARK  Name = 
REMARK  3 active torsions:
REMARK  status: ('A' for Active; 'I' for Inactive)
REMARK    1  A    between atoms: C_1  and  C_2
REMARK    2  A    between atoms: C_4  and  C_5
REMARK    3  A    between atoms: C_5  and  N_6
REMARK                            x       y       z     vdW  Elec       q    Type
REMARK                         _______ _______ _______ _____ _____    ______ ____
ROOT
ATOM      1  N   UNL     1       4.046   5.574  18.186  0.00  0.00    +0.000 N 
ATOM      2  C   UNL     1       5.255   5.597  18.833  0.00  0.00    +0.000 A 
ATOM      3  N   UNL     1       5.516   4.449  19.420  0.00  0.00    +0.000 NA
ATOM      4  C   UNL     1       4.444   3.639  19.130  0.00  0.00    +0.000 A 
ATOM      5  C   UNL     1       3.509   4.329  18.381  0.00  0.00    +0.000 A 
ATOM      6  C   UNL     1       2.273   3.759  17.935  0.00  0.00    +0.000 C 
ATOM      7  O   UNL     1       1.396   4.365  17.333  0.00  0.00    +0.000 OA
ATOM      8  C   UNL     1       2.107   2.309  18.249  0.00  0.00    +0.000 C 
ATOM      9  C   UNL     1       3.022   1.633  18.964  0.00  0.00    +0.000 C 
ATOM     10  C   UNL     1       4.270   2.247  19.521  0.00  0.00    +0.000 C 
ATOM     11  O   UNL     1       5.032   1.590  20.220  0.00  0.00    +0.000 OA
ENDROOT
BRANCH   1  12
ATOM     12  C   UNL     1       3.460   6.706  17.484  0.00  0.00    +0.000 C 
BRANCH  12  16
ATOM     13  C   UNL     1       0.742  10.657  18.756  0.00  0.00    +0.000 C 
ATOM     14  C   UNL     1       1.408   9.334  18.889  0.00  0.00    +0.000 A 
ATOM     15  N   UNL     1       2.100   8.738  17.937  0.00  0.00    +0.000 NA
ATOM     16  C   UNL     1       2.602   7.525  18.393  0.00  0.00    +0.000 A 
ATOM     17  C   UNL     1       2.275   7.227  19.703  0.00  0.00    +0.000 A 
ATOM     18  S   UNL     1       1.318   8.476  20.376  0.00  0.00    +0.000 S 
ENDBRANCH  12  16
ENDBRANCH   1  12
TORSDOF 2
ENDMDL
MODEL 4
REMARK VINA RESULT:      -6.7      3.504      4.187
REMARK  Name = 
REMARK  3 active torsions:
REMARK  status: ('A' for Active; 'I' for Inactive)
REMARK    1  A    between atoms: C_1  and  C_2
REMARK    2  A    between atoms: C_4  and  C_5
REMARK    3  A    between atoms: C_5  and  N_6
REMARK                            x       y       z     vdW  Elec       q    Type
REMARK                         _______ _______ _______ _____ _____    ______ ____
ROOT
ATOM      1  N   UNL     1       3.906   3.228  18.017  0.00  0.00    +0.000 N 
ATOM      2  C   UNL     1       4.953   2.786  18.784  0.00  0.00    +0.000 A 
ATOM      3  N   UNL     1       4.586   2.559  20.027  0.00  0.00    +0.000 NA
ATOM      4  C   UNL     1       3.243   2.847  20.069  0.00  0.00    +0.000 A 
ATOM      5  C   UNL     1       2.807   3.286  18.832  0.00  0.00    +0.000 A 
ATOM      6  C   UNL     1       1.456   3.678  18.562  0.00  0.00    +0.000 C 
ATOM      7  O   UNL     1       1.056   4.137  17.500  0.00  0.00    +0.000 OA
ATOM      8  C   UNL     1       0.509   3.477  19.698  0.00  0.00    +0.000 C 
ATOM      9  C   UNL     1       0.930   3.036  20.896  0.00  0.00    +0.000 C 
ATOM     10  C   UNL     1       2.358   2.719  21.218  0.00  0.00    +0.000 C 
ATOM     11  O   UNL     1       2.684   2.383  22.350  0.00  0.00    +0.000 OA
ENDROOT
BRANCH   1  12
ATOM     12  C   UNL     1       4.006   3.607  16.616  0.00  0.00    +0.000 C 
BRANCH  12  16
ATOM     13  C   UNL     1       7.430   7.131  17.303  0.00  0.00    +0.000 C 
ATOM     14  C   UNL     1       6.768   5.943  16.702  0.00  0.00    +0.000 A 
ATOM     15  N   UNL     1       5.636   5.414  17.126  0.00  0.00    +0.000 NA
ATOM     16  C   UNL     1       5.286   4.326  16.337  0.00  0.00    +0.000 A 
ATOM     17  C   UNL     1       6.176   4.052  15.313  0.00  0.00    +0.000 A 
ATOM     18  S   UNL     1       7.475   5.166  15.341  0.00  0.00    +0.000 S 
ENDBRANCH  12  16
ENDBRANCH   1  12
TORSDOF 2
ENDMDL
MODEL 5
REMARK VINA RESULT:      -6.6      3.117      4.345
REMARK  Name = 
REMARK  3 active torsions:
REMARK  status: ('A' for Active; 'I' for Inactive)
REMARK    1  A    between atoms: C_1  and  C_2
REMARK    2  A    between atoms: C_4  and  C_5
REMARK    3  A    between atoms: C_5  and  N_6
REMARK                            x       y       z     vdW  Elec       q    Type
REMARK                         _______ _______ _______ _____ _____    ______ ____
ROOT
ATOM      1  N   UNL     1       3.418   3.304  17.728  0.00  0.00    +0.000 N 
ATOM      2  C   UNL     1       3.803   2.029  18.054  0.00  0.00    +0.000 A 
ATOM      3  N   UNL     1       3.590   1.764  19.325  0.00  0.00    +0.000 NA
ATOM      4  C   UNL     1       3.027   2.905  19.845  0.00  0.00    +0.000 A 
ATOM      5  C   UNL     1       2.933   3.882  18.871  0.00  0.00    +0.000 A 
ATOM      6  C   UNL     1       2.401   5.190  19.110  0.00  0.00    +0.000 C 
ATOM      7  O   UNL     1       2.370   6.098  18.289  0.00  0.00    +0.000 OA
ATOM      8  C   UNL     1       1.848   5.398  20.481  0.00  0.00    +0.000 C 
ATOM      9  C   UNL     1       1.925   4.443  21.424  0.00  0.00    +0.000 C 
ATOM     10  C   UNL     1       2.570   3.108  21.213  0.00  0.00    +0.000 C 
ATOM     11  O   UNL     1       2.665   2.307  22.135  0.00  0.00    +0.000 OA
ENDROOT
BRANCH   1  12
ATOM     12  C   UNL     1       3.570   3.906  16.412  0.00  0.00    +0.000 C 
BRANCH  12  16
ATOM     13  C   UNL     1       7.423   6.900  17.314  0.00  0.00    +0.000 C 
ATOM     14  C   UNL     1       6.631   5.818  16.670  0.00  0.00    +0.000 A 
ATOM     15  N   UNL     1       5.412   5.460  17.025  0.00  0.00    +0.000 NA
ATOM     16  C   UNL     1       4.954   4.431  16.211  0.00  0.00    +0.000 A 
ATOM     17  C   UNL     1       5.852   4.029  15.239  0.00  0.00    +0.000 A 
ATOM     18  S   UNL     1       7.295   4.944  15.347  0.00  0.00    +0.000 S 
ENDBRANCH  12  16
ENDBRANCH   1  12
TORSDOF 2
ENDMDL
MODEL 6
REMARK VINA RESULT:      -6.6      3.034      4.853
REMARK  Name = 
REMARK  3 active torsions:
REMARK  status: ('A' for Active; 'I' for Inactive)
REMARK    1  A    between atoms: C_1  and  C_2
REMARK    2  A    between atoms: C_4  and  C_5
REMARK    3  A    between atoms: C_5  and  N_6
REMARK                            x       y       z     vdW  Elec       q    Type
REMARK                         _______ _______ _______ _____ _____    ______ ____
ROOT
ATOM      1  N   UNL     1       4.956   4.517  16.986  0.00  0.00    +0.000 N 
ATOM      2  C   UNL     1       4.869   5.222  15.813  0.00  0.00    +0.000 A 
ATOM      3  N   UNL     1       5.703   6.239  15.793  0.00  0.00    +0.000 NA
ATOM      4  C   UNL     1       6.373   6.185  16.992  0.00  0.00    +0.000 A 
ATOM      5  C   UNL     1       5.906   5.133  17.757  0.00  0.00    +0.000 A 
ATOM      6  C   UNL     1       6.397   4.825  19.067  0.00  0.00    +0.000 C 
ATOM      7  O   UNL     1       5.956   3.946  19.795  0.00  0.00    +0.000 OA
ATOM      8  C   UNL     1       7.544   5.669  19.516  0.00  0.00    +0.000 C 
ATOM      9  C   UNL     1       8.009   6.683  18.766  0.00  0.00    +0.000 C 
ATOM     10  C   UNL     1       7.435   7.076  17.440  0.00  0.00    +0.000 C 
ATOM     11  O   UNL     1       7.864   8.052  16.837  0.00  0.00    +0.000 OA
ENDROOT
BRANCH   1  12
ATOM     12  C   UNL     1       4.130   3.367  17.325  0.00  0.00    +0.000 C 
BRANCH  12  16
ATOM     13  C   UNL     1       1.708   2.543  21.577  0.00  0.00    +0.000 C 
ATOM     14  C   UNL     1       2.119   3.244  20.331  0.00  0.00    +0.000 A 
ATOM     15  N   UNL     1       3.040   2.813  19.491  0.00  0.00    +0.000 NA
ATOM     16  C   UNL     1       3.170   3.692  18.423  0.00  0.00    +0.000 A 
ATOM     17  C   UNL     1       2.327   4.787  18.479  0.00  0.00    +0.000 A 
ATOM     18  S   UNL     1       1.361   4.724  19.891  0.00  0.00    +0.000 S 
ENDBRANCH  12  16
ENDBRANCH   1  12
TORSDOF 2
ENDMDL
MODEL 7
REMARK VINA RESULT:      -6.6      2.859      4.237
REMARK  Name = 
REMARK  3 active torsions:
REMARK  status: ('A' for Active; 'I' for Inactive)
REMARK    1  A    between atoms: C_1  and  C_2
REMARK    2  A    between atoms: C_4  and  C_5
REMARK    3  A    between atoms: C_5  and  N_6
REMARK                            x       y       z     vdW  Elec       q    Type
REMARK                         _______ _______ _______ _____ _____    ______ ____
ROOT
ATOM      1  N   UNL     1       2.937   5.661  18.707  0.00  0.00    +0.000 N 
ATOM      2  C   UNL     1       2.800   6.222  19.950  0.00  0.00    +0.000 A 
ATOM      3  N   UNL     1       2.236   5.392  20.801  0.00  0.00    +0.000 NA
ATOM      4  C   UNL     1       2.012   4.237  20.089  0.00  0.00    +0.000 A 
ATOM      5  C   UNL     1       2.422   4.394  18.778  0.00  0.00    +0.000 A 
ATOM      6  C   UNL     1       2.305   3.370  17.784  0.00  0.00    +0.000 C 
ATOM      7  O   UNL     1       2.593   3.501  16.601  0.00  0.00    +0.000 OA
ATOM      8  C   UNL     1       1.799   2.061  18.293  0.00  0.00    +0.000 C 
ATOM      9  C   UNL     1       1.414   1.903  19.572  0.00  0.00    +0.000 C 
ATOM     10  C   UNL     1       1.439   2.998  20.594  0.00  0.00    +0.000 C 
ATOM     11  O   UNL     1       1.013   2.805  21.726  0.00  0.00    +0.000 OA
ENDROOT
BRANCH   1  12
ATOM     12  C   UNL     1       3.482   6.345  17.544  0.00  0.00    +0.000 C 
BRANCH  12  16
ATOM     13  C   UNL     1       7.044   4.797  14.455  0.00  0.00    +0.000 C 
ATOM     14  C   UNL     1       6.376   5.133  15.741  0.00  0.00    +0.000 A 
ATOM     15  N   UNL     1       5.164   5.642  15.853  0.00  0.00    +0.000 NA
ATOM     16  C   UNL     1       4.836   5.821  17.191  0.00  0.00    +0.000 A 
ATOM     17  C   UNL     1       5.825   5.434  18.078  0.00  0.00    +0.000 A 
ATOM     18  S   UNL     1       7.189   4.845  17.228  0.00  0.00    +0.000 S 
ENDBRANCH  12  16
ENDBRANCH   1  12
TORSDOF 2
ENDMDL
MODEL 8
REMARK VINA RESULT:      -6.6      3.735      5.642
REMARK  Name = 
REMARK  3 active torsions:
REMARK  status: ('A' for Active; 'I' for Inactive)
REMARK    1  A    between atoms: C_1  and  C_2
REMARK    2  A    between atoms: C_4  and  C_5
REMARK    3  A    between atoms: C_5  and  N_6
REMARK                            x       y       z     vdW  Elec       q    Type
REMARK                         _______ _______ _______ _____ _____    ______ ____
ROOT
ATOM      1  N   UNL     1       5.529   5.526  17.741  0.00  0.00    +0.000 N 
ATOM      2  C   UNL     1       5.283   6.782  17.249  0.00  0.00    +0.000 A 
ATOM      3  N   UNL     1       4.186   7.300  17.760  0.00  0.00    +0.000 NA
ATOM      4  C   UNL     1       3.707   6.351  18.632  0.00  0.00    +0.000 A 
ATOM      5  C   UNL     1       4.518   5.231  18.617  0.00  0.00    +0.000 A 
ATOM      6  C   UNL     1       4.272   4.064  19.409  0.00  0.00    +0.000 C 
ATOM      7  O   UNL     1       4.930   3.032  19.365  0.00  0.00    +0.000 OA
ATOM      8  C   UNL     1       3.119   4.181  20.350  0.00  0.00    +0.000 C 
ATOM      9  C   UNL     1       2.339   5.275  20.376  0.00  0.00    +0.000 C 
ATOM     10  C   UNL     1       2.528   6.460  19.480  0.00  0.00    +0.000 C 
ATOM     11  O   UNL     1       1.742   7.399  19.510  0.00  0.00    +0.000 OA
ENDROOT
BRANCH   1  12
ATOM     12  C   UNL     1       6.640   4.679  17.333  0.00  0.00    +0.000 C 
BRANCH  12  16
ATOM     13  C   UNL     1       8.175   5.597  12.705  0.00  0.00    +0.000 C 
ATOM     14  C   UNL     1       7.400   4.968  13.807  0.00  0.00    +0.000 A 
ATOM     15  N   UNL     1       7.555   5.238  15.089  0.00  0.00    +0.000 NA
ATOM     16  C   UNL     1       6.665   4.491  15.851  0.00  0.00    +0.000 A 
ATOM     17  C   UNL     1       5.840   3.660  15.115  0.00  0.00    +0.000 A 
ATOM     18  S   UNL     1       6.186   3.806  13.444  0.00  0.00    +0.000 S 
ENDBRANCH  12  16
ENDBRANCH   1  12
TORSDOF 2
ENDMDL
MODEL 9
REMARK VINA RESULT:      -6.5      2.697      3.744
REMARK  Name = 
REMARK  3 active torsions:
REMARK  status: ('A' for Active; 'I' for Inactive)
REMARK    1  A    between atoms: C_1  and  C_2
REMARK    2  A    between atoms: C_4  and  C_5
REMARK    3  A    between atoms: C_5  and  N_6
REMARK                            x       y       z     vdW  Elec       q    Type
REMARK                         _______ _______ _______ _____ _____    ______ ____
ROOT
ATOM      1  N   UNL     1       2.627   5.649  18.747  0.00  0.00    +0.000 N 
ATOM      2  C   UNL     1       2.612   6.259  19.975  0.00  0.00    +0.000 A 
ATOM      3  N   UNL     1       2.214   5.437  20.923  0.00  0.00    +0.000 NA
ATOM      4  C   UNL     1       1.978   4.240  20.291  0.00  0.00    +0.000 A 
ATOM      5  C   UNL     1       2.208   4.358  18.933  0.00  0.00    +0.000 A 
ATOM      6  C   UNL     1       2.034   3.284  18.002  0.00  0.00    +0.000 C 
ATOM      7  O   UNL     1       2.161   3.377  16.788  0.00  0.00    +0.000 OA
ATOM      8  C   UNL     1       1.681   1.973  18.623  0.00  0.00    +0.000 C 
ATOM      9  C   UNL     1       1.471   1.853  19.946  0.00  0.00    +0.000 C 
ATOM     10  C   UNL     1       1.553   2.993  20.913  0.00  0.00    +0.000 C 
ATOM     11  O   UNL     1       1.287   2.829  22.098  0.00  0.00    +0.000 OA
ENDROOT
BRANCH   1  12
ATOM     12  C   UNL     1       2.977   6.309  17.498  0.00  0.00    +0.000 C 
BRANCH  12  16
ATOM     13  C   UNL     1       7.726   7.742  17.563  0.00  0.00    +0.000 C 
ATOM     14  C   UNL     1       6.540   6.896  17.267  0.00  0.00    +0.000 A 
ATOM     15  N   UNL     1       5.308   7.158  17.660  0.00  0.00    +0.000 NA
ATOM     16  C   UNL     1       4.436   6.178  17.204  0.00  0.00    +0.000 A 
ATOM     17  C   UNL     1       5.038   5.180  16.460  0.00  0.00    +0.000 A 
ATOM     18  S   UNL     1       6.721   5.463  16.334  0.00  0.00    +0.000 S 
ENDBRANCH  12  16
ENDBRANCH   1  12
TORSDOF 2
ENDMDL
