MODEL 1
REMARK VINA RESULT:      -8.1      0.000      0.000
REMARK  Name = 
REMARK  12 active torsions:
REMARK  status: ('A' for Active; 'I' for Inactive)
REMARK    1  A    between atoms: C_1  and  O_2
REMARK    2  A    between atoms: O_2  and  C_3
REMARK    3  A    between atoms: C_7  and  C_8
REMARK    4  A    between atoms: C_8  and  N_9
REMARK    5  A    between atoms: N_9  and  C_10
REMARK    6  A    between atoms: N_9  and  C_11
REMARK    7  A    between atoms: C_11  and  C_12
REMARK    8  A    between atoms: N_14  and  C_15
REMARK    9  A    between atoms: C_20  and  C_21
REMARK   10  A    between atoms: N_23  and  C_24
REMARK   11  A    between atoms: C_30  and  O_31
REMARK   12  A    between atoms: O_31  and  C_32
REMARK                            x       y       z     vdW  Elec       q    Type
REMARK                         _______ _______ _______ _____ _____    ______ ____
ROOT
ATOM      1  C   UNL     1       2.587   6.610  18.456  0.00  0.00    +0.000 C 
ATOM      2  O   UNL     1       1.773   5.909  17.850  0.00  0.00    +0.000 OA
ATOM      3  N   UNL     1       3.204   6.225  19.636  0.00  0.00    +0.000 N 
ATOM      4  H   UNL     1       3.189   6.965  20.341  0.00  0.00    +0.000 HD
ENDROOT
BRANCH   3   5
ATOM      5  C   UNL     1       3.010   4.912  20.133  0.00  0.00    +0.000 A 
ATOM      6  C   UNL     1       1.912   4.685  20.973  0.00  0.00    +0.000 A 
ATOM      7  C   UNL     1       1.613   3.397  21.420  0.00  0.00    +0.000 A 
ATOM      8  C   UNL     1       2.420   2.326  21.045  0.00  0.00    +0.000 A 
ATOM      9  C   UNL     1       3.525   2.541  20.219  0.00  0.00    +0.000 A 
ATOM     10  C   UNL     1       3.834   3.835  19.757  0.00  0.00    +0.000 A 
BRANCH  10  11
ATOM     11  C   UNL     1       5.007   4.057  18.855  0.00  0.00    +0.000 C 
ATOM     12  O   UNL     1       5.990   4.624  19.321  0.00  0.00    +0.000 OA
ATOM     13  N   UNL     1       4.855   3.614  17.549  0.00  0.00    +0.000 N 
ATOM     14  H   UNL     1       4.044   3.054  17.327  0.00  0.00    +0.000 HD
BRANCH  13  15
ATOM     15  C   UNL     1       5.664   3.974  16.442  0.00  0.00    +0.000 A 
ATOM     16  C   UNL     1       6.850   4.695  16.561  0.00  0.00    +0.000 A 
ATOM     17  C   UNL     1       7.535   5.128  15.423  0.00  0.00    +0.000 A 
ATOM     18  C   UNL     1       7.039   4.838  14.154  0.00  0.00    +0.000 A 
ATOM     19  C   UNL     1       5.881   4.083  14.026  0.00  0.00    +0.000 A 
ATOM     20  C   UNL     1       5.197   3.639  15.165  0.00  0.00    +0.000 A 
ENDBRANCH  13  15
ENDBRANCH  10  11
ENDBRANCH   3   5
BRANCH   1  21
ATOM     21  C   UNL     1       2.908   8.033  17.977  0.00  0.00    +0.000 C 
BRANCH  21  22
ATOM     22  N   UNL     1       1.783   8.989  18.131  0.00  0.00    +0.000 NA
ATOM     23  C   UNL     1       2.288  10.349  17.895  0.00  0.00    +0.000 C 
BRANCH  22  24
ATOM     24  C   UNL     1       1.173   8.920  19.483  0.00  0.00    +0.000 C 
BRANCH  24  29
ATOM     25  C   UNL     1      -1.084  11.593  21.118  0.00  0.00    +0.000 A 
ATOM     26  C   UNL     1      -1.909  11.912  20.032  0.00  0.00    +0.000 A 
ATOM     27  C   UNL     1      -1.725  11.292  18.801  0.00  0.00    +0.000 A 
ATOM     28  C   UNL     1      -0.735  10.329  18.650  0.00  0.00    +0.000 A 
ATOM     29  C   UNL     1       0.144  10.022  19.709  0.00  0.00    +0.000 A 
ATOM     30  C   UNL     1       0.004  10.713  20.931  0.00  0.00    +0.000 A 
BRANCH  25  32
ATOM     31  C   UNL     1      -0.800  13.412  22.615  0.00  0.00    +0.000 C 
ATOM     32  O   UNL     1      -1.296  12.097  22.380  0.00  0.00    +0.000 OA
ENDBRANCH  25  32
BRANCH  30  33
ATOM     33  O   UNL     1       0.912  10.421  21.920  0.00  0.00    +0.000 OA
ATOM     34  C   UNL     1       0.482   9.438  22.867  0.00  0.00    +0.000 C 
ENDBRANCH  30  33
ENDBRANCH  24  29
ENDBRANCH  22  24
ENDBRANCH  21  22
ENDBRANCH   1  21
TORSDOF 9
ENDMDL
MODEL 2
REMARK VINA RESULT:      -7.9      1.690      2.577
REMARK  Name = 
REMARK  12 active torsions:
REMARK  status: ('A' for Active; 'I' for Inactive)
REMARK    1  A    between atoms: C_1  and  O_2
REMARK    2  A    between atoms: O_2  and  C_3
REMARK    3  A    between atoms: C_7  and  C_8
REMARK    4  A    between atoms: C_8  and  N_9
REMARK    5  A    between atoms: N_9  and  C_10
REMARK    6  A    between atoms: N_9  and  C_11
REMARK    7  A    between atoms: C_11  and  C_12
REMARK    8  A    between atoms: N_14  and  C_15
REMARK    9  A    between atoms: C_20  and  C_21
REMARK   10  A    between atoms: N_23  and  C_24
REMARK   11  A    between atoms: C_30  and  O_31
REMARK   12  A    between atoms: O_31  and  C_32
REMARK                            x       y       z     vdW  Elec       q    Type
REMARK                         _______ _______ _______ _____ _____    ______ ____
ROOT
ATOM      1  C   UNL     1       2.463   7.182  18.592  0.00  0.00    +0.000 C 
ATOM      2  O   UNL     1       2.858   6.985  19.743  0.00  0.00    +0.000 OA
ATOM      3  N   UNL     1       2.345   6.183  17.639  0.00  0.00    +0.000 N 
ATOM      4  H   UNL     1       2.743   6.457  16.739  0.00  0.00    +0.000 HD
ENDROOT
BRANCH   3   5
ATOM      5  C   UNL     1       2.559   4.832  18.010  0.00  0.00    +0.000 A 
ATOM      6  C   UNL     1       1.642   4.243  18.891  0.00  0.00    +0.000 A 
ATOM      7  C   UNL     1       1.743   2.890  19.222  0.00  0.00    +0.000 A 
ATOM      8  C   UNL     1       2.772   2.119  18.688  0.00  0.00    +0.000 A 
ATOM      9  C   UNL     1       3.700   2.698  17.820  0.00  0.00    +0.000 A 
ATOM     10  C   UNL     1       3.605   4.060  17.475  0.00  0.00    +0.000 A 
BRANCH  10  11
ATOM     11  C   UNL     1       4.589   4.670  16.527  0.00  0.00    +0.000 C 
ATOM     12  O   UNL     1       4.745   5.887  16.567  0.00  0.00    +0.000 OA
ATOM     13  N   UNL     1       5.222   3.788  15.663  0.00  0.00    +0.000 N 
ATOM     14  H   UNL     1       5.095   2.797  15.817  0.00  0.00    +0.000 HD
BRANCH  13  15
ATOM     15  C   UNL     1       5.939   4.133  14.490  0.00  0.00    +0.000 A 
ATOM     16  C   UNL     1       5.656   3.601  13.234  0.00  0.00    +0.000 A 
ATOM     17  C   UNL     1       6.478   3.883  12.141  0.00  0.00    +0.000 A 
ATOM     18  C   UNL     1       7.592   4.706  12.296  0.00  0.00    +0.000 A 
ATOM     19  C   UNL     1       7.857   5.275  13.535  0.00  0.00    +0.000 A 
ATOM     20  C   UNL     1       7.028   5.001  14.631  0.00  0.00    +0.000 A 
ENDBRANCH  13  15
ENDBRANCH  10  11
ENDBRANCH   3   5
BRANCH   1  21
ATOM     21  C   UNL     1       2.155   8.604  18.100  0.00  0.00    +0.000 C 
BRANCH  21  22
ATOM     22  N   UNL     1       0.932   9.196  18.696  0.00  0.00    +0.000 NA
ATOM     23  C   UNL     1       0.024   9.590  17.609  0.00  0.00    +0.000 C 
BRANCH  22  24
ATOM     24  C   UNL     1       1.237  10.382  19.535  0.00  0.00    +0.000 C 
BRANCH  24  29
ATOM     25  C   UNL     1      -0.966  11.521  22.496  0.00  0.00    +0.000 A 
ATOM     26  C   UNL     1      -0.903  10.376  23.300  0.00  0.00    +0.000 A 
ATOM     27  C   UNL     1      -0.182   9.261  22.884  0.00  0.00    +0.000 A 
ATOM     28  C   UNL     1       0.503   9.288  21.676  0.00  0.00    +0.000 A 
ATOM     29  C   UNL     1       0.418  10.406  20.821  0.00  0.00    +0.000 A 
ATOM     30  C   UNL     1      -0.380  11.503  21.212  0.00  0.00    +0.000 A 
BRANCH  25  32
ATOM     31  C   UNL     1      -2.969  12.594  23.177  0.00  0.00    +0.000 C 
ATOM     32  O   UNL     1      -1.572  12.683  22.911  0.00  0.00    +0.000 OA
ENDBRANCH  25  32
BRANCH  30  33
ATOM     33  O   UNL     1      -0.476  12.549  20.327  0.00  0.00    +0.000 OA
ATOM     34  C   UNL     1      -1.636  12.530  19.489  0.00  0.00    +0.000 C 
ENDBRANCH  30  33
ENDBRANCH  24  29
ENDBRANCH  22  24
ENDBRANCH  21  22
ENDBRANCH   1  21
TORSDOF 9
ENDMDL
MODEL 3
REMARK VINA RESULT:      -7.9      1.343      2.053
REMARK  Name = 
REMARK  12 active torsions:
REMARK  status: ('A' for Active; 'I' for Inactive)
REMARK    1  A    between atoms: C_1  and  O_2
REMARK    2  A    between atoms: O_2  and  C_3
REMARK    3  A    between atoms: C_7  and  C_8
REMARK    4  A    between atoms: C_8  and  N_9
REMARK    5  A    between atoms: N_9  and  C_10
REMARK    6  A    between atoms: N_9  and  C_11
REMARK    7  A    between atoms: C_11  and  C_12
REMARK    8  A    between atoms: N_14  and  C_15
REMARK    9  A    between atoms: C_20  and  C_21
REMARK   10  A    between atoms: N_23  and  C_24
REMARK   11  A    between atoms: C_30  and  O_31
REMARK   12  A    between atoms: O_31  and  C_32
REMARK                            x       y       z     vdW  Elec       q    Type
REMARK                         _______ _______ _______ _____ _____    ______ ____
ROOT
ATOM      1  C   UNL     1       2.025   7.442  19.608  0.00  0.00    +0.000 C 
ATOM      2  O   UNL     1       2.152   7.580  20.826  0.00  0.00    +0.000 OA
ATOM      3  N   UNL     1       2.158   6.227  18.954  0.00  0.00    +0.000 N 
ATOM      4  H   UNL     1       2.743   6.298  18.119  0.00  0.00    +0.000 HD
ENDROOT
BRANCH   3   5
ATOM      5  C   UNL     1       2.321   5.038  19.709  0.00  0.00    +0.000 A 
ATOM      6  C   UNL     1       1.262   4.639  20.537  0.00  0.00    +0.000 A 
ATOM      7  C   UNL     1       1.323   3.431  21.234  0.00  0.00    +0.000 A 
ATOM      8  C   UNL     1       2.449   2.621  21.123  0.00  0.00    +0.000 A 
ATOM      9  C   UNL     1       3.516   3.014  20.313  0.00  0.00    +0.000 A 
ATOM     10  C   UNL     1       3.465   4.228  19.601  0.00  0.00    +0.000 A 
BRANCH  10  11
ATOM     11  C   UNL     1       4.601   4.635  18.716  0.00  0.00    +0.000 C 
ATOM     12  O   UNL     1       5.175   5.690  18.968  0.00  0.00    +0.000 OA
ATOM     13  N   UNL     1       4.885   3.776  17.664  0.00  0.00    +0.000 N 
ATOM     14  H   UNL     1       4.418   2.880  17.642  0.00  0.00    +0.000 HD
BRANCH  13  15
ATOM     15  C   UNL     1       5.678   4.075  16.529  0.00  0.00    +0.000 A 
ATOM     16  C   UNL     1       6.965   4.601  16.608  0.00  0.00    +0.000 A 
ATOM     17  C   UNL     1       7.645   4.993  15.452  0.00  0.00    +0.000 A 
ATOM     18  C   UNL     1       7.042   4.856  14.204  0.00  0.00    +0.000 A 
ATOM     19  C   UNL     1       5.776   4.292  14.112  0.00  0.00    +0.000 A 
ATOM     20  C   UNL     1       5.095   3.890  15.268  0.00  0.00    +0.000 A 
ENDBRANCH  13  15
ENDBRANCH  10  11
ENDBRANCH   3   5
BRANCH   1  21
ATOM     21  C   UNL     1       1.796   8.659  18.699  0.00  0.00    +0.000 C 
BRANCH  21  22
ATOM     22  N   UNL     1       0.599   9.460  19.056  0.00  0.00    +0.000 NA
ATOM     23  C   UNL     1      -0.070   9.880  17.816  0.00  0.00    +0.000 C 
BRANCH  22  24
ATOM     24  C   UNL     1       0.948  10.660  19.856  0.00  0.00    +0.000 C 
BRANCH  24  29
ATOM     25  C   UNL     1      -1.771  12.255  22.089  0.00  0.00    +0.000 A 
ATOM     26  C   UNL     1      -1.731  11.379  23.182  0.00  0.00    +0.000 A 
ATOM     27  C   UNL     1      -0.862  10.294  23.185  0.00  0.00    +0.000 A 
ATOM     28  C   UNL     1      -0.006  10.087  22.111  0.00  0.00    +0.000 A 
ATOM     29  C   UNL     1      -0.056  10.920  20.974  0.00  0.00    +0.000 A 
ATOM     30  C   UNL     1      -0.997  11.972  20.943  0.00  0.00    +0.000 A 
BRANCH  25  32
ATOM     31  C   UNL     1      -2.343  14.273  23.197  0.00  0.00    +0.000 C 
ATOM     32  O   UNL     1      -2.532  13.400  22.087  0.00  0.00    +0.000 OA
ENDBRANCH  25  32
BRANCH  30  33
ATOM     33  O   UNL     1      -1.048  12.727  19.797  0.00  0.00    +0.000 OA
ATOM     34  C   UNL     1      -0.220  13.894  19.802  0.00  0.00    +0.000 C 
ENDBRANCH  30  33
ENDBRANCH  24  29
ENDBRANCH  22  24
ENDBRANCH  21  22
ENDBRANCH   1  21
TORSDOF 9
ENDMDL
MODEL 4
REMARK VINA RESULT:      -7.8      1.060      1.917
REMARK  Name = 
REMARK  12 active torsions:
REMARK  status: ('A' for Active; 'I' for Inactive)
REMARK    1  A    between atoms: C_1  and  O_2
REMARK    2  A    between atoms: O_2  and  C_3
REMARK    3  A    between atoms: C_7  and  C_8
REMARK    4  A    between atoms: C_8  and  N_9
REMARK    5  A    between atoms: N_9  and  C_10
REMARK    6  A    between atoms: N_9  and  C_11
REMARK    7  A    between atoms: C_11  and  C_12
REMARK    8  A    between atoms: N_14  and  C_15
REMARK    9  A    between atoms: C_20  and  C_21
REMARK   10  A    between atoms: N_23  and  C_24
REMARK   11  A    between atoms: C_30  and  O_31
REMARK   12  A    between atoms: O_31  and  C_32
REMARK                            x       y       z     vdW  Elec       q    Type
REMARK                         _______ _______ _______ _____ _____    ______ ____
ROOT
ATOM      1  C   UNL     1       2.385   6.597  18.701  0.00  0.00    +0.000 C 
ATOM      2  O   UNL     1       1.840   5.786  17.949  0.00  0.00    +0.000 OA
ATOM      3  N   UNL     1       2.902   6.266  19.943  0.00  0.00    +0.000 N 
ATOM      4  H   UNL     1       2.625   6.930  20.668  0.00  0.00    +0.000 HD
ENDROOT
BRANCH   3   5
ATOM      5  C   UNL     1       2.939   4.908  20.348  0.00  0.00    +0.000 A 
ATOM      6  C   UNL     1       1.964   4.468  21.253  0.00  0.00    +0.000 A 
ATOM      7  C   UNL     1       1.889   3.122  21.618  0.00  0.00    +0.000 A 
ATOM      8  C   UNL     1       2.801   2.208  21.095  0.00  0.00    +0.000 A 
ATOM      9  C   UNL     1       3.785   2.637  20.203  0.00  0.00    +0.000 A 
ATOM     10  C   UNL     1       3.868   3.991  19.823  0.00  0.00    +0.000 A 
BRANCH  10  11
ATOM     11  C   UNL     1       4.912   4.441  18.850  0.00  0.00    +0.000 C 
ATOM     12  O   UNL     1       5.633   5.379  19.176  0.00  0.00    +0.000 OA
ATOM     13  N   UNL     1       4.947   3.758  17.643  0.00  0.00    +0.000 N 
ATOM     14  H   UNL     1       4.380   2.926  17.551  0.00  0.00    +0.000 HD
BRANCH  13  15
ATOM     15  C   UNL     1       5.605   4.178  16.461  0.00  0.00    +0.000 A 
ATOM     16  C   UNL     1       5.043   4.075  15.191  0.00  0.00    +0.000 A 
ATOM     17  C   UNL     1       5.792   4.389  14.054  0.00  0.00    +0.000 A 
ATOM     18  C   UNL     1       7.113   4.814  14.181  0.00  0.00    +0.000 A 
ATOM     19  C   UNL     1       7.668   4.961  15.445  0.00  0.00    +0.000 A 
ATOM     20  C   UNL     1       6.916   4.656  16.587  0.00  0.00    +0.000 A 
ENDBRANCH  13  15
ENDBRANCH  10  11
ENDBRANCH   3   5
BRANCH   1  21
ATOM     21  C   UNL     1       2.444   8.088  18.338  0.00  0.00    +0.000 C 
BRANCH  21  22
ATOM     22  N   UNL     1       1.287   8.875  18.834  0.00  0.00    +0.000 NA
ATOM     23  C   UNL     1       0.593   9.465  17.680  0.00  0.00    +0.000 C 
BRANCH  22  24
ATOM     24  C   UNL     1       1.704   9.956  19.762  0.00  0.00    +0.000 C 
BRANCH  24  29
ATOM     25  C   UNL     1      -0.958  11.446  22.131  0.00  0.00    +0.000 A 
ATOM     26  C   UNL     1      -0.948  10.480  23.146  0.00  0.00    +0.000 A 
ATOM     27  C   UNL     1      -0.116   9.369  23.054  0.00  0.00    +0.000 A 
ATOM     28  C   UNL     1       0.732   9.226  21.963  0.00  0.00    +0.000 A 
ATOM     29  C   UNL     1       0.710  10.154  20.901  0.00  0.00    +0.000 A 
ATOM     30  C   UNL     1      -0.194  11.236  20.963  0.00  0.00    +0.000 A 
BRANCH  25  32
ATOM     31  C   UNL     1      -1.285  13.501  23.271  0.00  0.00    +0.000 C 
ATOM     32  O   UNL     1      -1.679  12.613  22.229  0.00  0.00    +0.000 OA
ENDBRANCH  25  32
BRANCH  30  33
ATOM     33  O   UNL     1      -0.220  12.088  19.885  0.00  0.00    +0.000 OA
ATOM     34  C   UNL     1       0.635  13.229  19.994  0.00  0.00    +0.000 C 
ENDBRANCH  30  33
ENDBRANCH  24  29
ENDBRANCH  22  24
ENDBRANCH  21  22
ENDBRANCH   1  21
TORSDOF 9
ENDMDL
MODEL 5
REMARK VINA RESULT:      -7.7      2.742      8.864
REMARK  Name = 
REMARK  12 active torsions:
REMARK  status: ('A' for Active; 'I' for Inactive)
REMARK    1  A    between atoms: C_1  and  O_2
REMARK    2  A    between atoms: O_2  and  C_3
REMARK    3  A    between atoms: C_7  and  C_8
REMARK    4  A    between atoms: C_8  and  N_9
REMARK    5  A    between atoms: N_9  and  C_10
REMARK    6  A    between atoms: N_9  and  C_11
REMARK    7  A    between atoms: C_11  and  C_12
REMARK    8  A    between atoms: N_14  and  C_15
REMARK    9  A    between atoms: C_20  and  C_21
REMARK   10  A    between atoms: N_23  and  C_24
REMARK   11  A    between atoms: C_30  and  O_31
REMARK   12  A    between atoms: O_31  and  C_32
REMARK                            x       y       z     vdW  Elec       q    Type
REMARK                         _______ _______ _______ _____ _____    ______ ____
ROOT
ATOM      1  C   UNL     1       1.677   8.437  19.434  0.00  0.00    +0.000 C 
ATOM      2  O   UNL     1       1.991   7.848  20.470  0.00  0.00    +0.000 OA
ATOM      3  N   UNL     1       0.722   9.440  19.379  0.00  0.00    +0.000 N 
ATOM      4  H   UNL     1       0.068   9.312  18.605  0.00  0.00    +0.000 HD
ENDROOT
BRANCH   3   5
ATOM      5  C   UNL     1       0.149   9.929  20.581  0.00  0.00    +0.000 A 
ATOM      6  C   UNL     1      -0.144   9.001  21.590  0.00  0.00    +0.000 A 
ATOM      7  C   UNL     1      -0.622   9.429  22.830  0.00  0.00    +0.000 A 
ATOM      8  C   UNL     1      -0.828  10.786  23.066  0.00  0.00    +0.000 A 
ATOM      9  C   UNL     1      -0.552  11.718  22.063  0.00  0.00    +0.000 A 
ATOM     10  C   UNL     1      -0.065  11.299  20.810  0.00  0.00    +0.000 A 
BRANCH  10  11
ATOM     11  C   UNL     1       0.249  12.304  19.746  0.00  0.00    +0.000 C 
ATOM     12  O   UNL     1      -0.219  12.119  18.627  0.00  0.00    +0.000 OA
ATOM     13  N   UNL     1       1.074  13.352  20.130  0.00  0.00    +0.000 N 
ATOM     14  H   UNL     1       1.289  13.452  21.113  0.00  0.00    +0.000 HD
BRANCH  13  15
ATOM     15  C   UNL     1       1.762  14.238  19.264  0.00  0.00    +0.000 A 
ATOM     16  C   UNL     1       2.969  13.923  18.646  0.00  0.00    +0.000 A 
ATOM     17  C   UNL     1       3.661  14.885  17.906  0.00  0.00    +0.000 A 
ATOM     18  C   UNL     1       3.145  16.172  17.775  0.00  0.00    +0.000 A 
ATOM     19  C   UNL     1       1.920  16.482  18.352  0.00  0.00    +0.000 A 
ATOM     20  C   UNL     1       1.220  15.517  19.087  0.00  0.00    +0.000 A 
ENDBRANCH  13  15
ENDBRANCH  10  11
ENDBRANCH   3   5
BRANCH   1  21
ATOM     21  C   UNL     1       2.274   8.020  18.081  0.00  0.00    +0.000 C 
BRANCH  21  22
ATOM     22  N   UNL     1       3.224   6.883  18.167  0.00  0.00    +0.000 NA
ATOM     23  C   UNL     1       4.301   7.098  17.190  0.00  0.00    +0.000 C 
BRANCH  22  24
ATOM     24  C   UNL     1       2.564   5.582  17.892  0.00  0.00    +0.000 C 
BRANCH  24  29
ATOM     25  C   UNL     1       3.841   2.729  20.161  0.00  0.00    +0.000 A 
ATOM     26  C   UNL     1       2.825   2.711  21.124  0.00  0.00    +0.000 A 
ATOM     27  C   UNL     1       1.766   3.611  21.050  0.00  0.00    +0.000 A 
ATOM     28  C   UNL     1       1.699   4.518  20.000  0.00  0.00    +0.000 A 
ATOM     29  C   UNL     1       2.732   4.596  19.042  0.00  0.00    +0.000 A 
ATOM     30  C   UNL     1       3.843   3.734  19.170  0.00  0.00    +0.000 A 
BRANCH  25  32
ATOM     31  C   UNL     1       5.134   1.148  21.368  0.00  0.00    +0.000 C 
ATOM     32  O   UNL     1       4.847   1.792  20.130  0.00  0.00    +0.000 OA
ENDBRANCH  25  32
BRANCH  30  33
ATOM     33  O   UNL     1       4.850   3.877  18.246  0.00  0.00    +0.000 OA
ATOM     34  C   UNL     1       6.018   4.552  18.723  0.00  0.00    +0.000 C 
ENDBRANCH  30  33
ENDBRANCH  24  29
ENDBRANCH  22  24
ENDBRANCH  21  22
ENDBRANCH   1  21
TORSDOF 9
ENDMDL
MODEL 6
REMARK VINA RESULT:      -7.5      3.164      5.861
REMARK  Name = 
REMARK  12 active torsions:
REMARK  status: ('A' for Active; 'I' for Inactive)
REMARK    1  A    between atoms: C_1  and  O_2
REMARK    2  A    between atoms: O_2  and  C_3
REMARK    3  A    between atoms: C_7  and  C_8
REMARK    4  A    between atoms: C_8  and  N_9
REMARK    5  A    between atoms: N_9  and  C_10
REMARK    6  A    between atoms: N_9  and  C_11
REMARK    7  A    between atoms: C_11  and  C_12
REMARK    8  A    between atoms: N_14  and  C_15
REMARK    9  A    between atoms: C_20  and  C_21
REMARK   10  A    between atoms: N_23  and  C_24
REMARK   11  A    between atoms: C_30  and  O_31
REMARK   12  A    between atoms: O_31  and  C_32
REMARK                            x       y       z     vdW  Elec       q    Type
REMARK                         _______ _______ _______ _____ _____    ______ ____
ROOT
ATOM      1  C   UNL     1      -1.008  11.418  18.912  0.00  0.00    +0.000 C 
ATOM      2  O   UNL     1      -0.416  12.384  19.398  0.00  0.00    +0.000 OA
ATOM      3  N   UNL     1      -0.980  10.145  19.461  0.00  0.00    +0.000 N 
ATOM      4  H   UNL     1      -0.803   9.424  18.759  0.00  0.00    +0.000 HD
ENDROOT
BRANCH   3   5
ATOM      5  C   UNL     1      -0.354   9.935  20.715  0.00  0.00    +0.000 A 
ATOM      6  C   UNL     1      -0.975  10.470  21.853  0.00  0.00    +0.000 A 
ATOM      7  C   UNL     1      -0.459  10.219  23.126  0.00  0.00    +0.000 A 
ATOM      8  C   UNL     1       0.691   9.448  23.272  0.00  0.00    +0.000 A 
ATOM      9  C   UNL     1       1.325   8.922  22.145  0.00  0.00    +0.000 A 
ATOM     10  C   UNL     1       0.812   9.163  20.856  0.00  0.00    +0.000 A 
BRANCH  10  11
ATOM     11  C   UNL     1       1.484   8.579  19.653  0.00  0.00    +0.000 C 
ATOM     12  O   UNL     1       1.336   9.153  18.578  0.00  0.00    +0.000 OA
ATOM     13  N   UNL     1       2.201   7.411  19.870  0.00  0.00    +0.000 N 
ATOM     14  H   UNL     1       2.345   7.111  20.824  0.00  0.00    +0.000 HD
BRANCH  13  15
ATOM     15  C   UNL     1       2.653   6.508  18.875  0.00  0.00    +0.000 A 
ATOM     16  C   UNL     1       2.106   5.243  18.682  0.00  0.00    +0.000 A 
ATOM     17  C   UNL     1       2.678   4.352  17.770  0.00  0.00    +0.000 A 
ATOM     18  C   UNL     1       3.805   4.725  17.040  0.00  0.00    +0.000 A 
ATOM     19  C   UNL     1       4.332   6.000  17.195  0.00  0.00    +0.000 A 
ATOM     20  C   UNL     1       3.754   6.899  18.102  0.00  0.00    +0.000 A 
ENDBRANCH  13  15
ENDBRANCH  10  11
ENDBRANCH   3   5
BRANCH   1  21
ATOM     21  C   UNL     1      -1.760  11.545  17.579  0.00  0.00    +0.000 C 
BRANCH  21  22
ATOM     22  N   UNL     1      -3.060  10.830  17.550  0.00  0.00    +0.000 NA
ATOM     23  C   UNL     1      -3.076   9.935  16.384  0.00  0.00    +0.000 C 
BRANCH  22  24
ATOM     24  C   UNL     1      -4.210  11.764  17.468  0.00  0.00    +0.000 C 
BRANCH  24  29
ATOM     25  C   UNL     1      -6.312  11.726  20.709  0.00  0.00    +0.000 A 
ATOM     26  C   UNL     1      -7.186  10.671  20.419  0.00  0.00    +0.000 A 
ATOM     27  C   UNL     1      -7.107  10.004  19.200  0.00  0.00    +0.000 A 
ATOM     28  C   UNL     1      -6.140  10.367  18.272  0.00  0.00    +0.000 A 
ATOM     29  C   UNL     1      -5.278  11.457  18.512  0.00  0.00    +0.000 A 
ATOM     30  C   UNL     1      -5.416  12.181  19.716  0.00  0.00    +0.000 A 
BRANCH  25  32
ATOM     31  C   UNL     1      -7.519  12.861  22.406  0.00  0.00    +0.000 C 
ATOM     32  O   UNL     1      -6.278  12.342  21.938  0.00  0.00    +0.000 OA
ENDBRANCH  25  32
BRANCH  30  33
ATOM     33  O   UNL     1      -4.592  13.266  19.889  0.00  0.00    +0.000 OA
ATOM     34  C   UNL     1      -3.522  13.073  20.818  0.00  0.00    +0.000 C 
ENDBRANCH  30  33
ENDBRANCH  24  29
ENDBRANCH  22  24
ENDBRANCH  21  22
ENDBRANCH   1  21
TORSDOF 9
ENDMDL
MODEL 7
REMARK VINA RESULT:      -7.5      1.576      2.468
REMARK  Name = 
REMARK  12 active torsions:
REMARK  status: ('A' for Active; 'I' for Inactive)
REMARK    1  A    between atoms: C_1  and  O_2
REMARK    2  A    between atoms: O_2  and  C_3
REMARK    3  A    between atoms: C_7  and  C_8
REMARK    4  A    between atoms: C_8  and  N_9
REMARK    5  A    between atoms: N_9  and  C_10
REMARK    6  A    between atoms: N_9  and  C_11
REMARK    7  A    between atoms: C_11  and  C_12
REMARK    8  A    between atoms: N_14  and  C_15
REMARK    9  A    between atoms: C_20  and  C_21
REMARK   10  A    between atoms: N_23  and  C_24
REMARK   11  A    between atoms: C_30  and  O_31
REMARK   12  A    between atoms: O_31  and  C_32
REMARK                            x       y       z     vdW  Elec       q    Type
REMARK                         _______ _______ _______ _____ _____    ______ ____
ROOT
ATOM      1  C   UNL     1       1.591   7.159  20.431  0.00  0.00    +0.000 C 
ATOM      2  O   UNL     1       0.540   6.636  20.807  0.00  0.00    +0.000 OA
ATOM      3  N   UNL     1       2.763   6.453  20.207  0.00  0.00    +0.000 N 
ATOM      4  H   UNL     1       3.575   6.907  20.628  0.00  0.00    +0.000 HD
ENDROOT
BRANCH   3   5
ATOM      5  C   UNL     1       2.754   5.037  20.282  0.00  0.00    +0.000 A 
ATOM      6  C   UNL     1       2.177   4.446  21.414  0.00  0.00    +0.000 A 
ATOM      7  C   UNL     1       2.053   3.058  21.504  0.00  0.00    +0.000 A 
ATOM      8  C   UNL     1       2.522   2.249  20.473  0.00  0.00    +0.000 A 
ATOM      9  C   UNL     1       3.111   2.827  19.346  0.00  0.00    +0.000 A 
ATOM     10  C   UNL     1       3.237   4.225  19.240  0.00  0.00    +0.000 A 
BRANCH  10  11
ATOM     11  C   UNL     1       3.850   4.840  18.021  0.00  0.00    +0.000 C 
ATOM     12  O   UNL     1       3.267   5.786  17.501  0.00  0.00    +0.000 OA
ATOM     13  N   UNL     1       5.026   4.253  17.576  0.00  0.00    +0.000 N 
ATOM     14  H   UNL     1       5.465   3.559  18.166  0.00  0.00    +0.000 HD
BRANCH  13  15
ATOM     15  C   UNL     1       5.622   4.432  16.303  0.00  0.00    +0.000 A 
ATOM     16  C   UNL     1       5.082   3.922  15.125  0.00  0.00    +0.000 A 
ATOM     17  C   UNL     1       5.783   4.024  13.920  0.00  0.00    +0.000 A 
ATOM     18  C   UNL     1       7.031   4.642  13.885  0.00  0.00    +0.000 A 
ATOM     19  C   UNL     1       7.557   5.191  15.047  0.00  0.00    +0.000 A 
ATOM     20  C   UNL     1       6.853   5.099  16.255  0.00  0.00    +0.000 A 
ENDBRANCH  13  15
ENDBRANCH  10  11
ENDBRANCH   3   5
BRANCH   1  21
ATOM     21  C   UNL     1       1.697   8.682  20.269  0.00  0.00    +0.000 C 
BRANCH  21  22
ATOM     22  N   UNL     1       1.147   9.192  18.988  0.00  0.00    +0.000 NA
ATOM     23  C   UNL     1       2.198   9.113  17.963  0.00  0.00    +0.000 C 
BRANCH  22  24
ATOM     24  C   UNL     1       0.676  10.594  19.101  0.00  0.00    +0.000 C 
BRANCH  24  29
ATOM     25  C   UNL     1      -3.031  11.655  18.874  0.00  0.00    +0.000 A 
ATOM     26  C   UNL     1      -3.459  10.821  17.832  0.00  0.00    +0.000 A 
ATOM     27  C   UNL     1      -2.566   9.955  17.210  0.00  0.00    +0.000 A 
ATOM     28  C   UNL     1      -1.246   9.894  17.639  0.00  0.00    +0.000 A 
ATOM     29  C   UNL     1      -0.772  10.755  18.650  0.00  0.00    +0.000 A 
ATOM     30  C   UNL     1      -1.664  11.688  19.222  0.00  0.00    +0.000 A 
BRANCH  25  32
ATOM     31  C   UNL     1      -5.254  12.435  19.153  0.00  0.00    +0.000 C 
ATOM     32  O   UNL     1      -3.898  12.446  19.590  0.00  0.00    +0.000 OA
ENDBRANCH  25  32
BRANCH  30  33
ATOM     33  O   UNL     1      -1.150  12.542  20.167  0.00  0.00    +0.000 OA
ATOM     34  C   UNL     1      -0.801  13.842  19.682  0.00  0.00    +0.000 C 
ENDBRANCH  30  33
ENDBRANCH  24  29
ENDBRANCH  22  24
ENDBRANCH  21  22
ENDBRANCH   1  21
TORSDOF 9
ENDMDL
MODEL 8
REMARK VINA RESULT:      -7.5      1.232      1.392
REMARK  Name = 
REMARK  12 active torsions:
REMARK  status: ('A' for Active; 'I' for Inactive)
REMARK    1  A    between atoms: C_1  and  O_2
REMARK    2  A    between atoms: O_2  and  C_3
REMARK    3  A    between atoms: C_7  and  C_8
REMARK    4  A    between atoms: C_8  and  N_9
REMARK    5  A    between atoms: N_9  and  C_10
REMARK    6  A    between atoms: N_9  and  C_11
REMARK    7  A    between atoms: C_11  and  C_12
REMARK    8  A    between atoms: N_14  and  C_15
REMARK    9  A    between atoms: C_20  and  C_21
REMARK   10  A    between atoms: N_23  and  C_24
REMARK   11  A    between atoms: C_30  and  O_31
REMARK   12  A    between atoms: O_31  and  C_32
REMARK                            x       y       z     vdW  Elec       q    Type
REMARK                         _______ _______ _______ _____ _____    ______ ____
ROOT
ATOM      1  C   UNL     1       2.100   7.311  19.189  0.00  0.00    +0.000 C 
ATOM      2  O   UNL     1       2.287   7.558  20.382  0.00  0.00    +0.000 OA
ATOM      3  N   UNL     1       2.168   6.037  18.649  0.00  0.00    +0.000 N 
ATOM      4  H   UNL     1       2.716   6.010  17.787  0.00  0.00    +0.000 HD
ENDROOT
BRANCH   3   5
ATOM      5  C   UNL     1       2.332   4.919  19.506  0.00  0.00    +0.000 A 
ATOM      6  C   UNL     1       1.249   4.552  20.316  0.00  0.00    +0.000 A 
ATOM      7  C   UNL     1       1.315   3.407  21.113  0.00  0.00    +0.000 A 
ATOM      8  C   UNL     1       2.470   2.630  21.120  0.00  0.00    +0.000 A 
ATOM      9  C   UNL     1       3.560   2.994  20.327  0.00  0.00    +0.000 A 
ATOM     10  C   UNL     1       3.505   4.143  19.515  0.00  0.00    +0.000 A 
BRANCH  10  11
ATOM     11  C   UNL     1       4.668   4.516  18.651  0.00  0.00    +0.000 C 
ATOM     12  O   UNL     1       5.324   5.505  18.967  0.00  0.00    +0.000 OA
ATOM     13  N   UNL     1       4.881   3.708  17.544  0.00  0.00    +0.000 N 
ATOM     14  H   UNL     1       4.344   2.855  17.467  0.00  0.00    +0.000 HD
BRANCH  13  15
ATOM     15  C   UNL     1       5.693   4.017  16.424  0.00  0.00    +0.000 A 
ATOM     16  C   UNL     1       6.939   4.630  16.526  0.00  0.00    +0.000 A 
ATOM     17  C   UNL     1       7.634   5.024  15.379  0.00  0.00    +0.000 A 
ATOM     18  C   UNL     1       7.086   4.802  14.118  0.00  0.00    +0.000 A 
ATOM     19  C   UNL     1       5.863   4.153  14.005  0.00  0.00    +0.000 A 
ATOM     20  C   UNL     1       5.169   3.749  15.153  0.00  0.00    +0.000 A 
ENDBRANCH  13  15
ENDBRANCH  10  11
ENDBRANCH   3   5
BRANCH   1  21
ATOM     21  C   UNL     1       1.864   8.444  18.180  0.00  0.00    +0.000 C 
BRANCH  21  22
ATOM     22  N   UNL     1       0.963   9.515  18.676  0.00  0.00    +0.000 NA
ATOM     23  C   UNL     1      -0.183   9.624  17.762  0.00  0.00    +0.000 C 
BRANCH  22  24
ATOM     24  C   UNL     1       1.650  10.827  18.760  0.00  0.00    +0.000 C 
BRANCH  24  29
ATOM     25  C   UNL     1      -0.261  12.687  21.555  0.00  0.00    +0.000 A 
ATOM     26  C   UNL     1      -0.831  13.727  20.809  0.00  0.00    +0.000 A 
ATOM     27  C   UNL     1      -0.587  13.831  19.443  0.00  0.00    +0.000 A 
ATOM     28  C   UNL     1       0.206  12.885  18.806  0.00  0.00    +0.000 A 
ATOM     29  C   UNL     1       0.835  11.856  19.537  0.00  0.00    +0.000 A 
ATOM     30  C   UNL     1       0.648  11.803  20.935  0.00  0.00    +0.000 A 
BRANCH  25  32
ATOM     31  C   UNL     1      -1.486  13.394  23.459  0.00  0.00    +0.000 C 
ATOM     32  O   UNL     1      -0.560  12.479  22.880  0.00  0.00    +0.000 OA
ENDBRANCH  25  32
BRANCH  30  33
ATOM     33  O   UNL     1       1.320  10.816  21.616  0.00  0.00    +0.000 OA
ATOM     34  C   UNL     1       0.495   9.767  22.130  0.00  0.00    +0.000 C 
ENDBRANCH  30  33
ENDBRANCH  24  29
ENDBRANCH  22  24
ENDBRANCH  21  22
ENDBRANCH   1  21
TORSDOF 9
ENDMDL
MODEL 9
REMARK VINA RESULT:      -7.5      3.228      9.492
REMARK  Name = 
REMARK  12 active torsions:
REMARK  status: ('A' for Active; 'I' for Inactive)
REMARK    1  A    between atoms: C_1  and  O_2
REMARK    2  A    between atoms: O_2  and  C_3
REMARK    3  A    between atoms: C_7  and  C_8
REMARK    4  A    between atoms: C_8  and  N_9
REMARK    5  A    between atoms: N_9  and  C_10
REMARK    6  A    between atoms: N_9  and  C_11
REMARK    7  A    between atoms: C_11  and  C_12
REMARK    8  A    between atoms: N_14  and  C_15
REMARK    9  A    between atoms: C_20  and  C_21
REMARK   10  A    between atoms: N_23  and  C_24
REMARK   11  A    between atoms: C_30  and  O_31
REMARK   12  A    between atoms: O_31  and  C_32
REMARK                            x       y       z     vdW  Elec       q    Type
REMARK                         _______ _______ _______ _____ _____    ______ ____
ROOT
ATOM      1  C   UNL     1       0.539  10.110  19.039  0.00  0.00    +0.000 C 
ATOM      2  O   UNL     1      -0.640   9.878  18.764  0.00  0.00    +0.000 OA
ATOM      3  N   UNL     1       0.937  10.938  20.076  0.00  0.00    +0.000 N 
ATOM      4  H   UNL     1       1.666  11.595  19.790  0.00  0.00    +0.000 HD
ENDROOT
BRANCH   3   5
ATOM      5  C   UNL     1      -0.033  11.461  20.968  0.00  0.00    +0.000 A 
ATOM      6  C   UNL     1      -0.390  10.680  22.076  0.00  0.00    +0.000 A 
ATOM      7  C   UNL     1      -1.269  11.176  23.041  0.00  0.00    +0.000 A 
ATOM      8  C   UNL     1      -1.812  12.450  22.897  0.00  0.00    +0.000 A 
ATOM      9  C   UNL     1      -1.474  13.231  21.790  0.00  0.00    +0.000 A 
ATOM     10  C   UNL     1      -0.585  12.744  20.813  0.00  0.00    +0.000 A 
BRANCH  10  11
ATOM     11  C   UNL     1      -0.210  13.595  19.640  0.00  0.00    +0.000 C 
ATOM     12  O   UNL     1      -0.730  13.341  18.558  0.00  0.00    +0.000 OA
ATOM     13  N   UNL     1       0.726  14.588  19.890  0.00  0.00    +0.000 N 
ATOM     14  H   UNL     1       0.983  14.769  20.851  0.00  0.00    +0.000 HD
BRANCH  13  15
ATOM     15  C   UNL     1       1.468  15.304  18.918  0.00  0.00    +0.000 A 
ATOM     16  C   UNL     1       2.656  14.836  18.362  0.00  0.00    +0.000 A 
ATOM     17  C   UNL     1       3.406  15.644  17.504  0.00  0.00    +0.000 A 
ATOM     18  C   UNL     1       2.969  16.930  17.192  0.00  0.00    +0.000 A 
ATOM     19  C   UNL     1       1.764  17.388  17.708  0.00  0.00    +0.000 A 
ATOM     20  C   UNL     1       1.005  16.577  18.561  0.00  0.00    +0.000 A 
ENDBRANCH  13  15
ENDBRANCH  10  11
ENDBRANCH   3   5
BRANCH   1  21
ATOM     21  C   UNL     1       1.674   9.553  18.166  0.00  0.00    +0.000 C 
BRANCH  21  22
ATOM     22  N   UNL     1       2.004   8.132  18.443  0.00  0.00    +0.000 NA
ATOM     23  C   UNL     1       1.976   7.920  19.897  0.00  0.00    +0.000 C 
BRANCH  22  24
ATOM     24  C   UNL     1       3.341   7.758  17.918  0.00  0.00    +0.000 C 
BRANCH  24  29
ATOM     25  C   UNL     1       4.594   4.292  16.762  0.00  0.00    +0.000 A 
ATOM     26  C   UNL     1       3.477   3.510  17.083  0.00  0.00    +0.000 A 
ATOM     27  C   UNL     1       2.358   4.088  17.675  0.00  0.00    +0.000 A 
ATOM     28  C   UNL     1       2.334   5.454  17.926  0.00  0.00    +0.000 A 
ATOM     29  C   UNL     1       3.461   6.260  17.661  0.00  0.00    +0.000 A 
ATOM     30  C   UNL     1       4.622   5.653  17.136  0.00  0.00    +0.000 A 
BRANCH  25  32
ATOM     31  C   UNL     1       5.710   4.062  14.681  0.00  0.00    +0.000 C 
ATOM     32  O   UNL     1       5.676   3.789  16.079  0.00  0.00    +0.000 OA
ENDBRANCH  25  32
BRANCH  30  33
ATOM     33  O   UNL     1       5.714   6.463  16.940  0.00  0.00    +0.000 OA
ATOM     34  C   UNL     1       6.742   6.343  17.927  0.00  0.00    +0.000 C 
ENDBRANCH  30  33
ENDBRANCH  24  29
ENDBRANCH  22  24
ENDBRANCH  21  22
ENDBRANCH   1  21
TORSDOF 9
ENDMDL
