MODEL 1
REMARK VINA RESULT:      -8.5      0.000      0.000
REMARK  Name = 
REMARK  14 active torsions:
REMARK  status: ('A' for Active; 'I' for Inactive)
REMARK    1  A    between atoms: C_1  and  O_2
REMARK    2  A    between atoms: O_2  and  C_3
REMARK    3  A    between atoms: C_8  and  C_9
REMARK    4  A    between atoms: C_11  and  O_12
REMARK    5  A    between atoms: C_15  and  C_16
REMARK    6  A    between atoms: C_16  and  C_17
REMARK    7  A    between atoms: C_18  and  C_19
REMARK    8  A    between atoms: C_18  and  C_20
REMARK    9  A    between atoms: C_22  and  C_23
REMARK   10  A    between atoms: C_22  and  C_24
REMARK   11  A    between atoms: C_24  and  C_25
REMARK   12  A    between atoms: C_25  and  C_26
REMARK   13  A    between atoms: C_27  and  C_28
REMARK   14  A    between atoms: C_27  and  C_29
REMARK                            x       y       z     vdW  Elec       q    Type
REMARK                         _______ _______ _______ _____ _____    ______ ____
ROOT
ATOM      1  C   UNL     1       0.940   8.996  20.576  0.00  0.00    +0.000 A 
ATOM      2  C   UNL     1       0.756   8.779  21.954  0.00  0.00    +0.000 A 
ATOM      3  C   UNL     1       0.059   9.691  22.736  0.00  0.00    +0.000 A 
ATOM      4  C   UNL     1      -0.456  10.861  22.176  0.00  0.00    +0.000 A 
ATOM      5  C   UNL     1      -0.314  11.084  20.799  0.00  0.00    +0.000 A 
ATOM      6  C   UNL     1       0.355  10.142  19.972  0.00  0.00    +0.000 A 
ATOM      7  O   UNL     1      -0.827  12.199  20.180  0.00  0.00    +0.000 OA
ATOM      8  C   UNL     1      -1.425  13.262  20.965  0.00  0.00    +0.000 C 
ATOM      9  C   UNL     1      -0.516  14.485  20.778  0.00  0.00    +0.000 C 
ATOM     10  C   UNL     1      -1.544  12.975  22.442  0.00  0.00    +0.000 C 
ATOM     11  C   UNL     1      -1.128  11.845  23.008  0.00  0.00    +0.000 C 
ENDROOT
BRANCH   1  17
ATOM     12  C   UNL     1       3.755   4.094  18.737  0.00  0.00    +0.000 A 
ATOM     13  C   UNL     1       4.025   4.785  17.551  0.00  0.00    +0.000 A 
ATOM     14  C   UNL     1       3.643   6.123  17.389  0.00  0.00    +0.000 A 
ATOM     15  C   UNL     1       2.949   6.752  18.431  0.00  0.00    +0.000 A 
ATOM     16  C   UNL     1       2.424   8.045  18.643  0.00  0.00    +0.000 A 
ATOM     17  C   UNL     1       1.743   8.020  19.840  0.00  0.00    +0.000 A 
ATOM     18  O   UNL     1       1.923   6.797  20.438  0.00  0.00    +0.000 OA
ATOM     19  C   UNL     1       2.651   6.028  19.576  0.00  0.00    +0.000 A 
ATOM     20  C   UNL     1       3.043   4.706  19.779  0.00  0.00    +0.000 A 
BRANCH  12  22
ATOM     21  C   UNL     1       3.351   1.808  18.267  0.00  0.00    +0.000 C 
ATOM     22  O   UNL     1       4.109   2.789  18.969  0.00  0.00    +0.000 OA
ENDBRANCH  12  22
ENDBRANCH   1  17
BRANCH   3  23
ATOM     23  O   UNL     1      -0.114   9.452  24.073  0.00  0.00    +0.000 OA
ATOM     24  H   UNL     1       0.211   8.559  24.277  0.00  0.00    +0.000 HD
ENDBRANCH   3  23
BRANCH   6  25
ATOM     25  C   UNL     1       0.332  10.340  18.458  0.00  0.00    +0.000 C 
BRANCH  25  26
ATOM     26  C   UNL     1      -0.813   9.687  17.719  0.00  0.00    +0.000 C 
ATOM     27  C   UNL     1      -1.884  10.295  17.161  0.00  0.00    +0.000 C 
ATOM     28  C   UNL     1      -2.191  11.769  17.230  0.00  0.00    +0.000 C 
ATOM     29  C   UNL     1      -2.886   9.513  16.349  0.00  0.00    +0.000 C 
ENDBRANCH  25  26
ENDBRANCH   6  25
BRANCH   8  30
ATOM     30  C   UNL     1      -2.830  13.508  20.343  0.00  0.00    +0.000 C 
BRANCH  30  31
ATOM     31  C   UNL     1      -3.815  12.348  20.535  0.00  0.00    +0.000 C 
BRANCH  31  32
ATOM     32  C   UNL     1      -5.259  12.694  20.307  0.00  0.00    +0.000 C 
ATOM     33  C   UNL     1      -6.030  12.089  19.381  0.00  0.00    +0.000 C 
ATOM     34  C   UNL     1      -5.552  10.983  18.473  0.00  0.00    +0.000 C 
ATOM     35  C   UNL     1      -7.465  12.485  19.174  0.00  0.00    +0.000 C 
ENDBRANCH  31  32
ENDBRANCH  30  31
ENDBRANCH   8  30
TORSDOF 8
ENDMDL
MODEL 2
REMARK VINA RESULT:      -8.3      1.164      1.576
REMARK  Name = 
REMARK  14 active torsions:
REMARK  status: ('A' for Active; 'I' for Inactive)
REMARK    1  A    between atoms: C_1  and  O_2
REMARK    2  A    between atoms: O_2  and  C_3
REMARK    3  A    between atoms: C_8  and  C_9
REMARK    4  A    between atoms: C_11  and  O_12
REMARK    5  A    between atoms: C_15  and  C_16
REMARK    6  A    between atoms: C_16  and  C_17
REMARK    7  A    between atoms: C_18  and  C_19
REMARK    8  A    between atoms: C_18  and  C_20
REMARK    9  A    between atoms: C_22  and  C_23
REMARK   10  A    between atoms: C_22  and  C_24
REMARK   11  A    between atoms: C_24  and  C_25
REMARK   12  A    between atoms: C_25  and  C_26
REMARK   13  A    between atoms: C_27  and  C_28
REMARK   14  A    between atoms: C_27  and  C_29
REMARK                            x       y       z     vdW  Elec       q    Type
REMARK                         _______ _______ _______ _____ _____    ______ ____
ROOT
ATOM      1  C   UNL     1       0.935   9.069  20.546  0.00  0.00    +0.000 A 
ATOM      2  C   UNL     1       0.790   8.796  21.919  0.00  0.00    +0.000 A 
ATOM      3  C   UNL     1       0.070   9.648  22.747  0.00  0.00    +0.000 A 
ATOM      4  C   UNL     1      -0.507  10.813  22.239  0.00  0.00    +0.000 A 
ATOM      5  C   UNL     1      -0.405  11.090  20.868  0.00  0.00    +0.000 A 
ATOM      6  C   UNL     1       0.287  10.208  19.996  0.00  0.00    +0.000 A 
ATOM      7  O   UNL     1      -0.978  12.202  20.301  0.00  0.00    +0.000 OA
ATOM      8  C   UNL     1      -1.606  13.210  21.134  0.00  0.00    +0.000 C 
ATOM      9  C   UNL     1      -0.755  14.478  20.974  0.00  0.00    +0.000 C 
ATOM     10  C   UNL     1      -1.681  12.866  22.602  0.00  0.00    +0.000 C 
ATOM     11  C   UNL     1      -1.204  11.736  23.119  0.00  0.00    +0.000 C 
ENDROOT
BRANCH   1  17
ATOM     12  C   UNL     1       3.889   4.353  18.455  0.00  0.00    +0.000 A 
ATOM     13  C   UNL     1       4.134   5.111  17.305  0.00  0.00    +0.000 A 
ATOM     14  C   UNL     1       3.711   6.444  17.212  0.00  0.00    +0.000 A 
ATOM     15  C   UNL     1       3.003   6.998  18.286  0.00  0.00    +0.000 A 
ATOM     16  C   UNL     1       2.440   8.262  18.564  0.00  0.00    +0.000 A 
ATOM     17  C   UNL     1       1.765   8.156  19.760  0.00  0.00    +0.000 A 
ATOM     18  O   UNL     1       1.983   6.910  20.295  0.00  0.00    +0.000 OA
ATOM     19  C   UNL     1       2.731   6.209  19.393  0.00  0.00    +0.000 A 
ATOM     20  C   UNL     1       3.163   4.891  19.528  0.00  0.00    +0.000 A 
BRANCH  12  22
ATOM     21  C   UNL     1       3.347   2.062  18.195  0.00  0.00    +0.000 C 
ATOM     22  O   UNL     1       4.282   3.049  18.620  0.00  0.00    +0.000 OA
ENDBRANCH  12  22
ENDBRANCH   1  17
BRANCH   3  23
ATOM     23  O   UNL     1      -0.063   9.355  24.077  0.00  0.00    +0.000 OA
ATOM     24  H   UNL     1      -0.857   9.800  24.419  0.00  0.00    +0.000 HD
ENDBRANCH   3  23
BRANCH   6  25
ATOM     25  C   UNL     1       0.223  10.458  18.490  0.00  0.00    +0.000 C 
BRANCH  25  26
ATOM     26  C   UNL     1      -0.879   9.744  17.744  0.00  0.00    +0.000 C 
ATOM     27  C   UNL     1      -2.010  10.284  17.235  0.00  0.00    +0.000 C 
ATOM     28  C   UNL     1      -2.437  11.721  17.378  0.00  0.00    +0.000 C 
ATOM     29  C   UNL     1      -2.961   9.456  16.407  0.00  0.00    +0.000 C 
ENDBRANCH  25  26
ENDBRANCH   6  25
BRANCH   8  30
ATOM     30  C   UNL     1      -3.033  13.415  20.549  0.00  0.00    +0.000 C 
BRANCH  30  31
ATOM     31  C   UNL     1      -4.138  12.672  21.312  0.00  0.00    +0.000 C 
BRANCH  31  32
ATOM     32  C   UNL     1      -5.211  13.548  21.891  0.00  0.00    +0.000 C 
ATOM     33  C   UNL     1      -5.550  13.542  23.197  0.00  0.00    +0.000 C 
ATOM     34  C   UNL     1      -4.887  12.677  24.239  0.00  0.00    +0.000 C 
ATOM     35  C   UNL     1      -6.648  14.421  23.727  0.00  0.00    +0.000 C 
ENDBRANCH  31  32
ENDBRANCH  30  31
ENDBRANCH   8  30
TORSDOF 8
ENDMDL
MODEL 3
REMARK VINA RESULT:      -7.9      1.510      2.095
REMARK  Name = 
REMARK  14 active torsions:
REMARK  status: ('A' for Active; 'I' for Inactive)
REMARK    1  A    between atoms: C_1  and  O_2
REMARK    2  A    between atoms: O_2  and  C_3
REMARK    3  A    between atoms: C_8  and  C_9
REMARK    4  A    between atoms: C_11  and  O_12
REMARK    5  A    between atoms: C_15  and  C_16
REMARK    6  A    between atoms: C_16  and  C_17
REMARK    7  A    between atoms: C_18  and  C_19
REMARK    8  A    between atoms: C_18  and  C_20
REMARK    9  A    between atoms: C_22  and  C_23
REMARK   10  A    between atoms: C_22  and  C_24
REMARK   11  A    between atoms: C_24  and  C_25
REMARK   12  A    between atoms: C_25  and  C_26
REMARK   13  A    between atoms: C_27  and  C_28
REMARK   14  A    between atoms: C_27  and  C_29
REMARK                            x       y       z     vdW  Elec       q    Type
REMARK                         _______ _______ _______ _____ _____    ______ ____
ROOT
ATOM      1  C   UNL     1       0.991   8.873  20.555  0.00  0.00    +0.000 A 
ATOM      2  C   UNL     1       0.864   8.669  21.941  0.00  0.00    +0.000 A 
ATOM      3  C   UNL     1       0.148   9.558  22.733  0.00  0.00    +0.000 A 
ATOM      4  C   UNL     1      -0.442  10.692  22.174  0.00  0.00    +0.000 A 
ATOM      5  C   UNL     1      -0.357  10.900  20.790  0.00  0.00    +0.000 A 
ATOM      6  C   UNL     1       0.330   9.979  19.955  0.00  0.00    +0.000 A 
ATOM      7  O   UNL     1      -0.945  11.978  20.173  0.00  0.00    +0.000 OA
ATOM      8  C   UNL     1      -1.569  13.023  20.962  0.00  0.00    +0.000 C 
ATOM      9  C   UNL     1      -0.728  14.287  20.728  0.00  0.00    +0.000 C 
ATOM     10  C   UNL     1      -1.625  12.754  22.446  0.00  0.00    +0.000 C 
ATOM     11  C   UNL     1      -1.135  11.654  23.014  0.00  0.00    +0.000 C 
ENDROOT
BRANCH   1  17
ATOM     12  C   UNL     1       4.707   6.293  16.698  0.00  0.00    +0.000 A 
ATOM     13  C   UNL     1       4.629   5.151  17.503  0.00  0.00    +0.000 A 
ATOM     14  C   UNL     1       3.790   5.111  18.624  0.00  0.00    +0.000 A 
ATOM     15  C   UNL     1       3.049   6.255  18.948  0.00  0.00    +0.000 A 
ATOM     16  C   UNL     1       2.119   6.590  19.955  0.00  0.00    +0.000 A 
ATOM     17  C   UNL     1       1.818   7.926  19.807  0.00  0.00    +0.000 A 
ATOM     18  O   UNL     1       2.432   8.406  18.677  0.00  0.00    +0.000 OA
ATOM     19  C   UNL     1       3.184   7.390  18.162  0.00  0.00    +0.000 A 
ATOM     20  C   UNL     1       3.987   7.452  17.024  0.00  0.00    +0.000 A 
BRANCH  12  22
ATOM     21  C   UNL     1       5.978   5.172  15.044  0.00  0.00    +0.000 C 
ATOM     22  O   UNL     1       5.497   6.400  15.582  0.00  0.00    +0.000 OA
ENDBRANCH  12  22
ENDBRANCH   1  17
BRANCH   3  23
ATOM     23  O   UNL     1       0.031   9.332  24.078  0.00  0.00    +0.000 OA
ATOM     24  H   UNL     1      -0.880   9.054  24.272  0.00  0.00    +0.000 HD
ENDBRANCH   3  23
BRANCH   6  25
ATOM     25  C   UNL     1       0.248  10.152  18.440  0.00  0.00    +0.000 C 
BRANCH  25  26
ATOM     26  C   UNL     1      -0.980   9.580  17.771  0.00  0.00    +0.000 C 
ATOM     27  C   UNL     1      -1.991  10.264  17.187  0.00  0.00    +0.000 C 
ATOM     28  C   UNL     1      -2.129  11.763  17.150  0.00  0.00    +0.000 C 
ATOM     29  C   UNL     1      -3.093   9.543  16.452  0.00  0.00    +0.000 C 
ENDBRANCH  25  26
ENDBRANCH   6  25
BRANCH   8  30
ATOM     30  C   UNL     1      -3.004  13.190  20.384  0.00  0.00    +0.000 C 
BRANCH  30  31
ATOM     31  C   UNL     1      -4.071  13.519  21.436  0.00  0.00    +0.000 C 
BRANCH  31  32
ATOM     32  C   UNL     1      -5.418  12.902  21.191  0.00  0.00    +0.000 C 
ATOM     33  C   UNL     1      -6.318  12.671  22.168  0.00  0.00    +0.000 C 
ATOM     34  C   UNL     1      -6.097  13.015  23.620  0.00  0.00    +0.000 C 
ATOM     35  C   UNL     1      -7.646  12.029  21.878  0.00  0.00    +0.000 C 
ENDBRANCH  31  32
ENDBRANCH  30  31
ENDBRANCH   8  30
TORSDOF 8
ENDMDL
MODEL 4
REMARK VINA RESULT:      -7.8      1.241      1.769
REMARK  Name = 
REMARK  14 active torsions:
REMARK  status: ('A' for Active; 'I' for Inactive)
REMARK    1  A    between atoms: C_1  and  O_2
REMARK    2  A    between atoms: O_2  and  C_3
REMARK    3  A    between atoms: C_8  and  C_9
REMARK    4  A    between atoms: C_11  and  O_12
REMARK    5  A    between atoms: C_15  and  C_16
REMARK    6  A    between atoms: C_16  and  C_17
REMARK    7  A    between atoms: C_18  and  C_19
REMARK    8  A    between atoms: C_18  and  C_20
REMARK    9  A    between atoms: C_22  and  C_23
REMARK   10  A    between atoms: C_22  and  C_24
REMARK   11  A    between atoms: C_24  and  C_25
REMARK   12  A    between atoms: C_25  and  C_26
REMARK   13  A    between atoms: C_27  and  C_28
REMARK   14  A    between atoms: C_27  and  C_29
REMARK                            x       y       z     vdW  Elec       q    Type
REMARK                         _______ _______ _______ _____ _____    ______ ____
ROOT
ATOM      1  C   UNL     1       0.980   8.913  20.534  0.00  0.00    +0.000 A 
ATOM      2  C   UNL     1       0.876   8.770  21.930  0.00  0.00    +0.000 A 
ATOM      3  C   UNL     1       0.202   9.711  22.699  0.00  0.00    +0.000 A 
ATOM      4  C   UNL     1      -0.368  10.838  22.105  0.00  0.00    +0.000 A 
ATOM      5  C   UNL     1      -0.306  10.986  20.711  0.00  0.00    +0.000 A 
ATOM      6  C   UNL     1       0.338  10.012  19.902  0.00  0.00    +0.000 A 
ATOM      7  O   UNL     1      -0.876  12.055  20.062  0.00  0.00    +0.000 OA
ATOM      8  C   UNL     1      -1.454  13.149  20.819  0.00  0.00    +0.000 C 
ATOM      9  C   UNL     1      -0.583  14.377  20.516  0.00  0.00    +0.000 C 
ATOM     10  C   UNL     1      -1.486  12.943  22.314  0.00  0.00    +0.000 C 
ATOM     11  C   UNL     1      -1.015  11.854  22.917  0.00  0.00    +0.000 C 
ENDROOT
BRANCH   1  17
ATOM     12  C   UNL     1       4.677   6.097  16.827  0.00  0.00    +0.000 A 
ATOM     13  C   UNL     1       4.454   4.951  17.597  0.00  0.00    +0.000 A 
ATOM     14  C   UNL     1       3.551   4.961  18.668  0.00  0.00    +0.000 A 
ATOM     15  C   UNL     1       2.894   6.159  18.979  0.00  0.00    +0.000 A 
ATOM     16  C   UNL     1       1.940   6.553  19.941  0.00  0.00    +0.000 A 
ATOM     17  C   UNL     1       1.764   7.913  19.810  0.00  0.00    +0.000 A 
ATOM     18  O   UNL     1       2.482   8.361  18.728  0.00  0.00    +0.000 OA
ATOM     19  C   UNL     1       3.171   7.293  18.230  0.00  0.00    +0.000 A 
ATOM     20  C   UNL     1       4.041   7.308  17.142  0.00  0.00    +0.000 A 
BRANCH  12  22
ATOM     21  C   UNL     1       6.751   5.425  15.901  0.00  0.00    +0.000 C 
ATOM     22  O   UNL     1       5.537   6.158  15.760  0.00  0.00    +0.000 OA
ENDBRANCH  12  22
ENDBRANCH   1  17
BRANCH   3  23
ATOM     23  O   UNL     1       0.108   9.544  24.054  0.00  0.00    +0.000 OA
ATOM     24  H   UNL     1       0.059   8.594  24.250  0.00  0.00    +0.000 HD
ENDBRANCH   3  23
BRANCH   6  25
ATOM     25  C   UNL     1       0.228  10.125  18.383  0.00  0.00    +0.000 C 
BRANCH  25  26
ATOM     26  C   UNL     1      -1.053   9.612  17.769  0.00  0.00    +0.000 C 
ATOM     27  C   UNL     1      -1.974  10.321  17.077  0.00  0.00    +0.000 C 
ATOM     28  C   UNL     1      -1.939  11.808  16.838  0.00  0.00    +0.000 C 
ATOM     29  C   UNL     1      -3.148   9.637  16.420  0.00  0.00    +0.000 C 
ENDBRANCH  25  26
ENDBRANCH   6  25
BRANCH   8  30
ATOM     30  C   UNL     1      -2.896  13.333  20.264  0.00  0.00    +0.000 C 
BRANCH  30  31
ATOM     31  C   UNL     1      -3.684  12.026  20.114  0.00  0.00    +0.000 C 
BRANCH  31  32
ATOM     32  C   UNL     1      -4.718  12.027  19.025  0.00  0.00    +0.000 C 
ATOM     33  C   UNL     1      -6.044  11.949  19.261  0.00  0.00    +0.000 C 
ATOM     34  C   UNL     1      -6.656  11.869  20.637  0.00  0.00    +0.000 C 
ATOM     35  C   UNL     1      -7.042  11.930  18.137  0.00  0.00    +0.000 C 
ENDBRANCH  31  32
ENDBRANCH  30  31
ENDBRANCH   8  30
TORSDOF 8
ENDMDL
MODEL 5
REMARK VINA RESULT:      -7.6      1.533      1.859
REMARK  Name = 
REMARK  14 active torsions:
REMARK  status: ('A' for Active; 'I' for Inactive)
REMARK    1  A    between atoms: C_1  and  O_2
REMARK    2  A    between atoms: O_2  and  C_3
REMARK    3  A    between atoms: C_8  and  C_9
REMARK    4  A    between atoms: C_11  and  O_12
REMARK    5  A    between atoms: C_15  and  C_16
REMARK    6  A    between atoms: C_16  and  C_17
REMARK    7  A    between atoms: C_18  and  C_19
REMARK    8  A    between atoms: C_18  and  C_20
REMARK    9  A    between atoms: C_22  and  C_23
REMARK   10  A    between atoms: C_22  and  C_24
REMARK   11  A    between atoms: C_24  and  C_25
REMARK   12  A    between atoms: C_25  and  C_26
REMARK   13  A    between atoms: C_27  and  C_28
REMARK   14  A    between atoms: C_27  and  C_29
REMARK                            x       y       z     vdW  Elec       q    Type
REMARK                         _______ _______ _______ _____ _____    ______ ____
ROOT
ATOM      1  C   UNL     1       0.732   9.435  20.450  0.00  0.00    +0.000 A 
ATOM      2  C   UNL     1       0.672   9.042  21.800  0.00  0.00    +0.000 A 
ATOM      3  C   UNL     1      -0.125   9.724  22.710  0.00  0.00    +0.000 A 
ATOM      4  C   UNL     1      -0.868  10.835  22.312  0.00  0.00    +0.000 A 
ATOM      5  C   UNL     1      -0.850  11.227  20.965  0.00  0.00    +0.000 A 
ATOM      6  C   UNL     1      -0.078  10.516  20.009  0.00  0.00    +0.000 A 
ATOM      7  O   UNL     1      -1.585  12.292  20.502  0.00  0.00    +0.000 OA
ATOM      8  C   UNL     1      -2.311  13.140  21.429  0.00  0.00    +0.000 C 
ATOM      9  C   UNL     1      -1.642  14.519  21.350  0.00  0.00    +0.000 C 
ATOM     10  C   UNL     1      -2.290  12.679  22.866  0.00  0.00    +0.000 C 
ATOM     11  C   UNL     1      -1.650  11.587  23.279  0.00  0.00    +0.000 C 
ENDROOT
BRANCH   1  17
ATOM     12  C   UNL     1       4.149   5.309  17.874  0.00  0.00    +0.000 A 
ATOM     13  C   UNL     1       4.307   6.209  16.815  0.00  0.00    +0.000 A 
ATOM     14  C   UNL     1       3.747   7.493  16.865  0.00  0.00    +0.000 A 
ATOM     15  C   UNL     1       2.991   7.850  17.989  0.00  0.00    +0.000 A 
ATOM     16  C   UNL     1       2.302   9.011  18.400  0.00  0.00    +0.000 A 
ATOM     17  C   UNL     1       1.648   8.705  19.574  0.00  0.00    +0.000 A 
ATOM     18  O   UNL     1       1.998   7.438  19.971  0.00  0.00    +0.000 OA
ATOM     19  C   UNL     1       2.809   6.920  19.002  0.00  0.00    +0.000 A 
ATOM     20  C   UNL     1       3.377   5.647  18.996  0.00  0.00    +0.000 A 
BRANCH  12  22
ATOM     21  C   UNL     1       5.219   3.575  16.667  0.00  0.00    +0.000 C 
ATOM     22  O   UNL     1       4.677   4.043  17.898  0.00  0.00    +0.000 OA
ENDBRANCH  12  22
ENDBRANCH   1  17
BRANCH   3  23
ATOM     23  O   UNL     1      -0.173   9.315  24.016  0.00  0.00    +0.000 OA
ATOM     24  H   UNL     1      -1.033   8.893  24.182  0.00  0.00    +0.000 HD
ENDBRANCH   3  23
BRANCH   6  25
ATOM     25  C   UNL     1      -0.226  10.869  18.530  0.00  0.00    +0.000 C 
BRANCH  25  26
ATOM     26  C   UNL     1      -1.181  10.010  17.734  0.00  0.00    +0.000 C 
ATOM     27  C   UNL     1      -2.420  10.342  17.304  0.00  0.00    +0.000 C 
ATOM     28  C   UNL     1      -3.136  11.633  17.602  0.00  0.00    +0.000 C 
ATOM     29  C   UNL     1      -3.207   9.414  16.412  0.00  0.00    +0.000 C 
ENDBRANCH  25  26
ENDBRANCH   6  25
BRANCH   8  30
ATOM     30  C   UNL     1      -3.773  13.195  20.897  0.00  0.00    +0.000 C 
BRANCH  30  31
ATOM     31  C   UNL     1      -4.829  12.741  21.912  0.00  0.00    +0.000 C 
BRANCH  31  32
ATOM     32  C   UNL     1      -5.619  13.849  22.547  0.00  0.00    +0.000 C 
ATOM     33  C   UNL     1      -6.802  13.657  23.165  0.00  0.00    +0.000 C 
ATOM     34  C   UNL     1      -7.473  12.314  23.313  0.00  0.00    +0.000 C 
ATOM     35  C   UNL     1      -7.569  14.802  23.767  0.00  0.00    +0.000 C 
ENDBRANCH  31  32
ENDBRANCH  30  31
ENDBRANCH   8  30
TORSDOF 8
ENDMDL
MODEL 6
REMARK VINA RESULT:      -7.6      1.278      1.617
REMARK  Name = 
REMARK  14 active torsions:
REMARK  status: ('A' for Active; 'I' for Inactive)
REMARK    1  A    between atoms: C_1  and  O_2
REMARK    2  A    between atoms: O_2  and  C_3
REMARK    3  A    between atoms: C_8  and  C_9
REMARK    4  A    between atoms: C_11  and  O_12
REMARK    5  A    between atoms: C_15  and  C_16
REMARK    6  A    between atoms: C_16  and  C_17
REMARK    7  A    between atoms: C_18  and  C_19
REMARK    8  A    between atoms: C_18  and  C_20
REMARK    9  A    between atoms: C_22  and  C_23
REMARK   10  A    between atoms: C_22  and  C_24
REMARK   11  A    between atoms: C_24  and  C_25
REMARK   12  A    between atoms: C_25  and  C_26
REMARK   13  A    between atoms: C_27  and  C_28
REMARK   14  A    between atoms: C_27  and  C_29
REMARK                            x       y       z     vdW  Elec       q    Type
REMARK                         _______ _______ _______ _____ _____    ______ ____
ROOT
ATOM      1  C   UNL     1       0.768   9.168  20.477  0.00  0.00    +0.000 A 
ATOM      2  C   UNL     1       0.789   8.952  21.868  0.00  0.00    +0.000 A 
ATOM      3  C   UNL     1       0.003   9.713  22.723  0.00  0.00    +0.000 A 
ATOM      4  C   UNL     1      -0.810  10.731  22.224  0.00  0.00    +0.000 A 
ATOM      5  C   UNL     1      -0.873  10.945  20.839  0.00  0.00    +0.000 A 
ATOM      6  C   UNL     1      -0.113  10.146  19.943  0.00  0.00    +0.000 A 
ATOM      7  O   UNL     1      -1.679  11.908  20.282  0.00  0.00    +0.000 OA
ATOM      8  C   UNL     1      -2.401  12.839  21.128  0.00  0.00    +0.000 C 
ATOM      9  C   UNL     1      -1.802  14.223  20.838  0.00  0.00    +0.000 C 
ATOM     10  C   UNL     1      -2.291  12.571  22.609  0.00  0.00    +0.000 C 
ATOM     11  C   UNL     1      -1.582  11.570  23.125  0.00  0.00    +0.000 C 
ENDROOT
BRANCH   1  17
ATOM     12  C   UNL     1       4.137   4.831  18.200  0.00  0.00    +0.000 A 
ATOM     13  C   UNL     1       4.310   5.656  17.083  0.00  0.00    +0.000 A 
ATOM     14  C   UNL     1       3.767   6.947  17.044  0.00  0.00    +0.000 A 
ATOM     15  C   UNL     1       3.013   7.390  18.138  0.00  0.00    +0.000 A 
ATOM     16  C   UNL     1       2.338   8.585  18.467  0.00  0.00    +0.000 A 
ATOM     17  C   UNL     1       1.677   8.367  19.656  0.00  0.00    +0.000 A 
ATOM     18  O   UNL     1       2.009   7.126  20.139  0.00  0.00    +0.000 OA
ATOM     19  C   UNL     1       2.815   6.533  19.211  0.00  0.00    +0.000 A 
ATOM     20  C   UNL     1       3.366   5.255  19.292  0.00  0.00    +0.000 A 
BRANCH  12  22
ATOM     21  C   UNL     1       4.404   2.905  19.552  0.00  0.00    +0.000 C 
ATOM     22  O   UNL     1       4.647   3.563  18.311  0.00  0.00    +0.000 OA
ENDBRANCH  12  22
ENDBRANCH   1  17
BRANCH   3  23
ATOM     23  O   UNL     1       0.034   9.477  24.071  0.00  0.00    +0.000 OA
ATOM     24  H   UNL     1       0.441  10.239  24.514  0.00  0.00    +0.000 HD
ENDBRANCH   3  23
BRANCH   6  25
ATOM     25  C   UNL     1      -0.345  10.297  18.441  0.00  0.00    +0.000 C 
BRANCH  25  26
ATOM     26  C   UNL     1      -1.602  11.030  18.033  0.00  0.00    +0.000 C 
ATOM     27  C   UNL     1      -2.525  10.635  17.127  0.00  0.00    +0.000 C 
ATOM     28  C   UNL     1      -2.445   9.395  16.276  0.00  0.00    +0.000 C 
ATOM     29  C   UNL     1      -3.794  11.424  16.917  0.00  0.00    +0.000 C 
ENDBRANCH  25  26
ENDBRANCH   6  25
BRANCH   8  30
ATOM     30  C   UNL     1      -3.886  12.764  20.669  0.00  0.00    +0.000 C 
BRANCH  30  31
ATOM     31  C   UNL     1      -4.763  13.912  21.185  0.00  0.00    +0.000 C 
BRANCH  31  32
ATOM     32  C   UNL     1      -5.475  13.637  22.478  0.00  0.00    +0.000 C 
ATOM     33  C   UNL     1      -6.631  12.947  22.557  0.00  0.00    +0.000 C 
ATOM     34  C   UNL     1      -7.344  12.350  21.369  0.00  0.00    +0.000 C 
ATOM     35  C   UNL     1      -7.321  12.717  23.873  0.00  0.00    +0.000 C 
ENDBRANCH  31  32
ENDBRANCH  30  31
ENDBRANCH   8  30
TORSDOF 8
ENDMDL
MODEL 7
REMARK VINA RESULT:      -7.4      0.939      1.251
REMARK  Name = 
REMARK  14 active torsions:
REMARK  status: ('A' for Active; 'I' for Inactive)
REMARK    1  A    between atoms: C_1  and  O_2
REMARK    2  A    between atoms: O_2  and  C_3
REMARK    3  A    between atoms: C_8  and  C_9
REMARK    4  A    between atoms: C_11  and  O_12
REMARK    5  A    between atoms: C_15  and  C_16
REMARK    6  A    between atoms: C_16  and  C_17
REMARK    7  A    between atoms: C_18  and  C_19
REMARK    8  A    between atoms: C_18  and  C_20
REMARK    9  A    between atoms: C_22  and  C_23
REMARK   10  A    between atoms: C_22  and  C_24
REMARK   11  A    between atoms: C_24  and  C_25
REMARK   12  A    between atoms: C_25  and  C_26
REMARK   13  A    between atoms: C_27  and  C_28
REMARK   14  A    between atoms: C_27  and  C_29
REMARK                            x       y       z     vdW  Elec       q    Type
REMARK                         _______ _______ _______ _____ _____    ______ ____
ROOT
ATOM      1  C   UNL     1       0.592   9.652  20.514  0.00  0.00    +0.000 A 
ATOM      2  C   UNL     1       0.449   9.299  21.869  0.00  0.00    +0.000 A 
ATOM      3  C   UNL     1      -0.317  10.071  22.733  0.00  0.00    +0.000 A 
ATOM      4  C   UNL     1      -0.944  11.234  22.282  0.00  0.00    +0.000 A 
ATOM      5  C   UNL     1      -0.843  11.589  20.929  0.00  0.00    +0.000 A 
ATOM      6  C   UNL     1      -0.103  10.788  20.018  0.00  0.00    +0.000 A 
ATOM      7  O   UNL     1      -1.464  12.702  20.416  0.00  0.00    +0.000 OA
ATOM      8  C   UNL     1      -2.144  13.634  21.295  0.00  0.00    +0.000 C 
ATOM      9  C   UNL     1      -1.352  14.946  21.212  0.00  0.00    +0.000 C 
ATOM     10  C   UNL     1      -2.215  13.208  22.742  0.00  0.00    +0.000 C 
ATOM     11  C   UNL     1      -1.690  12.075  23.202  0.00  0.00    +0.000 C 
ENDROOT
BRANCH   1  17
ATOM     12  C   UNL     1       3.957   5.270  18.321  0.00  0.00    +0.000 A 
ATOM     13  C   UNL     1       4.017   6.011  17.136  0.00  0.00    +0.000 A 
ATOM     14  C   UNL     1       3.422   7.276  17.041  0.00  0.00    +0.000 A 
ATOM     15  C   UNL     1       2.731   7.776  18.153  0.00  0.00    +0.000 A 
ATOM     16  C   UNL     1       2.035   8.969  18.441  0.00  0.00    +0.000 A 
ATOM     17  C   UNL     1       1.470   8.822  19.689  0.00  0.00    +0.000 A 
ATOM     18  O   UNL     1       1.885   7.634  20.237  0.00  0.00    +0.000 OA
ATOM     19  C   UNL     1       2.646   6.999  19.298  0.00  0.00    +0.000 A 
ATOM     20  C   UNL     1       3.251   5.751  19.434  0.00  0.00    +0.000 A 
BRANCH  12  22
ATOM     21  C   UNL     1       3.615   2.937  18.545  0.00  0.00    +0.000 C 
ATOM     22  O   UNL     1       4.525   4.033  18.489  0.00  0.00    +0.000 OA
ENDBRANCH  12  22
ENDBRANCH   1  17
BRANCH   3  23
ATOM     23  O   UNL     1      -0.448   9.701  24.044  0.00  0.00    +0.000 OA
ATOM     24  H   UNL     1       0.388   9.307  24.344  0.00  0.00    +0.000 HD
ENDBRANCH   3  23
BRANCH   6  25
ATOM     25  C   UNL     1      -0.166  11.116  18.528  0.00  0.00    +0.000 C 
BRANCH  25  26
ATOM     26  C   UNL     1      -1.506  11.580  18.005  0.00  0.00    +0.000 C 
ATOM     27  C   UNL     1      -2.345  10.907  17.185  0.00  0.00    +0.000 C 
ATOM     28  C   UNL     1      -2.070   9.565  16.558  0.00  0.00    +0.000 C 
ATOM     29  C   UNL     1      -3.708  11.457  16.847  0.00  0.00    +0.000 C 
ENDBRANCH  25  26
ENDBRANCH   6  25
BRANCH   8  30
ATOM     30  C   UNL     1      -3.575  13.803  20.707  0.00  0.00    +0.000 C 
BRANCH  30  31
ATOM     31  C   UNL     1      -4.570  12.723  21.150  0.00  0.00    +0.000 C 
BRANCH  31  32
ATOM     32  C   UNL     1      -5.111  11.863  20.044  0.00  0.00    +0.000 C 
ATOM     33  C   UNL     1      -6.428  11.681  19.823  0.00  0.00    +0.000 C 
ATOM     34  C   UNL     1      -7.521  12.325  20.639  0.00  0.00    +0.000 C 
ATOM     35  C   UNL     1      -6.923  10.791  18.716  0.00  0.00    +0.000 C 
ENDBRANCH  31  32
ENDBRANCH  30  31
ENDBRANCH   8  30
TORSDOF 8
ENDMDL
MODEL 8
REMARK VINA RESULT:      -7.3      2.240      4.549
REMARK  Name = 
REMARK  14 active torsions:
REMARK  status: ('A' for Active; 'I' for Inactive)
REMARK    1  A    between atoms: C_1  and  O_2
REMARK    2  A    between atoms: O_2  and  C_3
REMARK    3  A    between atoms: C_8  and  C_9
REMARK    4  A    between atoms: C_11  and  O_12
REMARK    5  A    between atoms: C_15  and  C_16
REMARK    6  A    between atoms: C_16  and  C_17
REMARK    7  A    between atoms: C_18  and  C_19
REMARK    8  A    between atoms: C_18  and  C_20
REMARK    9  A    between atoms: C_22  and  C_23
REMARK   10  A    between atoms: C_22  and  C_24
REMARK   11  A    between atoms: C_24  and  C_25
REMARK   12  A    between atoms: C_25  and  C_26
REMARK   13  A    between atoms: C_27  and  C_28
REMARK   14  A    between atoms: C_27  and  C_29
REMARK                            x       y       z     vdW  Elec       q    Type
REMARK                         _______ _______ _______ _____ _____    ______ ____
ROOT
ATOM      1  C   UNL     1      -0.146  10.567  19.163  0.00  0.00    +0.000 A 
ATOM      2  C   UNL     1      -1.389  10.399  18.525  0.00  0.00    +0.000 A 
ATOM      3  C   UNL     1      -2.462  11.231  18.817  0.00  0.00    +0.000 A 
ATOM      4  C   UNL     1      -2.340  12.240  19.773  0.00  0.00    +0.000 A 
ATOM      5  C   UNL     1      -1.102  12.448  20.399  0.00  0.00    +0.000 A 
ATOM      6  C   UNL     1       0.021  11.639  20.081  0.00  0.00    +0.000 A 
ATOM      7  O   UNL     1      -0.907  13.445  21.324  0.00  0.00    +0.000 OA
ATOM      8  C   UNL     1      -2.026  14.243  21.789  0.00  0.00    +0.000 C 
ATOM      9  C   UNL     1      -2.190  13.910  23.278  0.00  0.00    +0.000 C 
ATOM     10  C   UNL     1      -3.336  13.973  21.089  0.00  0.00    +0.000 C 
ATOM     11  C   UNL     1      -3.482  13.067  20.125  0.00  0.00    +0.000 C 
ENDROOT
BRANCH   1  17
ATOM     12  C   UNL     1       3.551   5.912  19.095  0.00  0.00    +0.000 A 
ATOM     13  C   UNL     1       4.008   6.389  17.861  0.00  0.00    +0.000 A 
ATOM     14  C   UNL     1       3.524   7.590  17.324  0.00  0.00    +0.000 A 
ATOM     15  C   UNL     1       2.543   8.294  18.034  0.00  0.00    +0.000 A 
ATOM     16  C   UNL     1       1.842   9.502  17.836  0.00  0.00    +0.000 A 
ATOM     17  C   UNL     1       0.910   9.606  18.846  0.00  0.00    +0.000 A 
ATOM     18  O   UNL     1       1.084   8.570  19.731  0.00  0.00    +0.000 OA
ATOM     19  C   UNL     1       2.073   7.773  19.231  0.00  0.00    +0.000 A 
ATOM     20  C   UNL     1       2.554   6.597  19.805  0.00  0.00    +0.000 A 
BRANCH  12  22
ATOM     21  C   UNL     1       3.016   3.715  19.800  0.00  0.00    +0.000 C 
ATOM     22  O   UNL     1       3.986   4.753  19.685  0.00  0.00    +0.000 OA
ENDBRANCH  12  22
ENDBRANCH   1  17
BRANCH   3  23
ATOM     23  O   UNL     1      -3.658  11.053  18.176  0.00  0.00    +0.000 OA
ATOM     24  H   UNL     1      -4.038  11.923  17.972  0.00  0.00    +0.000 HD
ENDBRANCH   3  23
BRANCH   6  25
ATOM     25  C   UNL     1       1.387  12.012  20.654  0.00  0.00    +0.000 C 
BRANCH  25  26
ATOM     26  C   UNL     1       2.168  13.053  19.887  0.00  0.00    +0.000 C 
ATOM     27  C   UNL     1       2.567  14.269  20.326  0.00  0.00    +0.000 C 
ATOM     28  C   UNL     1       2.244  14.866  21.671  0.00  0.00    +0.000 C 
ATOM     29  C   UNL     1       3.449  15.150  19.477  0.00  0.00    +0.000 C 
ENDBRANCH  25  26
ENDBRANCH   6  25
BRANCH   8  30
ATOM     30  C   UNL     1      -1.599  15.727  21.590  0.00  0.00    +0.000 C 
BRANCH  30  31
ATOM     31  C   UNL     1      -1.684  16.217  20.139  0.00  0.00    +0.000 C 
BRANCH  31  32
ATOM     32  C   UNL     1      -0.362  16.422  19.458  0.00  0.00    +0.000 C 
ATOM     33  C   UNL     1      -0.161  17.337  18.488  0.00  0.00    +0.000 C 
ATOM     34  C   UNL     1      -1.224  18.278  17.978  0.00  0.00    +0.000 C 
ATOM     35  C   UNL     1       1.176  17.491  17.818  0.00  0.00    +0.000 C 
ENDBRANCH  31  32
ENDBRANCH  30  31
ENDBRANCH   8  30
TORSDOF 8
ENDMDL
MODEL 9
REMARK VINA RESULT:      -7.3      0.957      1.306
REMARK  Name = 
REMARK  14 active torsions:
REMARK  status: ('A' for Active; 'I' for Inactive)
REMARK    1  A    between atoms: C_1  and  O_2
REMARK    2  A    between atoms: O_2  and  C_3
REMARK    3  A    between atoms: C_8  and  C_9
REMARK    4  A    between atoms: C_11  and  O_12
REMARK    5  A    between atoms: C_15  and  C_16
REMARK    6  A    between atoms: C_16  and  C_17
REMARK    7  A    between atoms: C_18  and  C_19
REMARK    8  A    between atoms: C_18  and  C_20
REMARK    9  A    between atoms: C_22  and  C_23
REMARK   10  A    between atoms: C_22  and  C_24
REMARK   11  A    between atoms: C_24  and  C_25
REMARK   12  A    between atoms: C_25  and  C_26
REMARK   13  A    between atoms: C_27  and  C_28
REMARK   14  A    between atoms: C_27  and  C_29
REMARK                            x       y       z     vdW  Elec       q    Type
REMARK                         _______ _______ _______ _____ _____    ______ ____
ROOT
ATOM      1  C   UNL     1       0.823   9.122  20.483  0.00  0.00    +0.000 A 
ATOM      2  C   UNL     1       0.904   8.965  21.879  0.00  0.00    +0.000 A 
ATOM      3  C   UNL     1       0.135   9.746  22.733  0.00  0.00    +0.000 A 
ATOM      4  C   UNL     1      -0.719  10.725  22.225  0.00  0.00    +0.000 A 
ATOM      5  C   UNL     1      -0.842  10.878  20.837  0.00  0.00    +0.000 A 
ATOM      6  C   UNL     1      -0.100  10.059  19.944  0.00  0.00    +0.000 A 
ATOM      7  O   UNL     1      -1.691  11.801  20.273  0.00  0.00    +0.000 OA
ATOM      8  C   UNL     1      -2.399  12.751  21.109  0.00  0.00    +0.000 C 
ATOM      9  C   UNL     1      -1.844  14.134  20.738  0.00  0.00    +0.000 C 
ATOM     10  C   UNL     1      -2.225  12.548  22.594  0.00  0.00    +0.000 C 
ATOM     11  C   UNL     1      -1.474  11.584  23.122  0.00  0.00    +0.000 C 
ENDROOT
BRANCH   1  17
ATOM     12  C   UNL     1       4.029   4.701  18.133  0.00  0.00    +0.000 A 
ATOM     13  C   UNL     1       4.290   5.562  17.061  0.00  0.00    +0.000 A 
ATOM     14  C   UNL     1       3.821   6.882  17.061  0.00  0.00    +0.000 A 
ATOM     15  C   UNL     1       3.052   7.320  18.147  0.00  0.00    +0.000 A 
ATOM     16  C   UNL     1       2.433   8.536  18.505  0.00  0.00    +0.000 A 
ATOM     17  C   UNL     1       1.716   8.307  19.659  0.00  0.00    +0.000 A 
ATOM     18  O   UNL     1       1.960   7.029  20.097  0.00  0.00    +0.000 OA
ATOM     19  C   UNL     1       2.767   6.431  19.173  0.00  0.00    +0.000 A 
ATOM     20  C   UNL     1       3.242   5.122  19.216  0.00  0.00    +0.000 A 
BRANCH  12  22
ATOM     21  C   UNL     1       3.457   2.404  18.067  0.00  0.00    +0.000 C 
ATOM     22  O   UNL     1       4.464   3.402  18.206  0.00  0.00    +0.000 OA
ENDBRANCH  12  22
ENDBRANCH   1  17
BRANCH   3  23
ATOM     23  O   UNL     1       0.225   9.567  24.087  0.00  0.00    +0.000 OA
ATOM     24  H   UNL     1       1.052   9.968  24.403  0.00  0.00    +0.000 HD
ENDBRANCH   3  23
BRANCH   6  25
ATOM     25  C   UNL     1      -0.395  10.141  18.448  0.00  0.00    +0.000 C 
BRANCH  25  26
ATOM     26  C   UNL     1      -1.618  10.936  18.055  0.00  0.00    +0.000 C 
ATOM     27  C   UNL     1      -2.511  10.642  17.082  0.00  0.00    +0.000 C 
ATOM     28  C   UNL     1      -2.421   9.477  16.131  0.00  0.00    +0.000 C 
ATOM     29  C   UNL     1      -3.753  11.476  16.890  0.00  0.00    +0.000 C 
ENDBRANCH  25  26
ENDBRANCH   6  25
BRANCH   8  30
ATOM     30  C   UNL     1      -3.900  12.625  20.714  0.00  0.00    +0.000 C 
BRANCH  30  31
ATOM     31  C   UNL     1      -4.733  13.880  21.002  0.00  0.00    +0.000 C 
BRANCH  31  32
ATOM     32  C   UNL     1      -5.696  14.268  19.917  0.00  0.00    +0.000 C 
ATOM     33  C   UNL     1      -6.995  13.904  19.913  0.00  0.00    +0.000 C 
ATOM     34  C   UNL     1      -7.648  13.083  20.996  0.00  0.00    +0.000 C 
ATOM     35  C   UNL     1      -7.916  14.297  18.792  0.00  0.00    +0.000 C 
ENDBRANCH  31  32
ENDBRANCH  30  31
ENDBRANCH   8  30
TORSDOF 8
ENDMDL
