MODEL 1
REMARK VINA RESULT:      -8.3      0.000      0.000
REMARK  Name = 
REMARK  9 active torsions:
REMARK  status: ('A' for Active; 'I' for Inactive)
REMARK    1  A    between atoms: C_1  and  C_2
REMARK    2  A    between atoms: C_5  and  C_6
REMARK    3  A    between atoms: N_9  and  C_10
REMARK    4  A    between atoms: C_10  and  C_11
REMARK    5  A    between atoms: C_10  and  C_12
REMARK    6  A    between atoms: C_12  and  C_13
REMARK    7  A    between atoms: C_13  and  N_14
REMARK    8  A    between atoms: C_13  and  C_21
REMARK    9  A    between atoms: C_15  and  C_17
REMARK                            x       y       z     vdW  Elec       q    Type
REMARK                         _______ _______ _______ _____ _____    ______ ____
ROOT
ATOM      1  C   UNL     1       1.811   8.008  18.000  0.00  0.00    +0.000 C 
ENDROOT
BRANCH   1   2
ATOM      2  C   UNL     1       1.529   9.204  18.961  0.00  0.00    +0.000 C 
ATOM      3  C   UNL     1       1.426   8.676  20.403  0.00  0.00    +0.000 C 
BRANCH   2   7
ATOM      4  C   UNL     1      -1.891  11.669  17.953  0.00  0.00    +0.000 C 
ATOM      5  C   UNL     1      -1.544  10.422  17.123  0.00  0.00    +0.000 C 
ATOM      6  C   UNL     1      -0.660   9.373  17.789  0.00  0.00    +0.000 C 
ATOM      7  N   UNL     1       0.384  10.045  18.569  0.00  0.00    +0.000 NA
ATOM      8  C   UNL     1      -0.274  10.721  19.694  0.00  0.00    +0.000 C 
ATOM      9  C   UNL     1      -0.950  11.963  19.131  0.00  0.00    +0.000 C 
BRANCH   4  14
ATOM     10  C   UNL     1      -6.775  11.062  18.427  0.00  0.00    +0.000 C 
ATOM     11  C   UNL     1      -5.368  11.444  18.659  0.00  0.00    +0.000 A 
ATOM     12  N   UNL     1      -4.990  12.167  19.715  0.00  0.00    +0.000 NA
ATOM     13  O   UNL     1      -3.618  12.295  19.526  0.00  0.00    +0.000 OA
ATOM     14  C   UNL     1      -3.316  11.627  18.371  0.00  0.00    +0.000 A 
ATOM     15  N   UNL     1      -4.363  11.081  17.798  0.00  0.00    +0.000 NA
ENDBRANCH   4  14
ENDBRANCH   2   7
ENDBRANCH   1   2
BRANCH   1  16
ATOM     16  C   UNL     1       2.788   6.902  18.483  0.00  0.00    +0.000 C 
BRANCH  16  17
ATOM     17  C   UNL     1       2.095   5.583  18.843  0.00  0.00    +0.000 A 
ATOM     18  C   UNL     1       1.841   5.255  20.186  0.00  0.00    +0.000 A 
ATOM     19  C   UNL     1       1.356   3.989  20.536  0.00  0.00    +0.000 A 
ATOM     20  C   UNL     1       1.122   3.030  19.553  0.00  0.00    +0.000 A 
ATOM     21  C   UNL     1       1.335   3.347  18.217  0.00  0.00    +0.000 A 
ATOM     22  C   UNL     1       1.802   4.615  17.866  0.00  0.00    +0.000 A 
ENDBRANCH  16  17
BRANCH  16  23
ATOM     23  N   UNL     1       3.953   6.635  17.638  0.00  0.00    +0.000 N 
ATOM     24  C   UNL     1       5.132   6.036  18.037  0.00  0.00    +0.000 C 
ATOM     25  O   UNL     1       5.318   5.611  19.178  0.00  0.00    +0.000 OA
ATOM     26  H   UNL     1       3.856   6.860  16.658  0.00  0.00    +0.000 HD
BRANCH  24  27
ATOM     27  C   UNL     1       6.167   5.874  16.885  0.00  0.00    +0.000 C 
ATOM     28  C   UNL     1       6.987   4.562  16.761  0.00  0.00    +0.000 C 
ATOM     29  C   UNL     1       6.907   4.745  15.228  0.00  0.00    +0.000 C 
ATOM     30  C   UNL     1       5.601   5.513  15.471  0.00  0.00    +0.000 C 
ENDBRANCH  24  27
ENDBRANCH  16  23
ENDBRANCH   1  16
TORSDOF 7
ENDMDL
MODEL 2
REMARK VINA RESULT:      -8.2      2.646      3.454
REMARK  Name = 
REMARK  9 active torsions:
REMARK  status: ('A' for Active; 'I' for Inactive)
REMARK    1  A    between atoms: C_1  and  C_2
REMARK    2  A    between atoms: C_5  and  C_6
REMARK    3  A    between atoms: N_9  and  C_10
REMARK    4  A    between atoms: C_10  and  C_11
REMARK    5  A    between atoms: C_10  and  C_12
REMARK    6  A    between atoms: C_12  and  C_13
REMARK    7  A    between atoms: C_13  and  N_14
REMARK    8  A    between atoms: C_13  and  C_21
REMARK    9  A    between atoms: C_15  and  C_17
REMARK                            x       y       z     vdW  Elec       q    Type
REMARK                         _______ _______ _______ _____ _____    ______ ____
ROOT
ATOM      1  C   UNL     1       3.314   6.713  19.666  0.00  0.00    +0.000 C 
ENDROOT
BRANCH   1   2
ATOM      2  C   UNL     1       2.321   7.411  18.686  0.00  0.00    +0.000 C 
ATOM      3  C   UNL     1       3.121   8.127  17.584  0.00  0.00    +0.000 C 
BRANCH   2   7
ATOM      4  C   UNL     1      -0.520  10.097  20.558  0.00  0.00    +0.000 C 
ATOM      5  C   UNL     1       0.155   8.975  21.364  0.00  0.00    +0.000 C 
ATOM      6  C   UNL     1       1.449   8.399  20.796  0.00  0.00    +0.000 C 
ATOM      7  N   UNL     1       1.328   8.282  19.340  0.00  0.00    +0.000 NA
ATOM      8  C   UNL     1       1.275   9.643  18.793  0.00  0.00    +0.000 C 
ATOM      9  C   UNL     1      -0.120  10.182  19.078  0.00  0.00    +0.000 C 
BRANCH   4  14
ATOM     10  C   UNL     1      -1.011  14.338  23.051  0.00  0.00    +0.000 C 
ATOM     11  C   UNL     1      -0.463  13.212  22.271  0.00  0.00    +0.000 A 
ATOM     12  N   UNL     1       0.799  13.191  21.838  0.00  0.00    +0.000 NA
ATOM     13  O   UNL     1       0.873  11.981  21.157  0.00  0.00    +0.000 OA
ATOM     14  C   UNL     1      -0.361  11.398  21.257  0.00  0.00    +0.000 A 
ATOM     15  N   UNL     1      -1.221  12.117  21.938  0.00  0.00    +0.000 NA
ENDBRANCH   4  14
ENDBRANCH   2   7
ENDBRANCH   1   2
BRANCH   1  16
ATOM     16  C   UNL     1       3.864   5.316  19.271  0.00  0.00    +0.000 C 
BRANCH  16  17
ATOM     17  C   UNL     1       2.814   4.201  19.334  0.00  0.00    +0.000 A 
ATOM     18  C   UNL     1       2.664   3.302  18.265  0.00  0.00    +0.000 A 
ATOM     19  C   UNL     1       1.607   2.384  18.241  0.00  0.00    +0.000 A 
ATOM     20  C   UNL     1       0.681   2.353  19.282  0.00  0.00    +0.000 A 
ATOM     21  C   UNL     1       0.832   3.212  20.365  0.00  0.00    +0.000 A 
ATOM     22  C   UNL     1       1.896   4.115  20.396  0.00  0.00    +0.000 A 
ENDBRANCH  16  17
BRANCH  16  23
ATOM     23  N   UNL     1       4.602   5.230  18.010  0.00  0.00    +0.000 N 
ATOM     24  C   UNL     1       5.909   4.811  17.855  0.00  0.00    +0.000 C 
ATOM     25  O   UNL     1       6.603   4.412  18.790  0.00  0.00    +0.000 OA
ATOM     26  H   UNL     1       4.082   5.445  17.171  0.00  0.00    +0.000 HD
BRANCH  24  27
ATOM     27  C   UNL     1       6.390   4.812  16.373  0.00  0.00    +0.000 C 
ATOM     28  C   UNL     1       6.072   3.602  15.456  0.00  0.00    +0.000 C 
ATOM     29  C   UNL     1       5.934   4.613  14.295  0.00  0.00    +0.000 C 
ATOM     30  C   UNL     1       5.548   5.652  15.356  0.00  0.00    +0.000 C 
ENDBRANCH  24  27
ENDBRANCH  16  23
ENDBRANCH   1  16
TORSDOF 7
ENDMDL
MODEL 3
REMARK VINA RESULT:      -8.0      0.847      1.290
REMARK  Name = 
REMARK  9 active torsions:
REMARK  status: ('A' for Active; 'I' for Inactive)
REMARK    1  A    between atoms: C_1  and  C_2
REMARK    2  A    between atoms: C_5  and  C_6
REMARK    3  A    between atoms: N_9  and  C_10
REMARK    4  A    between atoms: C_10  and  C_11
REMARK    5  A    between atoms: C_10  and  C_12
REMARK    6  A    between atoms: C_12  and  C_13
REMARK    7  A    between atoms: C_13  and  N_14
REMARK    8  A    between atoms: C_13  and  C_21
REMARK    9  A    between atoms: C_15  and  C_17
REMARK                            x       y       z     vdW  Elec       q    Type
REMARK                         _______ _______ _______ _____ _____    ______ ____
ROOT
ATOM      1  C   UNL     1       1.731   7.748  18.767  0.00  0.00    +0.000 C 
ENDROOT
BRANCH   1   2
ATOM      2  C   UNL     1       1.654   8.764  19.948  0.00  0.00    +0.000 C 
ATOM      3  C   UNL     1       1.398   7.996  21.257  0.00  0.00    +0.000 C 
BRANCH   2   7
ATOM      4  C   UNL     1      -1.223  11.961  19.405  0.00  0.00    +0.000 C 
ATOM      5  C   UNL     1      -0.500  11.337  18.200  0.00  0.00    +0.000 C 
ATOM      6  C   UNL     1       0.108   9.952  18.402  0.00  0.00    +0.000 C 
ATOM      7  N   UNL     1       0.712   9.877  19.736  0.00  0.00    +0.000 NA
ATOM      8  C   UNL     1      -0.380   9.932  20.716  0.00  0.00    +0.000 C 
ATOM      9  C   UNL     1      -0.849  11.378  20.777  0.00  0.00    +0.000 C 
BRANCH   4  14
ATOM     10  C   UNL     1      -5.857  11.534  17.736  0.00  0.00    +0.000 C 
ATOM     11  C   UNL     1      -4.675  11.850  18.561  0.00  0.00    +0.000 A 
ATOM     12  N   UNL     1      -4.765  12.519  19.713  0.00  0.00    +0.000 NA
ATOM     13  O   UNL     1      -3.441  12.599  20.129  0.00  0.00    +0.000 OA
ATOM     14  C   UNL     1      -2.691  11.961  19.178  0.00  0.00    +0.000 A 
ATOM     15  N   UNL     1      -3.407  11.479  18.190  0.00  0.00    +0.000 NA
ENDBRANCH   4  14
ENDBRANCH   2   7
ENDBRANCH   1   2
BRANCH   1  16
ATOM     16  C   UNL     1       2.794   6.619  18.848  0.00  0.00    +0.000 C 
BRANCH  16  17
ATOM     17  C   UNL     1       2.204   5.239  19.161  0.00  0.00    +0.000 A 
ATOM     18  C   UNL     1       1.783   4.391  18.123  0.00  0.00    +0.000 A 
ATOM     19  C   UNL     1       1.099   3.202  18.400  0.00  0.00    +0.000 A 
ATOM     20  C   UNL     1       0.818   2.843  19.717  0.00  0.00    +0.000 A 
ATOM     21  C   UNL     1       1.255   3.652  20.759  0.00  0.00    +0.000 A 
ATOM     22  C   UNL     1       1.952   4.830  20.483  0.00  0.00    +0.000 A 
ENDBRANCH  16  17
BRANCH  16  23
ATOM     23  N   UNL     1       3.731   6.514  17.728  0.00  0.00    +0.000 N 
ATOM     24  C   UNL     1       5.029   6.045  17.790  0.00  0.00    +0.000 C 
ATOM     25  O   UNL     1       5.539   5.612  18.824  0.00  0.00    +0.000 OA
ATOM     26  H   UNL     1       3.369   6.755  16.817  0.00  0.00    +0.000 HD
BRANCH  24  27
ATOM     27  C   UNL     1       5.753   6.039  16.412  0.00  0.00    +0.000 C 
ATOM     28  C   UNL     1       7.175   5.430  16.289  0.00  0.00    +0.000 C 
ATOM     29  C   UNL     1       6.767   4.952  14.876  0.00  0.00    +0.000 C 
ATOM     30  C   UNL     1       5.321   4.935  15.390  0.00  0.00    +0.000 C 
ENDBRANCH  24  27
ENDBRANCH  16  23
ENDBRANCH   1  16
TORSDOF 7
ENDMDL
MODEL 4
REMARK VINA RESULT:      -8.0      2.547      3.344
REMARK  Name = 
REMARK  9 active torsions:
REMARK  status: ('A' for Active; 'I' for Inactive)
REMARK    1  A    between atoms: C_1  and  C_2
REMARK    2  A    between atoms: C_5  and  C_6
REMARK    3  A    between atoms: N_9  and  C_10
REMARK    4  A    between atoms: C_10  and  C_11
REMARK    5  A    between atoms: C_10  and  C_12
REMARK    6  A    between atoms: C_12  and  C_13
REMARK    7  A    between atoms: C_13  and  N_14
REMARK    8  A    between atoms: C_13  and  C_21
REMARK    9  A    between atoms: C_15  and  C_17
REMARK                            x       y       z     vdW  Elec       q    Type
REMARK                         _______ _______ _______ _____ _____    ______ ____
ROOT
ATOM      1  C   UNL     1       3.305   6.711  19.775  0.00  0.00    +0.000 C 
ENDROOT
BRANCH   1   2
ATOM      2  C   UNL     1       2.400   7.270  18.634  0.00  0.00    +0.000 C 
ATOM      3  C   UNL     1       3.292   7.771  17.484  0.00  0.00    +0.000 C 
BRANCH   2   7
ATOM      4  C   UNL     1      -0.429  10.314  19.867  0.00  0.00    +0.000 C 
ATOM      5  C   UNL     1       0.126   9.296  20.877  0.00  0.00    +0.000 C 
ATOM      6  C   UNL     1       1.428   8.593  20.504  0.00  0.00    +0.000 C 
ATOM      7  N   UNL     1       1.409   8.268  19.074  0.00  0.00    +0.000 NA
ATOM      8  C   UNL     1       1.465   9.534  18.335  0.00  0.00    +0.000 C 
ATOM      9  C   UNL     1       0.083  10.164  18.426  0.00  0.00    +0.000 C 
BRANCH   4  14
ATOM     10  C   UNL     1      -0.148  15.191  20.625  0.00  0.00    +0.000 C 
ATOM     11  C   UNL     1      -0.079  13.727  20.798  0.00  0.00    +0.000 A 
ATOM     12  N   UNL     1       0.404  13.161  21.906  0.00  0.00    +0.000 NA
ATOM     13  O   UNL     1       0.292  11.802  21.633  0.00  0.00    +0.000 OA
ATOM     14  C   UNL     1      -0.255  11.696  20.383  0.00  0.00    +0.000 A 
ATOM     15  N   UNL     1      -0.504  12.858  19.825  0.00  0.00    +0.000 NA
ENDBRANCH   4  14
ENDBRANCH   2   7
ENDBRANCH   1   2
BRANCH   1  16
ATOM     16  C   UNL     1       3.866   5.272  19.618  0.00  0.00    +0.000 C 
BRANCH  16  17
ATOM     17  C   UNL     1       2.781   4.191  19.566  0.00  0.00    +0.000 A 
ATOM     18  C   UNL     1       2.570   3.447  18.392  0.00  0.00    +0.000 A 
ATOM     19  C   UNL     1       1.482   2.573  18.281  0.00  0.00    +0.000 A 
ATOM     20  C   UNL     1       0.584   2.432  19.337  0.00  0.00    +0.000 A 
ATOM     21  C   UNL     1       0.794   3.133  20.518  0.00  0.00    +0.000 A 
ATOM     22  C   UNL     1       1.889   3.992  20.635  0.00  0.00    +0.000 A 
ENDBRANCH  16  17
BRANCH  16  23
ATOM     23  N   UNL     1       4.833   5.054  18.541  0.00  0.00    +0.000 N 
ATOM     24  C   UNL     1       6.209   5.072  18.663  0.00  0.00    +0.000 C 
ATOM     25  O   UNL     1       6.788   5.238  19.737  0.00  0.00    +0.000 OA
ATOM     26  H   UNL     1       4.452   4.812  17.638  0.00  0.00    +0.000 HD
BRANCH  24  27
ATOM     27  C   UNL     1       6.955   4.778  17.327  0.00  0.00    +0.000 C 
ATOM     28  C   UNL     1       6.223   4.030  16.182  0.00  0.00    +0.000 C 
ATOM     29  C   UNL     1       7.023   4.911  15.196  0.00  0.00    +0.000 C 
ATOM     30  C   UNL     1       7.083   5.962  16.312  0.00  0.00    +0.000 C 
ENDBRANCH  24  27
ENDBRANCH  16  23
ENDBRANCH   1  16
TORSDOF 7
ENDMDL
MODEL 5
REMARK VINA RESULT:      -8.0      2.453      9.589
REMARK  Name = 
REMARK  9 active torsions:
REMARK  status: ('A' for Active; 'I' for Inactive)
REMARK    1  A    between atoms: C_1  and  C_2
REMARK    2  A    between atoms: C_5  and  C_6
REMARK    3  A    between atoms: N_9  and  C_10
REMARK    4  A    between atoms: C_10  and  C_11
REMARK    5  A    between atoms: C_10  and  C_12
REMARK    6  A    between atoms: C_12  and  C_13
REMARK    7  A    between atoms: C_13  and  N_14
REMARK    8  A    between atoms: C_13  and  C_21
REMARK    9  A    between atoms: C_15  and  C_17
REMARK                            x       y       z     vdW  Elec       q    Type
REMARK                         _______ _______ _______ _____ _____    ______ ____
ROOT
ATOM      1  C   UNL     1       2.119   8.986  18.062  0.00  0.00    +0.000 C 
ENDROOT
BRANCH   1   2
ATOM      2  C   UNL     1       2.217   7.519  18.584  0.00  0.00    +0.000 C 
ATOM      3  C   UNL     1       2.064   7.519  20.115  0.00  0.00    +0.000 C 
BRANCH   2   7
ATOM      4  C   UNL     1       5.727   5.452  17.100  0.00  0.00    +0.000 C 
ATOM      5  C   UNL     1       4.461   4.674  17.498  0.00  0.00    +0.000 C 
ATOM      6  C   UNL     1       3.155   5.460  17.548  0.00  0.00    +0.000 C 
ATOM      7  N   UNL     1       3.409   6.785  18.121  0.00  0.00    +0.000 NA
ATOM      8  C   UNL     1       4.234   7.529  17.162  0.00  0.00    +0.000 C 
ATOM      9  C   UNL     1       5.648   6.976  17.272  0.00  0.00    +0.000 C 
BRANCH   4  14
ATOM     10  C   UNL     1       6.360   3.504  12.601  0.00  0.00    +0.000 C 
ATOM     11  C   UNL     1       6.529   4.293  13.836  0.00  0.00    +0.000 A 
ATOM     12  N   UNL     1       7.574   5.098  14.032  0.00  0.00    +0.000 NA
ATOM     13  O   UNL     1       7.335   5.614  15.301  0.00  0.00    +0.000 OA
ATOM     14  C   UNL     1       6.159   5.063  15.733  0.00  0.00    +0.000 A 
ATOM     15  N   UNL     1       5.620   4.241  14.864  0.00  0.00    +0.000 NA
ENDBRANCH   4  14
ENDBRANCH   2   7
ENDBRANCH   1   2
BRANCH   1  16
ATOM     16  C   UNL     1       1.017   9.899  18.665  0.00  0.00    +0.000 C 
BRANCH  16  17
ATOM     17  C   UNL     1       1.476  11.343  18.900  0.00  0.00    +0.000 A 
ATOM     18  C   UNL     1       2.102  12.068  17.872  0.00  0.00    +0.000 A 
ATOM     19  C   UNL     1       2.667  13.325  18.121  0.00  0.00    +0.000 A 
ATOM     20  C   UNL     1       2.622  13.874  19.401  0.00  0.00    +0.000 A 
ATOM     21  C   UNL     1       1.978  13.187  20.423  0.00  0.00    +0.000 A 
ATOM     22  C   UNL     1       1.400  11.942  20.171  0.00  0.00    +0.000 A 
ENDBRANCH  16  17
BRANCH  16  23
ATOM     23  N   UNL     1      -0.283   9.896  17.994  0.00  0.00    +0.000 N 
ATOM     24  C   UNL     1      -1.486  10.297  18.542  0.00  0.00    +0.000 C 
ATOM     25  O   UNL     1      -1.588  10.755  19.681  0.00  0.00    +0.000 OA
ATOM     26  H   UNL     1      -0.284   9.629  17.020  0.00  0.00    +0.000 HD
BRANCH  24  27
ATOM     27  C   UNL     1      -2.684  10.194  17.552  0.00  0.00    +0.000 C 
ATOM     28  C   UNL     1      -3.659  11.391  17.390  0.00  0.00    +0.000 C 
ATOM     29  C   UNL     1      -3.774  10.999  15.900  0.00  0.00    +0.000 C 
ATOM     30  C   UNL     1      -2.368  10.400  16.034  0.00  0.00    +0.000 C 
ENDBRANCH  24  27
ENDBRANCH  16  23
ENDBRANCH   1  16
TORSDOF 7
ENDMDL
MODEL 6
REMARK VINA RESULT:      -8.0      2.488      4.633
REMARK  Name = 
REMARK  9 active torsions:
REMARK  status: ('A' for Active; 'I' for Inactive)
REMARK    1  A    between atoms: C_1  and  C_2
REMARK    2  A    between atoms: C_5  and  C_6
REMARK    3  A    between atoms: N_9  and  C_10
REMARK    4  A    between atoms: C_10  and  C_11
REMARK    5  A    between atoms: C_10  and  C_12
REMARK    6  A    between atoms: C_12  and  C_13
REMARK    7  A    between atoms: C_13  and  N_14
REMARK    8  A    between atoms: C_13  and  C_21
REMARK    9  A    between atoms: C_15  and  C_17
REMARK                            x       y       z     vdW  Elec       q    Type
REMARK                         _______ _______ _______ _____ _____    ______ ____
ROOT
ATOM      1  C   UNL     1       2.615   7.229  17.901  0.00  0.00    +0.000 C 
ENDROOT
BRANCH   1   2
ATOM      2  C   UNL     1       2.306   7.814  19.314  0.00  0.00    +0.000 C 
ATOM      3  C   UNL     1       2.120   6.653  20.308  0.00  0.00    +0.000 C 
BRANCH   2   7
ATOM      4  C   UNL     1      -0.869  10.765  19.315  0.00  0.00    +0.000 C 
ATOM      5  C   UNL     1      -0.327  10.188  20.633  0.00  0.00    +0.000 C 
ATOM      6  C   UNL     1       1.058   9.548  20.589  0.00  0.00    +0.000 C 
ATOM      7  N   UNL     1       1.199   8.785  19.345  0.00  0.00    +0.000 NA
ATOM      8  C   UNL     1       1.218   9.749  18.238  0.00  0.00    +0.000 C 
ATOM      9  C   UNL     1      -0.215  10.221  18.036  0.00  0.00    +0.000 C 
BRANCH   4  14
ATOM     10  C   UNL     1      -0.110  15.615  18.730  0.00  0.00    +0.000 C 
ATOM     11  C   UNL     1      -0.598  14.308  19.213  0.00  0.00    +0.000 A 
ATOM     12  N   UNL     1      -1.433  14.195  20.247  0.00  0.00    +0.000 NA
ATOM     13  O   UNL     1      -1.609  12.820  20.354  0.00  0.00    +0.000 OA
ATOM     14  C   UNL     1      -0.858  12.250  19.362  0.00  0.00    +0.000 A 
ATOM     15  N   UNL     1      -0.216  13.127  18.628  0.00  0.00    +0.000 NA
ENDBRANCH   4  14
ENDBRANCH   2   7
ENDBRANCH   1   2
BRANCH   1  16
ATOM     16  C   UNL     1       3.374   5.877  17.824  0.00  0.00    +0.000 C 
BRANCH  16  17
ATOM     17  C   UNL     1       4.896   6.020  17.926  0.00  0.00    +0.000 A 
ATOM     18  C   UNL     1       5.612   5.335  18.923  0.00  0.00    +0.000 A 
ATOM     19  C   UNL     1       6.975   5.581  19.126  0.00  0.00    +0.000 A 
ATOM     20  C   UNL     1       7.644   6.518  18.341  0.00  0.00    +0.000 A 
ATOM     21  C   UNL     1       6.962   7.180  17.327  0.00  0.00    +0.000 A 
ATOM     22  C   UNL     1       5.607   6.922  17.114  0.00  0.00    +0.000 A 
ENDBRANCH  16  17
BRANCH  16  23
ATOM     23  N   UNL     1       2.915   4.811  18.716  0.00  0.00    +0.000 N 
ATOM     24  C   UNL     1       2.307   3.631  18.335  0.00  0.00    +0.000 C 
ATOM     25  O   UNL     1       2.117   3.322  17.158  0.00  0.00    +0.000 OA
ATOM     26  H   UNL     1       3.118   4.931  19.698  0.00  0.00    +0.000 HD
BRANCH  24  27
ATOM     27  C   UNL     1       1.964   2.695  19.530  0.00  0.00    +0.000 C 
ATOM     28  C   UNL     1       2.872   2.683  20.789  0.00  0.00    +0.000 C 
ATOM     29  C   UNL     1       1.589   2.448  21.620  0.00  0.00    +0.000 C 
ATOM     30  C   UNL     1       0.830   3.169  20.499  0.00  0.00    +0.000 C 
ENDBRANCH  24  27
ENDBRANCH  16  23
ENDBRANCH   1  16
TORSDOF 7
ENDMDL
MODEL 7
REMARK VINA RESULT:      -7.9      1.106      1.349
REMARK  Name = 
REMARK  9 active torsions:
REMARK  status: ('A' for Active; 'I' for Inactive)
REMARK    1  A    between atoms: C_1  and  C_2
REMARK    2  A    between atoms: C_5  and  C_6
REMARK    3  A    between atoms: N_9  and  C_10
REMARK    4  A    between atoms: C_10  and  C_11
REMARK    5  A    between atoms: C_10  and  C_12
REMARK    6  A    between atoms: C_12  and  C_13
REMARK    7  A    between atoms: C_13  and  N_14
REMARK    8  A    between atoms: C_13  and  C_21
REMARK    9  A    between atoms: C_15  and  C_17
REMARK                            x       y       z     vdW  Elec       q    Type
REMARK                         _______ _______ _______ _____ _____    ______ ____
ROOT
ATOM      1  C   UNL     1       1.961   7.497  18.819  0.00  0.00    +0.000 C 
ENDROOT
BRANCH   1   2
ATOM      2  C   UNL     1       1.766   8.530  19.972  0.00  0.00    +0.000 C 
ATOM      3  C   UNL     1       1.348   7.783  21.251  0.00  0.00    +0.000 C 
BRANCH   2   7
ATOM      4  C   UNL     1      -0.980  11.757  19.057  0.00  0.00    +0.000 C 
ATOM      5  C   UNL     1      -0.070  11.162  17.969  0.00  0.00    +0.000 C 
ATOM      6  C   UNL     1       0.494   9.768  18.228  0.00  0.00    +0.000 C 
ATOM      7  N   UNL     1       0.872   9.653  19.640  0.00  0.00    +0.000 NA
ATOM      8  C   UNL     1      -0.365   9.688  20.430  0.00  0.00    +0.000 C 
ATOM      9  C   UNL     1      -0.836  11.134  20.454  0.00  0.00    +0.000 C 
BRANCH   4  14
ATOM     10  C   UNL     1      -5.891  11.948  18.522  0.00  0.00    +0.000 C 
ATOM     11  C   UNL     1      -4.445  11.813  18.262  0.00  0.00    +0.000 A 
ATOM     12  N   UNL     1      -3.962  11.500  17.058  0.00  0.00    +0.000 NA
ATOM     13  O   UNL     1      -2.589  11.469  17.274  0.00  0.00    +0.000 OA
ATOM     14  C   UNL     1      -2.391  11.772  18.593  0.00  0.00    +0.000 A 
ATOM     15  N   UNL     1      -3.507  11.996  19.247  0.00  0.00    +0.000 NA
ENDBRANCH   4  14
ENDBRANCH   2   7
ENDBRANCH   1   2
BRANCH   1  16
ATOM     16  C   UNL     1       2.920   6.301  19.070  0.00  0.00    +0.000 C 
BRANCH  16  17
ATOM     17  C   UNL     1       2.210   5.036  19.564  0.00  0.00    +0.000 A 
ATOM     18  C   UNL     1       2.324   4.632  20.905  0.00  0.00    +0.000 A 
ATOM     19  C   UNL     1       1.815   3.399  21.330  0.00  0.00    +0.000 A 
ATOM     20  C   UNL     1       1.189   2.547  20.421  0.00  0.00    +0.000 A 
ATOM     21  C   UNL     1       1.037   2.943  19.098  0.00  0.00    +0.000 A 
ATOM     22  C   UNL     1       1.529   4.180  18.679  0.00  0.00    +0.000 A 
ENDBRANCH  16  17
BRANCH  16  23
ATOM     23  N   UNL     1       3.844   5.960  17.988  0.00  0.00    +0.000 N 
ATOM     24  C   UNL     1       5.167   5.587  18.130  0.00  0.00    +0.000 C 
ATOM     25  O   UNL     1       5.715   5.459  19.226  0.00  0.00    +0.000 OA
ATOM     26  H   UNL     1       3.456   5.941  17.056  0.00  0.00    +0.000 HD
BRANCH  24  27
ATOM     27  C   UNL     1       5.870   5.264  16.779  0.00  0.00    +0.000 C 
ATOM     28  C   UNL     1       5.534   3.949  16.028  0.00  0.00    +0.000 C 
ATOM     29  C   UNL     1       5.723   4.739  14.713  0.00  0.00    +0.000 C 
ATOM     30  C   UNL     1       5.325   5.991  15.506  0.00  0.00    +0.000 C 
ENDBRANCH  24  27
ENDBRANCH  16  23
ENDBRANCH   1  16
TORSDOF 7
ENDMDL
MODEL 8
REMARK VINA RESULT:      -7.9      3.264      8.975
REMARK  Name = 
REMARK  9 active torsions:
REMARK  status: ('A' for Active; 'I' for Inactive)
REMARK    1  A    between atoms: C_1  and  C_2
REMARK    2  A    between atoms: C_5  and  C_6
REMARK    3  A    between atoms: N_9  and  C_10
REMARK    4  A    between atoms: C_10  and  C_11
REMARK    5  A    between atoms: C_10  and  C_12
REMARK    6  A    between atoms: C_12  and  C_13
REMARK    7  A    between atoms: C_13  and  N_14
REMARK    8  A    between atoms: C_13  and  C_21
REMARK    9  A    between atoms: C_15  and  C_17
REMARK                            x       y       z     vdW  Elec       q    Type
REMARK                         _______ _______ _______ _____ _____    ______ ____
ROOT
ATOM      1  C   UNL     1       4.133   6.838  18.080  0.00  0.00    +0.000 C 
ENDROOT
BRANCH   1   2
ATOM      2  C   UNL     1       4.965   5.529  18.251  0.00  0.00    +0.000 C 
ATOM      3  C   UNL     1       6.038   5.753  19.331  0.00  0.00    +0.000 C 
BRANCH   2   7
ATOM      4  C   UNL     1       6.478   4.020  14.479  0.00  0.00    +0.000 C 
ATOM      5  C   UNL     1       6.024   3.058  15.589  0.00  0.00    +0.000 C 
ATOM      6  C   UNL     1       5.089   3.625  16.654  0.00  0.00    +0.000 C 
ATOM      7  N   UNL     1       5.513   4.987  16.995  0.00  0.00    +0.000 NA
ATOM      8  C   UNL     1       5.266   5.831  15.820  0.00  0.00    +0.000 C 
ATOM      9  C   UNL     1       6.360   5.516  14.809  0.00  0.00    +0.000 C 
BRANCH   4  14
ATOM     10  C   UNL     1       3.402   3.195  10.698  0.00  0.00    +0.000 C 
ATOM     11  C   UNL     1       4.601   3.268  11.555  0.00  0.00    +0.000 A 
ATOM     12  N   UNL     1       5.784   2.786  11.170  0.00  0.00    +0.000 NA
ATOM     13  O   UNL     1       6.598   3.052  12.266  0.00  0.00    +0.000 OA
ATOM     14  C   UNL     1       5.813   3.676  13.197  0.00  0.00    +0.000 A 
ATOM     15  N   UNL     1       4.570   3.835  12.805  0.00  0.00    +0.000 NA
ENDBRANCH   4  14
ENDBRANCH   2   7
ENDBRANCH   1   2
BRANCH   1  16
ATOM     16  C   UNL     1       2.591   6.745  18.243  0.00  0.00    +0.000 C 
BRANCH  16  17
ATOM     17  C   UNL     1       2.111   5.396  18.791  0.00  0.00    +0.000 A 
ATOM     18  C   UNL     1       1.717   4.370  17.916  0.00  0.00    +0.000 A 
ATOM     19  C   UNL     1       1.128   3.197  18.403  0.00  0.00    +0.000 A 
ATOM     20  C   UNL     1       0.918   3.032  19.770  0.00  0.00    +0.000 A 
ATOM     21  C   UNL     1       1.331   4.022  20.655  0.00  0.00    +0.000 A 
ATOM     22  C   UNL     1       1.934   5.184  20.171  0.00  0.00    +0.000 A 
ENDBRANCH  16  17
BRANCH  16  23
ATOM     23  N   UNL     1       1.938   7.835  18.968  0.00  0.00    +0.000 N 
ATOM     24  C   UNL     1       1.700   9.108  18.488  0.00  0.00    +0.000 C 
ATOM     25  O   UNL     1       1.987   9.460  17.343  0.00  0.00    +0.000 OA
ATOM     26  H   UNL     1       1.577   7.611  19.884  0.00  0.00    +0.000 HD
BRANCH  24  27
ATOM     27  C   UNL     1       0.959  10.027  19.503  0.00  0.00    +0.000 C 
ATOM     28  C   UNL     1       1.077  11.570  19.380  0.00  0.00    +0.000 C 
ATOM     29  C   UNL     1      -0.387  11.646  19.871  0.00  0.00    +0.000 C 
ATOM     30  C   UNL     1      -0.574  10.245  19.273  0.00  0.00    +0.000 C 
ENDBRANCH  24  27
ENDBRANCH  16  23
ENDBRANCH   1  16
TORSDOF 7
ENDMDL
MODEL 9
REMARK VINA RESULT:      -7.9      1.756      4.140
REMARK  Name = 
REMARK  9 active torsions:
REMARK  status: ('A' for Active; 'I' for Inactive)
REMARK    1  A    between atoms: C_1  and  C_2
REMARK    2  A    between atoms: C_5  and  C_6
REMARK    3  A    between atoms: N_9  and  C_10
REMARK    4  A    between atoms: C_10  and  C_11
REMARK    5  A    between atoms: C_10  and  C_12
REMARK    6  A    between atoms: C_12  and  C_13
REMARK    7  A    between atoms: C_13  and  N_14
REMARK    8  A    between atoms: C_13  and  C_21
REMARK    9  A    between atoms: C_15  and  C_17
REMARK                            x       y       z     vdW  Elec       q    Type
REMARK                         _______ _______ _______ _____ _____    ______ ____
ROOT
ATOM      1  C   UNL     1       2.480   7.225  18.085  0.00  0.00    +0.000 C 
ENDROOT
BRANCH   1   2
ATOM      2  C   UNL     1       2.304   7.873  19.494  0.00  0.00    +0.000 C 
ATOM      3  C   UNL     1       1.817   6.799  20.483  0.00  0.00    +0.000 C 
BRANCH   2   7
ATOM      4  C   UNL     1      -0.250  11.373  19.588  0.00  0.00    +0.000 C 
ATOM      5  C   UNL     1       0.491  10.971  18.302  0.00  0.00    +0.000 C 
ATOM      6  C   UNL     1       0.965   9.524  18.202  0.00  0.00    +0.000 C 
ATOM      7  N   UNL     1       1.475   9.091  19.506  0.00  0.00    +0.000 NA
ATOM      8  C   UNL     1       0.333   9.028  20.426  0.00  0.00    +0.000 C 
ATOM      9  C   UNL     1      -0.014  10.461  20.801  0.00  0.00    +0.000 C 
BRANCH   4  14
ATOM     10  C   UNL     1      -4.854  11.481  17.788  0.00  0.00    +0.000 C 
ATOM     11  C   UNL     1      -3.658  11.694  18.627  0.00  0.00    +0.000 A 
ATOM     12  N   UNL     1      -3.676  12.469  19.713  0.00  0.00    +0.000 NA
ATOM     13  O   UNL     1      -2.366  12.392  20.170  0.00  0.00    +0.000 OA
ATOM     14  C   UNL     1      -1.696  11.568  19.307  0.00  0.00    +0.000 A 
ATOM     15  N   UNL     1      -2.451  11.109  18.336  0.00  0.00    +0.000 NA
ENDBRANCH   4  14
ENDBRANCH   2   7
ENDBRANCH   1   2
BRANCH   1  16
ATOM     16  C   UNL     1       3.333   5.931  17.982  0.00  0.00    +0.000 C 
BRANCH  16  17
ATOM     17  C   UNL     1       4.840   6.175  18.118  0.00  0.00    +0.000 A 
ATOM     18  C   UNL     1       5.518   6.981  17.187  0.00  0.00    +0.000 A 
ATOM     19  C   UNL     1       6.914   7.081  17.207  0.00  0.00    +0.000 A 
ATOM     20  C   UNL     1       7.656   6.374  18.152  0.00  0.00    +0.000 A 
ATOM     21  C   UNL     1       7.001   5.599  19.101  0.00  0.00    +0.000 A 
ATOM     22  C   UNL     1       5.608   5.513  19.092  0.00  0.00    +0.000 A 
ENDBRANCH  16  17
BRANCH  16  23
ATOM     23  N   UNL     1       2.934   4.809  18.832  0.00  0.00    +0.000 N 
ATOM     24  C   UNL     1       2.017   3.827  18.512  0.00  0.00    +0.000 C 
ATOM     25  O   UNL     1       1.447   3.767  17.422  0.00  0.00    +0.000 OA
ATOM     26  H   UNL     1       3.422   4.718  19.711  0.00  0.00    +0.000 HD
BRANCH  24  27
ATOM     27  C   UNL     1       1.837   2.757  19.630  0.00  0.00    +0.000 C 
ATOM     28  C   UNL     1       2.879   2.652  20.775  0.00  0.00    +0.000 C 
ATOM     29  C   UNL     1       1.705   2.279  21.708  0.00  0.00    +0.000 C 
ATOM     30  C   UNL     1       0.804   3.081  20.760  0.00  0.00    +0.000 C 
ENDBRANCH  24  27
ENDBRANCH  16  23
ENDBRANCH   1  16
TORSDOF 7
ENDMDL
