MODEL 1
REMARK VINA RESULT:      -8.4      0.000      0.000
REMARK  Name = 
REMARK  3 active torsions:
REMARK  status: ('A' for Active; 'I' for Inactive)
REMARK    1  A    between atoms: C_1  and  N_2
REMARK    2  A    between atoms: C_6  and  C_7
REMARK    3  A    between atoms: C_12  and  C_13
REMARK                            x       y       z     vdW  Elec       q    Type
REMARK                         _______ _______ _______ _____ _____    ______ ____
ROOT
ATOM      1  C   UNL     1       2.719   5.796  19.341  0.00  0.00    +0.000 C 
ATOM      2  O   UNL     1       2.261   5.583  18.219  0.00  0.00    +0.000 OA
ATOM      3  N   UNL     1       2.523   6.949  20.074  0.00  0.00    +0.000 N 
ATOM      4  C   UNL     1       1.954   8.108  19.535  0.00  0.00    +0.000 A 
ATOM      5  C   UNL     1       1.006   8.774  20.303  0.00  0.00    +0.000 A 
ATOM      6  C   UNL     1       0.469   9.952  19.766  0.00  0.00    +0.000 A 
ATOM      7  C   UNL     1      -0.546  10.866  20.173  0.00  0.00    +0.000 A 
ATOM      8  C   UNL     1      -0.608  11.868  19.232  0.00  0.00    +0.000 A 
ATOM      9  N   UNL     1       0.321  11.592  18.263  0.00  0.00    +0.000 N 
ATOM     10  C   UNL     1       0.969  10.415  18.552  0.00  0.00    +0.000 A 
ATOM     11  C   UNL     1       1.945   9.724  17.851  0.00  0.00    +0.000 A 
ATOM     12  N   UNL     1       2.407   8.555  18.347  0.00  0.00    +0.000 NA
ATOM     13  H   UNL     1       2.746   6.962  21.057  0.00  0.00    +0.000 HD
ATOM     14  H   UNL     1       0.494  12.159  17.444  0.00  0.00    +0.000 HD
ENDROOT
BRANCH   1  20
ATOM     15  C   UNL     1       4.325   3.893  19.219  0.00  0.00    +0.000 C 
ATOM     16  O   UNL     1       4.892   2.765  19.905  0.00  0.00    +0.000 OA
ATOM     17  C   UNL     1       3.898   1.839  20.326  0.00  0.00    +0.000 C 
ATOM     18  C   UNL     1       2.941   2.488  21.315  0.00  0.00    +0.000 C 
ATOM     19  C   UNL     1       2.322   3.756  20.734  0.00  0.00    +0.000 C 
ATOM     20  C   UNL     1       3.391   4.687  20.142  0.00  0.00    +0.000 C 
BRANCH  15  26
ATOM     21  C   UNL     1       4.966   4.574  16.299  0.00  0.00    +0.000 C 
ATOM     22  N   UNL     1       5.722   5.037  17.439  0.00  0.00    +0.000 N 
ATOM     23  C   UNL     1       6.802   5.869  17.385  0.00  0.00    +0.000 A 
ATOM     24  C   UNL     1       7.187   6.037  18.691  0.00  0.00    +0.000 A 
ATOM     25  N   UNL     1       6.379   5.325  19.534  0.00  0.00    +0.000 NA
ATOM     26  C   UNL     1       5.490   4.721  18.760  0.00  0.00    +0.000 A 
ENDBRANCH  15  26
ENDBRANCH   1  20
TORSDOF 2
ENDMDL
MODEL 2
REMARK VINA RESULT:      -7.9      2.183      3.885
REMARK  Name = 
REMARK  3 active torsions:
REMARK  status: ('A' for Active; 'I' for Inactive)
REMARK    1  A    between atoms: C_1  and  N_2
REMARK    2  A    between atoms: C_6  and  C_7
REMARK    3  A    between atoms: C_12  and  C_13
REMARK                            x       y       z     vdW  Elec       q    Type
REMARK                         _______ _______ _______ _____ _____    ______ ____
ROOT
ATOM      1  C   UNL     1       3.634   6.307  18.227  0.00  0.00    +0.000 C 
ATOM      2  O   UNL     1       4.377   6.355  19.207  0.00  0.00    +0.000 OA
ATOM      3  N   UNL     1       2.529   7.109  18.027  0.00  0.00    +0.000 N 
ATOM      4  C   UNL     1       1.993   7.932  19.024  0.00  0.00    +0.000 A 
ATOM      5  C   UNL     1       1.623   9.221  18.660  0.00  0.00    +0.000 A 
ATOM      6  C   UNL     1       1.056  10.024  19.660  0.00  0.00    +0.000 A 
ATOM      7  C   UNL     1       0.624  11.380  19.729  0.00  0.00    +0.000 A 
ATOM      8  C   UNL     1       0.118  11.594  20.991  0.00  0.00    +0.000 A 
ATOM      9  N   UNL     1       0.237  10.423  21.694  0.00  0.00    +0.000 N 
ATOM     10  C   UNL     1       0.831   9.461  20.913  0.00  0.00    +0.000 A 
ATOM     11  C   UNL     1       1.188   8.154  21.203  0.00  0.00    +0.000 A 
ATOM     12  N   UNL     1       1.795   7.412  20.250  0.00  0.00    +0.000 NA
ATOM     13  H   UNL     1       2.103   7.157  17.114  0.00  0.00    +0.000 HD
ATOM     14  H   UNL     1      -0.052  10.288  22.653  0.00  0.00    +0.000 HD
ENDROOT
BRANCH   1  20
ATOM     15  C   UNL     1       4.382   4.059  17.449  0.00  0.00    +0.000 C 
ATOM     16  O   UNL     1       4.844   3.275  16.338  0.00  0.00    +0.000 OA
ATOM     17  C   UNL     1       6.020   3.819  15.749  0.00  0.00    +0.000 C 
ATOM     18  C   UNL     1       5.750   5.209  15.193  0.00  0.00    +0.000 C 
ATOM     19  C   UNL     1       5.176   6.131  16.263  0.00  0.00    +0.000 C 
ATOM     20  C   UNL     1       3.998   5.476  17.002  0.00  0.00    +0.000 C 
BRANCH  15  26
ATOM     21  C   UNL     1       4.415   2.405  20.031  0.00  0.00    +0.000 C 
ATOM     22  N   UNL     1       3.252   2.614  19.200  0.00  0.00    +0.000 N 
ATOM     23  C   UNL     1       1.999   2.141  19.461  0.00  0.00    +0.000 A 
ATOM     24  C   UNL     1       1.227   2.583  18.417  0.00  0.00    +0.000 A 
ATOM     25  N   UNL     1       1.976   3.303  17.527  0.00  0.00    +0.000 NA
ATOM     26  C   UNL     1       3.207   3.317  18.015  0.00  0.00    +0.000 A 
ENDBRANCH  15  26
ENDBRANCH   1  20
TORSDOF 2
ENDMDL
MODEL 3
REMARK VINA RESULT:      -7.8      2.034      3.804
REMARK  Name = 
REMARK  3 active torsions:
REMARK  status: ('A' for Active; 'I' for Inactive)
REMARK    1  A    between atoms: C_1  and  N_2
REMARK    2  A    between atoms: C_6  and  C_7
REMARK    3  A    between atoms: C_12  and  C_13
REMARK                            x       y       z     vdW  Elec       q    Type
REMARK                         _______ _______ _______ _____ _____    ______ ____
ROOT
ATOM      1  C   UNL     1       2.484   6.760  18.119  0.00  0.00    +0.000 C 
ATOM      2  O   UNL     1       1.444   6.785  17.462  0.00  0.00    +0.000 OA
ATOM      3  N   UNL     1       2.668   7.373  19.342  0.00  0.00    +0.000 N 
ATOM      4  C   UNL     1       1.753   8.283  19.884  0.00  0.00    +0.000 A 
ATOM      5  C   UNL     1       1.446   8.155  21.234  0.00  0.00    +0.000 A 
ATOM      6  C   UNL     1       0.555   9.094  21.773  0.00  0.00    +0.000 A 
ATOM      7  C   UNL     1      -0.062   9.272  23.044  0.00  0.00    +0.000 A 
ATOM      8  C   UNL     1      -0.832  10.412  22.979  0.00  0.00    +0.000 A 
ATOM      9  N   UNL     1      -0.714  10.926  21.714  0.00  0.00    +0.000 N 
ATOM     10  C   UNL     1       0.103  10.124  20.953  0.00  0.00    +0.000 A 
ATOM     11  C   UNL     1       0.477  10.219  19.621  0.00  0.00    +0.000 A 
ATOM     12  N   UNL     1       1.283   9.270  19.097  0.00  0.00    +0.000 NA
ATOM     13  H   UNL     1       3.465   7.130  19.909  0.00  0.00    +0.000 HD
ATOM     14  H   UNL     1      -1.174  11.762  21.380  0.00  0.00    +0.000 HD
ENDROOT
BRANCH   1  20
ATOM     15  C   UNL     1       3.870   4.821  18.851  0.00  0.00    +0.000 C 
ATOM     16  O   UNL     1       5.024   4.010  18.580  0.00  0.00    +0.000 OA
ATOM     17  C   UNL     1       6.218   4.781  18.517  0.00  0.00    +0.000 C 
ATOM     18  C   UNL     1       6.147   5.794  17.384  0.00  0.00    +0.000 C 
ATOM     19  C   UNL     1       4.910   6.678  17.510  0.00  0.00    +0.000 C 
ATOM     20  C   UNL     1       3.638   5.843  17.731  0.00  0.00    +0.000 C 
BRANCH  15  26
ATOM     21  C   UNL     1       2.219   4.375  21.396  0.00  0.00    +0.000 C 
ATOM     22  N   UNL     1       1.977   3.722  20.132  0.00  0.00    +0.000 N 
ATOM     23  C   UNL     1       0.963   2.846  19.877  0.00  0.00    +0.000 A 
ATOM     24  C   UNL     1       1.122   2.489  18.562  0.00  0.00    +0.000 A 
ATOM     25  N   UNL     1       2.207   3.117  18.014  0.00  0.00    +0.000 NA
ATOM     26  C   UNL     1       2.719   3.866  18.979  0.00  0.00    +0.000 A 
ENDBRANCH  15  26
ENDBRANCH   1  20
TORSDOF 2
ENDMDL
MODEL 4
REMARK VINA RESULT:      -7.7      1.929      3.536
REMARK  Name = 
REMARK  3 active torsions:
REMARK  status: ('A' for Active; 'I' for Inactive)
REMARK    1  A    between atoms: C_1  and  N_2
REMARK    2  A    between atoms: C_6  and  C_7
REMARK    3  A    between atoms: C_12  and  C_13
REMARK                            x       y       z     vdW  Elec       q    Type
REMARK                         _______ _______ _______ _____ _____    ______ ____
ROOT
ATOM      1  C   UNL     1       2.530   6.673  18.468  0.00  0.00    +0.000 C 
ATOM      2  O   UNL     1       1.537   6.698  17.743  0.00  0.00    +0.000 OA
ATOM      3  N   UNL     1       2.651   7.330  19.676  0.00  0.00    +0.000 N 
ATOM      4  C   UNL     1       1.728   8.283  20.121  0.00  0.00    +0.000 A 
ATOM      5  C   UNL     1       1.329   8.217  21.451  0.00  0.00    +0.000 A 
ATOM      6  C   UNL     1       0.431   9.199  21.893  0.00  0.00    +0.000 A 
ATOM      7  C   UNL     1      -0.264   9.443  23.112  0.00  0.00    +0.000 A 
ATOM      8  C   UNL     1      -0.995  10.598  22.953  0.00  0.00    +0.000 A 
ATOM      9  N   UNL     1      -0.781  11.058  21.680  0.00  0.00    +0.000 N 
ATOM     10  C   UNL     1       0.062  10.207  21.006  0.00  0.00    +0.000 A 
ATOM     11  C   UNL     1       0.526  10.238  19.700  0.00  0.00    +0.000 A 
ATOM     12  N   UNL     1       1.338   9.249  19.267  0.00  0.00    +0.000 NA
ATOM     13  H   UNL     1       3.402   7.090  20.305  0.00  0.00    +0.000 HD
ATOM     14  H   UNL     1      -1.194  11.891  21.284  0.00  0.00    +0.000 HD
ENDROOT
BRANCH   1  20
ATOM     15  C   UNL     1       4.105   5.043  19.507  0.00  0.00    +0.000 C 
ATOM     16  O   UNL     1       5.264   4.216  19.315  0.00  0.00    +0.000 OA
ATOM     17  C   UNL     1       6.395   4.969  18.892  0.00  0.00    +0.000 C 
ATOM     18  C   UNL     1       6.130   5.630  17.548  0.00  0.00    +0.000 C 
ATOM     19  C   UNL     1       4.867   6.486  17.592  0.00  0.00    +0.000 C 
ATOM     20  C   UNL     1       3.682   5.713  18.194  0.00  0.00    +0.000 C 
BRANCH  15  26
ATOM     21  C   UNL     1       3.201   2.426  18.189  0.00  0.00    +0.000 C 
ATOM     22  N   UNL     1       2.684   2.944  19.434  0.00  0.00    +0.000 N 
ATOM     23  C   UNL     1       1.751   2.330  20.218  0.00  0.00    +0.000 A 
ATOM     24  C   UNL     1       1.572   3.174  21.285  0.00  0.00    +0.000 A 
ATOM     25  N   UNL     1       2.363   4.284  21.167  0.00  0.00    +0.000 NA
ATOM     26  C   UNL     1       3.036   4.132  20.037  0.00  0.00    +0.000 A 
ENDBRANCH  15  26
ENDBRANCH   1  20
TORSDOF 2
ENDMDL
MODEL 5
REMARK VINA RESULT:      -7.0      6.037      8.243
REMARK  Name = 
REMARK  3 active torsions:
REMARK  status: ('A' for Active; 'I' for Inactive)
REMARK    1  A    between atoms: C_1  and  N_2
REMARK    2  A    between atoms: C_6  and  C_7
REMARK    3  A    between atoms: C_12  and  C_13
REMARK                            x       y       z     vdW  Elec       q    Type
REMARK                         _______ _______ _______ _____ _____    ______ ____
ROOT
ATOM      1  C   UNL     1      -0.298  11.233  18.763  0.00  0.00    +0.000 C 
ATOM      2  O   UNL     1      -0.439  10.078  18.363  0.00  0.00    +0.000 OA
ATOM      3  N   UNL     1      -1.322  12.136  18.965  0.00  0.00    +0.000 N 
ATOM      4  C   UNL     1      -2.633  11.911  18.531  0.00  0.00    +0.000 A 
ATOM      5  C   UNL     1      -3.662  12.225  19.411  0.00  0.00    +0.000 A 
ATOM      6  C   UNL     1      -4.972  12.027  18.952  0.00  0.00    +0.000 A 
ATOM      7  C   UNL     1      -6.266  12.146  19.537  0.00  0.00    +0.000 A 
ATOM      8  C   UNL     1      -7.193  11.840  18.566  0.00  0.00    +0.000 A 
ATOM      9  N   UNL     1      -6.511  11.530  17.419  0.00  0.00    +0.000 N 
ATOM     10  C   UNL     1      -5.157  11.609  17.637  0.00  0.00    +0.000 A 
ATOM     11  C   UNL     1      -4.087  11.348  16.795  0.00  0.00    +0.000 A 
ATOM     12  N   UNL     1      -2.829  11.479  17.271  0.00  0.00    +0.000 NA
ATOM     13  H   UNL     1      -1.151  12.979  19.491  0.00  0.00    +0.000 HD
ATOM     14  H   UNL     1      -6.939  11.263  16.542  0.00  0.00    +0.000 HD
ENDROOT
BRANCH   1  20
ATOM     15  C   UNL     1       0.859  12.271  20.713  0.00  0.00    +0.000 C 
ATOM     16  O   UNL     1       2.076  12.852  21.206  0.00  0.00    +0.000 OA
ATOM     17  C   UNL     1       2.494  13.965  20.425  0.00  0.00    +0.000 C 
ATOM     18  C   UNL     1       2.787  13.539  18.994  0.00  0.00    +0.000 C 
ATOM     19  C   UNL     1       1.588  12.830  18.371  0.00  0.00    +0.000 C 
ATOM     20  C   UNL     1       1.045  11.726  19.291  0.00  0.00    +0.000 C 
BRANCH  15  26
ATOM     21  C   UNL     1      -1.579  12.294  22.572  0.00  0.00    +0.000 C 
ATOM     22  N   UNL     1      -0.626  11.214  22.476  0.00  0.00    +0.000 N 
ATOM     23  C   UNL     1      -0.691  10.039  23.166  0.00  0.00    +0.000 A 
ATOM     24  C   UNL     1       0.407   9.325  22.759  0.00  0.00    +0.000 A 
ATOM     25  N   UNL     1       1.141  10.035  21.848  0.00  0.00    +0.000 NA
ATOM     26  C   UNL     1       0.501  11.183  21.683  0.00  0.00    +0.000 A 
ENDBRANCH  15  26
ENDBRANCH   1  20
TORSDOF 2
ENDMDL
MODEL 6
REMARK VINA RESULT:      -7.0      1.881      3.528
REMARK  Name = 
REMARK  3 active torsions:
REMARK  status: ('A' for Active; 'I' for Inactive)
REMARK    1  A    between atoms: C_1  and  N_2
REMARK    2  A    between atoms: C_6  and  C_7
REMARK    3  A    between atoms: C_12  and  C_13
REMARK                            x       y       z     vdW  Elec       q    Type
REMARK                         _______ _______ _______ _____ _____    ______ ____
ROOT
ATOM      1  C   UNL     1       3.917   6.436  18.086  0.00  0.00    +0.000 C 
ATOM      2  O   UNL     1       4.620   6.637  19.076  0.00  0.00    +0.000 OA
ATOM      3  N   UNL     1       2.784   7.153  17.756  0.00  0.00    +0.000 N 
ATOM      4  C   UNL     1       2.175   8.061  18.630  0.00  0.00    +0.000 A 
ATOM      5  C   UNL     1       1.761   9.278  18.101  0.00  0.00    +0.000 A 
ATOM      6  C   UNL     1       1.121  10.166  18.979  0.00  0.00    +0.000 A 
ATOM      7  C   UNL     1       0.626  11.497  18.870  0.00  0.00    +0.000 A 
ATOM      8  C   UNL     1       0.066  11.834  20.081  0.00  0.00    +0.000 A 
ATOM      9  N   UNL     1       0.211  10.763  20.924  0.00  0.00    +0.000 N 
ATOM     10  C   UNL     1       0.877   9.746  20.283  0.00  0.00    +0.000 A 
ATOM     11  C   UNL     1       1.282   8.501  20.740  0.00  0.00    +0.000 A 
ATOM     12  N   UNL     1       1.956   7.682  19.903  0.00  0.00    +0.000 NA
ATOM     13  H   UNL     1       2.391   7.071  16.832  0.00  0.00    +0.000 HD
ATOM     14  H   UNL     1      -0.107  10.730  21.883  0.00  0.00    +0.000 HD
ENDROOT
BRANCH   1  20
ATOM     15  C   UNL     1       5.310   4.433  17.575  0.00  0.00    +0.000 C 
ATOM     16  O   UNL     1       5.847   3.584  16.548  0.00  0.00    +0.000 OA
ATOM     17  C   UNL     1       6.627   4.310  15.606  0.00  0.00    +0.000 C 
ATOM     18  C   UNL     1       5.776   5.346  14.886  0.00  0.00    +0.000 C 
ATOM     19  C   UNL     1       5.080   6.274  15.876  0.00  0.00    +0.000 C 
ATOM     20  C   UNL     1       4.363   5.484  16.983  0.00  0.00    +0.000 C 
BRANCH  15  26
ATOM     21  C   UNL     1       2.598   3.099  17.061  0.00  0.00    +0.000 C 
ATOM     22  N   UNL     1       3.398   2.909  18.248  0.00  0.00    +0.000 N 
ATOM     23  C   UNL     1       3.084   2.086  19.289  0.00  0.00    +0.000 A 
ATOM     24  C   UNL     1       4.121   2.222  20.176  0.00  0.00    +0.000 A 
ATOM     25  N   UNL     1       5.051   3.109  19.708  0.00  0.00    +0.000 NA
ATOM     26  C   UNL     1       4.601   3.520  18.532  0.00  0.00    +0.000 A 
ENDBRANCH  15  26
ENDBRANCH   1  20
TORSDOF 2
ENDMDL
MODEL 7
REMARK VINA RESULT:      -7.0      0.835      1.404
REMARK  Name = 
REMARK  3 active torsions:
REMARK  status: ('A' for Active; 'I' for Inactive)
REMARK    1  A    between atoms: C_1  and  N_2
REMARK    2  A    between atoms: C_6  and  C_7
REMARK    3  A    between atoms: C_12  and  C_13
REMARK                            x       y       z     vdW  Elec       q    Type
REMARK                         _______ _______ _______ _____ _____    ______ ____
ROOT
ATOM      1  C   UNL     1       2.616   5.923  19.008  0.00  0.00    +0.000 C 
ATOM      2  O   UNL     1       1.921   5.796  18.001  0.00  0.00    +0.000 OA
ATOM      3  N   UNL     1       2.564   6.991  19.881  0.00  0.00    +0.000 N 
ATOM      4  C   UNL     1       1.859   8.168  19.605  0.00  0.00    +0.000 A 
ATOM      5  C   UNL     1       1.093   8.711  20.630  0.00  0.00    +0.000 A 
ATOM      6  C   UNL     1       0.419   9.909  20.351  0.00  0.00    +0.000 A 
ATOM      7  C   UNL     1      -0.498  10.730  21.067  0.00  0.00    +0.000 A 
ATOM      8  C   UNL     1      -0.798  11.813  20.272  0.00  0.00    +0.000 A 
ATOM      9  N   UNL     1      -0.107  11.675  19.097  0.00  0.00    +0.000 N 
ATOM     10  C   UNL     1       0.619  10.508  19.111  0.00  0.00    +0.000 A 
ATOM     11  C   UNL     1       1.427   9.934  18.142  0.00  0.00    +0.000 A 
ATOM     12  N   UNL     1       2.018   8.746  18.399  0.00  0.00    +0.000 NA
ATOM     13  H   UNL     1       3.004   6.921  20.785  0.00  0.00    +0.000 HD
ATOM     14  H   UNL     1      -0.139  12.325  18.323  0.00  0.00    +0.000 HD
ENDROOT
BRANCH   1  20
ATOM     15  C   UNL     1       3.986   3.954  18.326  0.00  0.00    +0.000 C 
ATOM     16  O   UNL     1       4.710   2.795  18.768  0.00  0.00    +0.000 OA
ATOM     17  C   UNL     1       3.892   1.907  19.521  0.00  0.00    +0.000 C 
ATOM     18  C   UNL     1       3.382   2.585  20.784  0.00  0.00    +0.000 C 
ATOM     19  C   UNL     1       2.654   3.885  20.459  0.00  0.00    +0.000 C 
ATOM     20  C   UNL     1       3.480   4.776  19.519  0.00  0.00    +0.000 C 
BRANCH  15  26
ATOM     21  C   UNL     1       6.495   5.385  19.357  0.00  0.00    +0.000 C 
ATOM     22  N   UNL     1       6.084   5.335  17.973  0.00  0.00    +0.000 N 
ATOM     23  C   UNL     1       6.767   5.881  16.926  0.00  0.00    +0.000 A 
ATOM     24  C   UNL     1       6.014   5.587  15.818  0.00  0.00    +0.000 A 
ATOM     25  N   UNL     1       4.891   4.886  16.163  0.00  0.00    +0.000 NA
ATOM     26  C   UNL     1       4.945   4.737  17.478  0.00  0.00    +0.000 A 
ENDBRANCH  15  26
ENDBRANCH   1  20
TORSDOF 2
ENDMDL
MODEL 8
REMARK VINA RESULT:      -6.9      3.812      6.116
REMARK  Name = 
REMARK  3 active torsions:
REMARK  status: ('A' for Active; 'I' for Inactive)
REMARK    1  A    between atoms: C_1  and  N_2
REMARK    2  A    between atoms: C_6  and  C_7
REMARK    3  A    between atoms: C_12  and  C_13
REMARK                            x       y       z     vdW  Elec       q    Type
REMARK                         _______ _______ _______ _____ _____    ______ ____
ROOT
ATOM      1  C   UNL     1       4.829   3.917  15.968  0.00  0.00    +0.000 C 
ATOM      2  O   UNL     1       3.719   3.860  15.439  0.00  0.00    +0.000 OA
ATOM      3  N   UNL     1       5.072   3.799  17.321  0.00  0.00    +0.000 N 
ATOM      4  C   UNL     1       4.056   3.815  18.283  0.00  0.00    +0.000 A 
ATOM      5  C   UNL     1       4.129   2.879  19.308  0.00  0.00    +0.000 A 
ATOM      6  C   UNL     1       3.124   2.928  20.285  0.00  0.00    +0.000 A 
ATOM      7  C   UNL     1       2.794   2.135  21.421  0.00  0.00    +0.000 A 
ATOM      8  C   UNL     1       1.693   2.703  22.021  0.00  0.00    +0.000 A 
ATOM      9  N   UNL     1       1.336   3.804  21.287  0.00  0.00    +0.000 N 
ATOM     10  C   UNL     1       2.176   3.945  20.208  0.00  0.00    +0.000 A 
ATOM     11  C   UNL     1       2.179   4.873  19.179  0.00  0.00    +0.000 A 
ATOM     12  N   UNL     1       3.114   4.775  18.208  0.00  0.00    +0.000 NA
ATOM     13  H   UNL     1       6.013   3.643  17.649  0.00  0.00    +0.000 HD
ATOM     14  H   UNL     1       0.558   4.415  21.495  0.00  0.00    +0.000 HD
ENDROOT
BRANCH   1  20
ATOM     15  C   UNL     1       6.854   5.231  15.346  0.00  0.00    +0.000 C 
ATOM     16  O   UNL     1       8.002   5.318  14.486  0.00  0.00    +0.000 OA
ATOM     17  C   UNL     1       7.642   5.308  13.109  0.00  0.00    +0.000 C 
ATOM     18  C   UNL     1       6.947   4.004  12.744  0.00  0.00    +0.000 C 
ATOM     19  C   UNL     1       5.742   3.749  13.644  0.00  0.00    +0.000 C 
ATOM     20  C   UNL     1       6.102   3.912  15.129  0.00  0.00    +0.000 C 
BRANCH  15  26
ATOM     21  C   UNL     1       6.563   7.698  17.143  0.00  0.00    +0.000 C 
ATOM     22  N   UNL     1       7.197   6.462  17.536  0.00  0.00    +0.000 N 
ATOM     23  C   UNL     1       7.721   6.200  18.768  0.00  0.00    +0.000 A 
ATOM     24  C   UNL     1       8.206   4.919  18.684  0.00  0.00    +0.000 A 
ATOM     25  N   UNL     1       7.998   4.399  17.436  0.00  0.00    +0.000 NA
ATOM     26  C   UNL     1       7.382   5.348  16.746  0.00  0.00    +0.000 A 
ENDBRANCH  15  26
ENDBRANCH   1  20
TORSDOF 2
ENDMDL
MODEL 9
REMARK VINA RESULT:      -6.8      2.253      6.621
REMARK  Name = 
REMARK  3 active torsions:
REMARK  status: ('A' for Active; 'I' for Inactive)
REMARK    1  A    between atoms: C_1  and  N_2
REMARK    2  A    between atoms: C_6  and  C_7
REMARK    3  A    between atoms: C_12  and  C_13
REMARK                            x       y       z     vdW  Elec       q    Type
REMARK                         _______ _______ _______ _____ _____    ______ ____
ROOT
ATOM      1  C   UNL     1       4.378   4.087  18.282  0.00  0.00    +0.000 C 
ATOM      2  O   UNL     1       5.490   3.918  18.780  0.00  0.00    +0.000 OA
ATOM      3  N   UNL     1       4.129   4.277  16.937  0.00  0.00    +0.000 N 
ATOM      4  C   UNL     1       5.141   4.515  16.001  0.00  0.00    +0.000 A 
ATOM      5  C   UNL     1       5.069   3.835  14.791  0.00  0.00    +0.000 A 
ATOM      6  C   UNL     1       6.070   4.109  13.848  0.00  0.00    +0.000 A 
ATOM      7  C   UNL     1       6.400   3.595  12.561  0.00  0.00    +0.000 A 
ATOM      8  C   UNL     1       7.495   4.290  12.102  0.00  0.00    +0.000 A 
ATOM      9  N   UNL     1       7.850   5.198  13.064  0.00  0.00    +0.000 N 
ATOM     10  C   UNL     1       7.013   5.087  14.149  0.00  0.00    +0.000 A 
ATOM     11  C   UNL     1       7.010   5.759  15.362  0.00  0.00    +0.000 A 
ATOM     12  N   UNL     1       6.079   5.439  16.288  0.00  0.00    +0.000 NA
ATOM     13  H   UNL     1       3.188   4.193  16.585  0.00  0.00    +0.000 HD
ATOM     14  H   UNL     1       8.624   5.845  12.998  0.00  0.00    +0.000 HD
ENDROOT
BRANCH   1  20
ATOM     15  C   UNL     1       2.923   5.078  20.047  0.00  0.00    +0.000 C 
ATOM     16  O   UNL     1       1.801   4.875  20.921  0.00  0.00    +0.000 OA
ATOM     17  C   UNL     1       1.977   3.744  21.765  0.00  0.00    +0.000 C 
ATOM     18  C   UNL     1       2.098   2.470  20.942  0.00  0.00    +0.000 C 
ATOM     19  C   UNL     1       3.216   2.584  19.910  0.00  0.00    +0.000 C 
ATOM     20  C   UNL     1       3.108   3.886  19.101  0.00  0.00    +0.000 C 
BRANCH  15  26
ATOM     21  C   UNL     1       1.523   7.544  21.215  0.00  0.00    +0.000 C 
ATOM     22  N   UNL     1       2.035   7.447  19.868  0.00  0.00    +0.000 N 
ATOM     23  C   UNL     1       2.005   8.444  18.938  0.00  0.00    +0.000 A 
ATOM     24  C   UNL     1       2.598   7.909  17.822  0.00  0.00    +0.000 A 
ATOM     25  N   UNL     1       2.980   6.615  18.046  0.00  0.00    +0.000 NA
ATOM     26  C   UNL     1       2.633   6.345  19.296  0.00  0.00    +0.000 A 
ENDBRANCH  15  26
ENDBRANCH   1  20
TORSDOF 2
ENDMDL
