MODEL 1
REMARK VINA RESULT:      -8.9      0.000      0.000
REMARK  Name = 
REMARK  2 active torsions:
REMARK  status: ('A' for Active; 'I' for Inactive)
REMARK    1  A    between atoms: C_6  and  C_7
REMARK    2  A    between atoms: C_6  and  C_14
REMARK                            x       y       z     vdW  Elec       q    Type
REMARK                         _______ _______ _______ _____ _____    ______ ____
ROOT
ATOM      1  O   UNL     1       5.202   1.459  20.603  0.00  0.00    +0.000 OA
ATOM      2  C   UNL     1       4.685   2.092  19.703  0.00  0.00    +0.000 C 
ATOM      3  N   UNL     1       3.707   1.660  18.884  0.00  0.00    +0.000 N 
ATOM      4  C   UNL     1       3.350   2.643  18.008  0.00  0.00    +0.000 C 
ATOM      5  O   UNL     1       2.469   2.501  17.165  0.00  0.00    +0.000 OA
ATOM      6  C   UNL     1       4.235   3.908  18.253  0.00  0.00    +0.000 C 
ATOM      7  N   UNL     1       5.006   3.375  19.371  0.00  0.00    +0.000 N 
ATOM      8  H   UNL     1       3.299   0.744  18.925  0.00  0.00    +0.000 HD
ATOM      9  H   UNL     1       5.741   3.862  19.860  0.00  0.00    +0.000 HD
ENDROOT
BRANCH   6  10
ATOM     10  C   UNL     1       3.403   5.134  18.665  0.00  0.00    +0.000 A 
ATOM     11  C   UNL     1       2.684   5.172  19.878  0.00  0.00    +0.000 A 
ATOM     12  C   UNL     1       2.064   6.347  20.313  0.00  0.00    +0.000 A 
ATOM     13  C   UNL     1       2.137   7.490  19.533  0.00  0.00    +0.000 A 
ATOM     14  F   UNL     1       1.585   8.627  19.976  0.00  0.00    +0.000 F 
ATOM     15  C   UNL     1       2.781   7.470  18.304  0.00  0.00    +0.000 A 
ATOM     16  C   UNL     1       3.404   6.297  17.867  0.00  0.00    +0.000 A 
ENDBRANCH   6  10
BRANCH   6  17
ATOM     17  C   UNL     1       5.193   4.232  17.089  0.00  0.00    +0.000 A 
ATOM     18  C   UNL     1       6.522   4.649  17.301  0.00  0.00    +0.000 A 
ATOM     19  C   UNL     1       7.361   4.958  16.224  0.00  0.00    +0.000 A 
ATOM     20  C   UNL     1       6.886   4.842  14.926  0.00  0.00    +0.000 A 
ATOM     21  F   UNL     1       7.684   5.161  13.898  0.00  0.00    +0.000 F 
ATOM     22  C   UNL     1       5.599   4.392  14.679  0.00  0.00    +0.000 A 
ATOM     23  C   UNL     1       4.762   4.074  15.752  0.00  0.00    +0.000 A 
ENDBRANCH   6  17
TORSDOF 2
ENDMDL
MODEL 2
REMARK VINA RESULT:      -8.9      0.108      1.058
REMARK  Name = 
REMARK  2 active torsions:
REMARK  status: ('A' for Active; 'I' for Inactive)
REMARK    1  A    between atoms: C_6  and  C_7
REMARK    2  A    between atoms: C_6  and  C_14
REMARK                            x       y       z     vdW  Elec       q    Type
REMARK                         _______ _______ _______ _____ _____    ______ ____
ROOT
ATOM      1  O   UNL     1       5.242   1.406  20.592  0.00  0.00    +0.000 OA
ATOM      2  C   UNL     1       4.702   2.045  19.709  0.00  0.00    +0.000 C 
ATOM      3  N   UNL     1       3.718   1.611  18.898  0.00  0.00    +0.000 N 
ATOM      4  C   UNL     1       3.334   2.603  18.043  0.00  0.00    +0.000 C 
ATOM      5  O   UNL     1       2.442   2.461  17.212  0.00  0.00    +0.000 OA
ATOM      6  C   UNL     1       4.205   3.876  18.294  0.00  0.00    +0.000 C 
ATOM      7  N   UNL     1       5.001   3.337  19.392  0.00  0.00    +0.000 N 
ATOM      8  H   UNL     1       3.323   0.689  18.931  0.00  0.00    +0.000 HD
ATOM      9  H   UNL     1       5.736   3.827  19.877  0.00  0.00    +0.000 HD
ENDROOT
BRANCH   6  10
ATOM     10  C   UNL     1       3.362   5.084  18.737  0.00  0.00    +0.000 A 
ATOM     11  C   UNL     1       2.660   5.092  19.960  0.00  0.00    +0.000 A 
ATOM     12  C   UNL     1       2.030   6.251  20.423  0.00  0.00    +0.000 A 
ATOM     13  C   UNL     1       2.077   7.407  19.661  0.00  0.00    +0.000 A 
ATOM     14  F   UNL     1       1.516   8.530  20.130  0.00  0.00    +0.000 F 
ATOM     15  C   UNL     1       2.705   7.417  18.423  0.00  0.00    +0.000 A 
ATOM     16  C   UNL     1       3.337   6.260  17.959  0.00  0.00    +0.000 A 
ENDBRANCH   6  10
BRANCH   6  17
ATOM     17  C   UNL     1       5.140   4.230  17.121  0.00  0.00    +0.000 A 
ATOM     18  C   UNL     1       4.721   4.170  15.777  0.00  0.00    +0.000 A 
ATOM     19  C   UNL     1       5.601   4.475  14.733  0.00  0.00    +0.000 A 
ATOM     20  C   UNL     1       6.904   4.855  15.018  0.00  0.00    +0.000 A 
ATOM     21  F   UNL     1       7.750   5.124  14.016  0.00  0.00    +0.000 F 
ATOM     22  C   UNL     1       7.338   4.968  16.330  0.00  0.00    +0.000 A 
ATOM     23  C   UNL     1       6.459   4.673  17.375  0.00  0.00    +0.000 A 
ENDBRANCH   6  17
TORSDOF 2
ENDMDL
MODEL 3
REMARK VINA RESULT:      -8.9      0.258      1.511
REMARK  Name = 
REMARK  2 active torsions:
REMARK  status: ('A' for Active; 'I' for Inactive)
REMARK    1  A    between atoms: C_6  and  C_7
REMARK    2  A    between atoms: C_6  and  C_14
REMARK                            x       y       z     vdW  Elec       q    Type
REMARK                         _______ _______ _______ _____ _____    ______ ____
ROOT
ATOM      1  O   UNL     1       5.060   1.549  20.488  0.00  0.00    +0.000 OA
ATOM      2  C   UNL     1       4.569   2.243  19.619  0.00  0.00    +0.000 C 
ATOM      3  N   UNL     1       3.513   1.924  18.844  0.00  0.00    +0.000 N 
ATOM      4  C   UNL     1       3.219   2.950  17.995  0.00  0.00    +0.000 C 
ATOM      5  O   UNL     1       2.289   2.910  17.195  0.00  0.00    +0.000 OA
ATOM      6  C   UNL     1       4.240   4.114  18.206  0.00  0.00    +0.000 C 
ATOM      7  N   UNL     1       5.005   3.490  19.281  0.00  0.00    +0.000 N 
ATOM      8  H   UNL     1       3.015   1.055  18.898  0.00  0.00    +0.000 HD
ATOM      9  H   UNL     1       5.808   3.893  19.738  0.00  0.00    +0.000 HD
ENDROOT
BRANCH   6  10
ATOM     10  C   UNL     1       3.559   5.414  18.667  0.00  0.00    +0.000 A 
ATOM     11  C   UNL     1       3.557   6.576  17.868  0.00  0.00    +0.000 A 
ATOM     12  C   UNL     1       2.801   7.696  18.226  0.00  0.00    +0.000 A 
ATOM     13  C   UNL     1       2.057   7.676  19.394  0.00  0.00    +0.000 A 
ATOM     14  F   UNL     1       1.294   8.731  19.709  0.00  0.00    +0.000 F 
ATOM     15  C   UNL     1       2.087   6.573  20.236  0.00  0.00    +0.000 A 
ATOM     16  C   UNL     1       2.840   5.450  19.880  0.00  0.00    +0.000 A 
ENDBRANCH   6  10
BRANCH   6  17
ATOM     17  C   UNL     1       5.171   4.352  17.000  0.00  0.00    +0.000 A 
ATOM     18  C   UNL     1       4.720   4.250  15.669  0.00  0.00    +0.000 A 
ATOM     19  C   UNL     1       5.595   4.448  14.594  0.00  0.00    +0.000 A 
ATOM     20  C   UNL     1       6.923   4.763  14.837  0.00  0.00    +0.000 A 
ATOM     21  F   UNL     1       7.763   4.930  13.807  0.00  0.00    +0.000 F 
ATOM     22  C   UNL     1       7.391   4.915  16.133  0.00  0.00    +0.000 A 
ATOM     23  C   UNL     1       6.518   4.727  17.207  0.00  0.00    +0.000 A 
ENDBRANCH   6  17
TORSDOF 2
ENDMDL
MODEL 4
REMARK VINA RESULT:      -8.9      2.053      2.869
REMARK  Name = 
REMARK  2 active torsions:
REMARK  status: ('A' for Active; 'I' for Inactive)
REMARK    1  A    between atoms: C_6  and  C_7
REMARK    2  A    between atoms: C_6  and  C_14
REMARK                            x       y       z     vdW  Elec       q    Type
REMARK                         _______ _______ _______ _____ _____    ______ ____
ROOT
ATOM      1  O   UNL     1       1.973   3.288  22.059  0.00  0.00    +0.000 OA
ATOM      2  C   UNL     1       2.066   3.810  20.965  0.00  0.00    +0.000 C 
ATOM      3  N   UNL     1       1.354   3.493  19.866  0.00  0.00    +0.000 N 
ATOM      4  C   UNL     1       1.702   4.301  18.823  0.00  0.00    +0.000 C 
ATOM      5  O   UNL     1       1.185   4.221  17.713  0.00  0.00    +0.000 OA
ATOM      6  C   UNL     1       2.831   5.283  19.276  0.00  0.00    +0.000 C 
ATOM      7  N   UNL     1       2.916   4.832  20.661  0.00  0.00    +0.000 N 
ATOM      8  H   UNL     1       0.661   2.768  19.831  0.00  0.00    +0.000 HD
ATOM      9  H   UNL     1       3.553   5.191  21.355  0.00  0.00    +0.000 HD
ENDROOT
BRANCH   6  10
ATOM     10  C   UNL     1       2.400   6.756  19.178  0.00  0.00    +0.000 A 
ATOM     11  C   UNL     1       2.451   7.466  17.961  0.00  0.00    +0.000 A 
ATOM     12  C   UNL     1       1.909   8.750  17.851  0.00  0.00    +0.000 A 
ATOM     13  C   UNL     1       1.329   9.346  18.959  0.00  0.00    +0.000 A 
ATOM     14  F   UNL     1       0.765  10.555  18.839  0.00  0.00    +0.000 F 
ATOM     15  C   UNL     1       1.318   8.701  20.189  0.00  0.00    +0.000 A 
ATOM     16  C   UNL     1       1.858   7.416  20.300  0.00  0.00    +0.000 A 
ENDBRANCH   6  10
BRANCH   6  17
ATOM     17  C   UNL     1       4.185   5.035  18.582  0.00  0.00    +0.000 A 
ATOM     18  C   UNL     1       4.281   4.458  17.300  0.00  0.00    +0.000 A 
ATOM     19  C   UNL     1       5.527   4.223  16.707  0.00  0.00    +0.000 A 
ATOM     20  C   UNL     1       6.688   4.575  17.379  0.00  0.00    +0.000 A 
ATOM     21  F   UNL     1       7.879   4.328  16.818  0.00  0.00    +0.000 F 
ATOM     22  C   UNL     1       6.630   5.185  18.622  0.00  0.00    +0.000 A 
ATOM     23  C   UNL     1       5.388   5.428  19.214  0.00  0.00    +0.000 A 
ENDBRANCH   6  17
TORSDOF 2
ENDMDL
MODEL 5
REMARK VINA RESULT:      -8.8      0.412      1.130
REMARK  Name = 
REMARK  2 active torsions:
REMARK  status: ('A' for Active; 'I' for Inactive)
REMARK    1  A    between atoms: C_6  and  C_7
REMARK    2  A    between atoms: C_6  and  C_14
REMARK                            x       y       z     vdW  Elec       q    Type
REMARK                         _______ _______ _______ _____ _____    ______ ____
ROOT
ATOM      1  O   UNL     1       4.964   1.754  20.590  0.00  0.00    +0.000 OA
ATOM      2  C   UNL     1       4.514   2.423  19.680  0.00  0.00    +0.000 C 
ATOM      3  N   UNL     1       3.476   2.096  18.886  0.00  0.00    +0.000 N 
ATOM      4  C   UNL     1       3.230   3.093  17.989  0.00  0.00    +0.000 C 
ATOM      5  O   UNL     1       2.323   3.041  17.163  0.00  0.00    +0.000 OA
ATOM      6  C   UNL     1       4.270   4.243  18.186  0.00  0.00    +0.000 C 
ATOM      7  N   UNL     1       4.988   3.646  19.307  0.00  0.00    +0.000 N 
ATOM      8  H   UNL     1       2.957   1.240  18.959  0.00  0.00    +0.000 HD
ATOM      9  H   UNL     1       5.786   4.050  19.772  0.00  0.00    +0.000 HD
ENDROOT
BRANCH   6  10
ATOM     10  C   UNL     1       3.605   5.574  18.574  0.00  0.00    +0.000 A 
ATOM     11  C   UNL     1       3.598   6.684  17.704  0.00  0.00    +0.000 A 
ATOM     12  C   UNL     1       2.855   7.830  18.002  0.00  0.00    +0.000 A 
ATOM     13  C   UNL     1       2.128   7.889  19.180  0.00  0.00    +0.000 A 
ATOM     14  F   UNL     1       1.378   8.967  19.439  0.00  0.00    +0.000 F 
ATOM     15  C   UNL     1       2.164   6.840  20.089  0.00  0.00    +0.000 A 
ATOM     16  C   UNL     1       2.904   5.692  19.792  0.00  0.00    +0.000 A 
ENDBRANCH   6  10
BRANCH   6  17
ATOM     17  C   UNL     1       5.241   4.413  17.000  0.00  0.00    +0.000 A 
ATOM     18  C   UNL     1       6.609   4.700  17.181  0.00  0.00    +0.000 A 
ATOM     19  C   UNL     1       7.460   4.872  16.083  0.00  0.00    +0.000 A 
ATOM     20  C   UNL     1       6.959   4.747  14.796  0.00  0.00    +0.000 A 
ATOM     21  F   UNL     1       7.771   4.936  13.748  0.00  0.00    +0.000 F 
ATOM     22  C   UNL     1       5.629   4.423  14.582  0.00  0.00    +0.000 A 
ATOM     23  C   UNL     1       4.778   4.241  15.675  0.00  0.00    +0.000 A 
ENDBRANCH   6  17
TORSDOF 2
ENDMDL
MODEL 6
REMARK VINA RESULT:      -8.8      2.015      2.644
REMARK  Name = 
REMARK  2 active torsions:
REMARK  status: ('A' for Active; 'I' for Inactive)
REMARK    1  A    between atoms: C_6  and  C_7
REMARK    2  A    between atoms: C_6  and  C_14
REMARK                            x       y       z     vdW  Elec       q    Type
REMARK                         _______ _______ _______ _____ _____    ______ ____
ROOT
ATOM      1  O   UNL     1       1.994   3.284  22.070  0.00  0.00    +0.000 OA
ATOM      2  C   UNL     1       2.082   3.804  20.974  0.00  0.00    +0.000 C 
ATOM      3  N   UNL     1       1.361   3.489  19.881  0.00  0.00    +0.000 N 
ATOM      4  C   UNL     1       1.705   4.294  18.835  0.00  0.00    +0.000 C 
ATOM      5  O   UNL     1       1.180   4.214  17.728  0.00  0.00    +0.000 OA
ATOM      6  C   UNL     1       2.843   5.270  19.278  0.00  0.00    +0.000 C 
ATOM      7  N   UNL     1       2.935   4.821  20.663  0.00  0.00    +0.000 N 
ATOM      8  H   UNL     1       0.664   2.767  19.852  0.00  0.00    +0.000 HD
ATOM      9  H   UNL     1       3.579   5.178  21.352  0.00  0.00    +0.000 HD
ENDROOT
BRANCH   6  10
ATOM     10  C   UNL     1       2.418   6.745  19.181  0.00  0.00    +0.000 A 
ATOM     11  C   UNL     1       2.508   7.467  17.973  0.00  0.00    +0.000 A 
ATOM     12  C   UNL     1       1.973   8.753  17.859  0.00  0.00    +0.000 A 
ATOM     13  C   UNL     1       1.360   9.340  18.955  0.00  0.00    +0.000 A 
ATOM     14  F   UNL     1       0.803  10.551  18.829  0.00  0.00    +0.000 F 
ATOM     15  C   UNL     1       1.310   8.683  20.177  0.00  0.00    +0.000 A 
ATOM     16  C   UNL     1       1.843   7.396  20.293  0.00  0.00    +0.000 A 
ENDBRANCH   6  10
BRANCH   6  17
ATOM     17  C   UNL     1       4.191   5.015  18.575  0.00  0.00    +0.000 A 
ATOM     18  C   UNL     1       5.425   5.351  19.166  0.00  0.00    +0.000 A 
ATOM     19  C   UNL     1       6.631   5.129  18.491  0.00  0.00    +0.000 A 
ATOM     20  C   UNL     1       6.619   4.558  17.228  0.00  0.00    +0.000 A 
ATOM     21  F   UNL     1       7.773   4.367  16.576  0.00  0.00    +0.000 F 
ATOM     22  C   UNL     1       5.426   4.174  16.635  0.00  0.00    +0.000 A 
ATOM     23  C   UNL     1       4.221   4.386  17.309  0.00  0.00    +0.000 A 
ENDBRANCH   6  17
TORSDOF 2
ENDMDL
MODEL 7
REMARK VINA RESULT:      -8.6      1.975      2.602
REMARK  Name = 
REMARK  2 active torsions:
REMARK  status: ('A' for Active; 'I' for Inactive)
REMARK    1  A    between atoms: C_6  and  C_7
REMARK    2  A    between atoms: C_6  and  C_14
REMARK                            x       y       z     vdW  Elec       q    Type
REMARK                         _______ _______ _______ _____ _____    ______ ____
ROOT
ATOM      1  O   UNL     1       2.072   3.064  22.135  0.00  0.00    +0.000 OA
ATOM      2  C   UNL     1       2.106   3.581  21.035  0.00  0.00    +0.000 C 
ATOM      3  N   UNL     1       1.382   3.216  19.959  0.00  0.00    +0.000 N 
ATOM      4  C   UNL     1       1.657   4.033  18.901  0.00  0.00    +0.000 C 
ATOM      5  O   UNL     1       1.115   3.915  17.807  0.00  0.00    +0.000 OA
ATOM      6  C   UNL     1       2.744   5.077  19.315  0.00  0.00    +0.000 C 
ATOM      7  N   UNL     1       2.892   4.644  20.701  0.00  0.00    +0.000 N 
ATOM      8  H   UNL     1       0.728   2.455  19.949  0.00  0.00    +0.000 HD
ATOM      9  H   UNL     1       3.527   5.042  21.374  0.00  0.00    +0.000 HD
ENDROOT
BRANCH   6  10
ATOM     10  C   UNL     1       2.233   6.524  19.219  0.00  0.00    +0.000 A 
ATOM     11  C   UNL     1       1.702   7.201  20.336  0.00  0.00    +0.000 A 
ATOM     12  C   UNL     1       1.389   8.562  20.274  0.00  0.00    +0.000 A 
ATOM     13  C   UNL     1       1.584   9.257  19.091  0.00  0.00    +0.000 A 
ATOM     14  F   UNL     1       1.332  10.571  19.048  0.00  0.00    +0.000 F 
ATOM     15  C   UNL     1       2.045   8.607  17.954  0.00  0.00    +0.000 A 
ATOM     16  C   UNL     1       2.360   7.246  18.014  0.00  0.00    +0.000 A 
ENDBRANCH   6  10
BRANCH   6  17
ATOM     17  C   UNL     1       4.090   4.896  18.585  0.00  0.00    +0.000 A 
ATOM     18  C   UNL     1       4.179   4.335  17.296  0.00  0.00    +0.000 A 
ATOM     19  C   UNL     1       5.418   4.161  16.669  0.00  0.00    +0.000 A 
ATOM     20  C   UNL     1       6.579   4.557  17.316  0.00  0.00    +0.000 A 
ATOM     21  F   UNL     1       7.765   4.369  16.723  0.00  0.00    +0.000 F 
ATOM     22  C   UNL     1       6.526   5.153  18.566  0.00  0.00    +0.000 A 
ATOM     23  C   UNL     1       5.289   5.336  19.191  0.00  0.00    +0.000 A 
ENDBRANCH   6  17
TORSDOF 2
ENDMDL
MODEL 8
REMARK VINA RESULT:      -8.5      1.987      2.419
REMARK  Name = 
REMARK  2 active torsions:
REMARK  status: ('A' for Active; 'I' for Inactive)
REMARK    1  A    between atoms: C_6  and  C_7
REMARK    2  A    between atoms: C_6  and  C_14
REMARK                            x       y       z     vdW  Elec       q    Type
REMARK                         _______ _______ _______ _____ _____    ______ ____
ROOT
ATOM      1  O   UNL     1       1.794   2.855  21.976  0.00  0.00    +0.000 OA
ATOM      2  C   UNL     1       1.902   3.427  20.909  0.00  0.00    +0.000 C 
ATOM      3  N   UNL     1       1.239   3.132  19.774  0.00  0.00    +0.000 N 
ATOM      4  C   UNL     1       1.590   3.997  18.779  0.00  0.00    +0.000 C 
ATOM      5  O   UNL     1       1.113   3.945  17.649  0.00  0.00    +0.000 OA
ATOM      6  C   UNL     1       2.665   4.999  19.311  0.00  0.00    +0.000 C 
ATOM      7  N   UNL     1       2.722   4.492  20.678  0.00  0.00    +0.000 N 
ATOM      8  H   UNL     1       0.577   2.384  19.685  0.00  0.00    +0.000 HD
ATOM      9  H   UNL     1       3.321   4.844  21.408  0.00  0.00    +0.000 HD
ENDROOT
BRANCH   6  10
ATOM     10  C   UNL     1       2.181   6.458  19.261  0.00  0.00    +0.000 A 
ATOM     11  C   UNL     1       1.698   7.121  20.408  0.00  0.00    +0.000 A 
ATOM     12  C   UNL     1       1.412   8.489  20.385  0.00  0.00    +0.000 A 
ATOM     13  C   UNL     1       1.585   9.205  19.211  0.00  0.00    +0.000 A 
ATOM     14  F   UNL     1       1.359  10.525  19.204  0.00  0.00    +0.000 F 
ATOM     15  C   UNL     1       1.998   8.571  18.047  0.00  0.00    +0.000 A 
ATOM     16  C   UNL     1       2.287   7.204  18.069  0.00  0.00    +0.000 A 
ENDBRANCH   6  10
BRANCH   6  17
ATOM     17  C   UNL     1       4.050   4.833  18.654  0.00  0.00    +0.000 A 
ATOM     18  C   UNL     1       5.236   5.271  19.275  0.00  0.00    +0.000 A 
ATOM     19  C   UNL     1       6.476   5.128  18.642  0.00  0.00    +0.000 A 
ATOM     20  C   UNL     1       6.546   4.534  17.391  0.00  0.00    +0.000 A 
ATOM     21  F   UNL     1       7.732   4.418  16.778  0.00  0.00    +0.000 F 
ATOM     22  C   UNL     1       5.405   4.051  16.770  0.00  0.00    +0.000 A 
ATOM     23  C   UNL     1       4.167   4.185  17.403  0.00  0.00    +0.000 A 
ENDBRANCH   6  17
TORSDOF 2
ENDMDL
MODEL 9
REMARK VINA RESULT:      -8.4      2.796      5.723
REMARK  Name = 
REMARK  2 active torsions:
REMARK  status: ('A' for Active; 'I' for Inactive)
REMARK    1  A    between atoms: C_6  and  C_7
REMARK    2  A    between atoms: C_6  and  C_14
REMARK                            x       y       z     vdW  Elec       q    Type
REMARK                         _______ _______ _______ _____ _____    ______ ____
ROOT
ATOM      1  O   UNL     1       7.580   5.182  20.015  0.00  0.00    +0.000 OA
ATOM      2  C   UNL     1       6.753   5.305  19.132  0.00  0.00    +0.000 C 
ATOM      3  N   UNL     1       6.162   6.452  18.746  0.00  0.00    +0.000 N 
ATOM      4  C   UNL     1       5.306   6.222  17.709  0.00  0.00    +0.000 C 
ATOM      5  O   UNL     1       4.655   7.111  17.169  0.00  0.00    +0.000 OA
ATOM      6  C   UNL     1       5.297   4.696  17.368  0.00  0.00    +0.000 C 
ATOM      7  N   UNL     1       6.283   4.284  18.361  0.00  0.00    +0.000 N 
ATOM      8  H   UNL     1       6.339   7.347  19.164  0.00  0.00    +0.000 HD
ATOM      9  H   UNL     1       6.593   3.338  18.520  0.00  0.00    +0.000 HD
ENDROOT
BRANCH   6  10
ATOM     10  C   UNL     1       5.776   4.415  15.934  0.00  0.00    +0.000 A 
ATOM     11  C   UNL     1       4.932   3.825  14.970  0.00  0.00    +0.000 A 
ATOM     12  C   UNL     1       5.325   3.721  13.633  0.00  0.00    +0.000 A 
ATOM     13  C   UNL     1       6.572   4.186  13.247  0.00  0.00    +0.000 A 
ATOM     14  F   UNL     1       6.926   4.132  11.957  0.00  0.00    +0.000 F 
ATOM     15  C   UNL     1       7.453   4.715  14.181  0.00  0.00    +0.000 A 
ATOM     16  C   UNL     1       7.061   4.822  15.519  0.00  0.00    +0.000 A 
ENDBRANCH   6  10
BRANCH   6  17
ATOM     17  C   UNL     1       3.955   4.000  17.670  0.00  0.00    +0.000 A 
ATOM     18  C   UNL     1       2.727   4.689  17.653  0.00  0.00    +0.000 A 
ATOM     19  C   UNL     1       1.528   4.034  17.956  0.00  0.00    +0.000 A 
ATOM     20  C   UNL     1       1.541   2.682  18.266  0.00  0.00    +0.000 A 
ATOM     21  F   UNL     1       0.395   2.063  18.578  0.00  0.00    +0.000 F 
ATOM     22  C   UNL     1       2.725   1.962  18.250  0.00  0.00    +0.000 A 
ATOM     23  C   UNL     1       3.923   2.612  17.939  0.00  0.00    +0.000 A 
ENDBRANCH   6  17
TORSDOF 2
ENDMDL
