MODEL 1
REMARK VINA RESULT:      -6.7      0.000      0.000
REMARK  Name = 
REMARK  0 active torsions:
REMARK  status: ('A' for Active; 'I' for Inactive)
REMARK                            x       y       z     vdW  Elec       q    Type
REMARK                         _______ _______ _______ _____ _____    ______ ____
ROOT
ATOM      1 CL   UNL     1       7.999   8.357  17.481  0.00  0.00    +0.000 Cl
ATOM      2  C   UNL     1       7.017   6.982  17.743  0.00  0.00    +0.000 A 
ATOM      3  C   UNL     1       7.474   5.885  18.434  0.00  0.00    +0.000 A 
ATOM      4  C   UNL     1       6.596   4.817  18.617  0.00  0.00    +0.000 A 
ATOM      5  C   UNL     1       5.301   4.864  18.100  0.00  0.00    +0.000 A 
ATOM      6  N   UNL     1       4.409   3.812  18.277  0.00  0.00    +0.000 N 
ATOM      7  C   UNL     1       3.350   3.645  17.289  0.00  0.00    +0.000 C 
ATOM      8  C   UNL     1       2.079   4.403  17.666  0.00  0.00    +0.000 C 
ATOM      9  C   UNL     1       1.253   3.725  18.756  0.00  0.00    +0.000 C 
ATOM     10  C   UNL     1       1.996   3.502  20.070  0.00  0.00    +0.000 C 
ATOM     11  C   UNL     1       3.109   2.459  19.955  0.00  0.00    +0.000 C 
ATOM     12  C   UNL     1       4.453   3.027  19.506  0.00  0.00    +0.000 C 
ATOM     13  N   UNL     1       4.929   5.961  17.399  0.00  0.00    +0.000 NA
ATOM     14  N   UNL     1       5.779   7.038  17.229  0.00  0.00    +0.000 NA
ENDROOT
TORSDOF 0
ENDMDL
MODEL 2
REMARK VINA RESULT:      -6.5      1.723      2.639
REMARK  Name = 
REMARK  0 active torsions:
REMARK  status: ('A' for Active; 'I' for Inactive)
REMARK                            x       y       z     vdW  Elec       q    Type
REMARK                         _______ _______ _______ _____ _____    ______ ____
ROOT
ATOM      1 CL   UNL     1       7.689   6.589  17.572  0.00  0.00    +0.000 Cl
ATOM      2  C   UNL     1       6.095   6.073  17.911  0.00  0.00    +0.000 A 
ATOM      3  C   UNL     1       5.156   5.918  16.918  0.00  0.00    +0.000 A 
ATOM      4  C   UNL     1       3.887   5.473  17.285  0.00  0.00    +0.000 A 
ATOM      5  C   UNL     1       3.583   5.208  18.620  0.00  0.00    +0.000 A 
ATOM      6  N   UNL     1       2.325   4.758  19.005  0.00  0.00    +0.000 N 
ATOM      7  C   UNL     1       1.887   5.045  20.366  0.00  0.00    +0.000 C 
ATOM      8  C   UNL     1       2.263   3.934  21.344  0.00  0.00    +0.000 C 
ATOM      9  C   UNL     1       1.372   2.699  21.252  0.00  0.00    +0.000 C 
ATOM     10  C   UNL     1       1.345   2.036  19.878  0.00  0.00    +0.000 C 
ATOM     11  C   UNL     1       0.647   2.890  18.818  0.00  0.00    +0.000 C 
ATOM     12  C   UNL     1       1.567   3.886  18.115  0.00  0.00    +0.000 C 
ATOM     13  N   UNL     1       4.545   5.416  19.550  0.00  0.00    +0.000 NA
ATOM     14  N   UNL     1       5.816   5.834  19.201  0.00  0.00    +0.000 NA
ENDROOT
TORSDOF 0
ENDMDL
MODEL 3
REMARK VINA RESULT:      -6.4      2.325      2.796
REMARK  Name = 
REMARK  0 active torsions:
REMARK  status: ('A' for Active; 'I' for Inactive)
REMARK                            x       y       z     vdW  Elec       q    Type
REMARK                         _______ _______ _______ _____ _____    ______ ____
ROOT
ATOM      1 CL   UNL     1       6.497   4.903  14.077  0.00  0.00    +0.000 Cl
ATOM      2  C   UNL     1       5.746   4.872  15.613  0.00  0.00    +0.000 A 
ATOM      3  C   UNL     1       5.582   6.012  16.363  0.00  0.00    +0.000 A 
ATOM      4  C   UNL     1       4.940   5.896  17.596  0.00  0.00    +0.000 A 
ATOM      5  C   UNL     1       4.493   4.655  18.050  0.00  0.00    +0.000 A 
ATOM      6  N   UNL     1       3.846   4.519  19.273  0.00  0.00    +0.000 N 
ATOM      7  C   UNL     1       3.922   3.226  19.943  0.00  0.00    +0.000 C 
ATOM      8  C   UNL     1       2.768   2.303  19.559  0.00  0.00    +0.000 C 
ATOM      9  C   UNL     1       1.446   2.646  20.240  0.00  0.00    +0.000 C 
ATOM     10  C   UNL     1       0.941   4.060  19.969  0.00  0.00    +0.000 C 
ATOM     11  C   UNL     1       1.810   5.138  20.620  0.00  0.00    +0.000 C 
ATOM     12  C   UNL     1       2.986   5.593  19.759  0.00  0.00    +0.000 C 
ATOM     13  N   UNL     1       4.719   3.568  17.276  0.00  0.00    +0.000 NA
ATOM     14  N   UNL     1       5.333   3.670  16.041  0.00  0.00    +0.000 NA
ENDROOT
TORSDOF 0
ENDMDL
MODEL 4
REMARK VINA RESULT:      -6.4      2.383      2.913
REMARK  Name = 
REMARK  0 active torsions:
REMARK  status: ('A' for Active; 'I' for Inactive)
REMARK                            x       y       z     vdW  Elec       q    Type
REMARK                         _______ _______ _______ _____ _____    ______ ____
ROOT
ATOM      1 CL   UNL     1       7.110   5.040  13.644  0.00  0.00    +0.000 Cl
ATOM      2  C   UNL     1       6.121   4.906  15.032  0.00  0.00    +0.000 A 
ATOM      3  C   UNL     1       5.497   5.999  15.586  0.00  0.00    +0.000 A 
ATOM      4  C   UNL     1       4.693   5.793  16.707  0.00  0.00    +0.000 A 
ATOM      5  C   UNL     1       4.543   4.516  17.250  0.00  0.00    +0.000 A 
ATOM      6  N   UNL     1       3.742   4.289  18.363  0.00  0.00    +0.000 N 
ATOM      7  C   UNL     1       4.058   3.142  19.206  0.00  0.00    +0.000 C 
ATOM      8  C   UNL     1       3.313   1.881  18.775  0.00  0.00    +0.000 C 
ATOM      9  C   UNL     1       1.844   1.857  19.186  0.00  0.00    +0.000 C 
ATOM     10  C   UNL     1       1.014   3.020  18.650  0.00  0.00    +0.000 C 
ATOM     11  C   UNL     1       1.396   4.362  19.276  0.00  0.00    +0.000 C 
ATOM     12  C   UNL     1       2.534   5.084  18.557  0.00  0.00    +0.000 C 
ATOM     13  N   UNL     1       5.216   3.491  16.675  0.00  0.00    +0.000 NA
ATOM     14  N   UNL     1       5.998   3.675  15.549  0.00  0.00    +0.000 NA
ENDROOT
TORSDOF 0
ENDMDL
MODEL 5
REMARK VINA RESULT:      -6.3      2.080      2.329
REMARK  Name = 
REMARK  0 active torsions:
REMARK  status: ('A' for Active; 'I' for Inactive)
REMARK                            x       y       z     vdW  Elec       q    Type
REMARK                         _______ _______ _______ _____ _____    ______ ____
ROOT
ATOM      1 CL   UNL     1       7.179   5.076  14.888  0.00  0.00    +0.000 Cl
ATOM      2  C   UNL     1       6.247   4.626  16.250  0.00  0.00    +0.000 A 
ATOM      3  C   UNL     1       6.521   5.108  17.508  0.00  0.00    +0.000 A 
ATOM      4  C   UNL     1       5.696   4.703  18.556  0.00  0.00    +0.000 A 
ATOM      5  C   UNL     1       4.635   3.826  18.328  0.00  0.00    +0.000 A 
ATOM      6  N   UNL     1       3.797   3.415  19.359  0.00  0.00    +0.000 N 
ATOM      7  C   UNL     1       3.123   2.130  19.216  0.00  0.00    +0.000 C 
ATOM      8  C   UNL     1       1.757   2.261  18.548  0.00  0.00    +0.000 C 
ATOM      9  C   UNL     1       0.666   2.800  19.469  0.00  0.00    +0.000 C 
ATOM     10  C   UNL     1       0.959   4.174  20.065  0.00  0.00    +0.000 C 
ATOM     11  C   UNL     1       2.108   4.153  21.074  0.00  0.00    +0.000 C 
ATOM     12  C   UNL     1       3.489   4.334  20.449  0.00  0.00    +0.000 C 
ATOM     13  N   UNL     1       4.444   3.363  17.070  0.00  0.00    +0.000 NA
ATOM     14  N   UNL     1       5.239   3.773  16.015  0.00  0.00    +0.000 NA
ENDROOT
TORSDOF 0
ENDMDL
MODEL 6
REMARK VINA RESULT:      -6.2      2.607      2.770
REMARK  Name = 
REMARK  0 active torsions:
REMARK  status: ('A' for Active; 'I' for Inactive)
REMARK                            x       y       z     vdW  Elec       q    Type
REMARK                         _______ _______ _______ _____ _____    ______ ____
ROOT
ATOM      1 CL   UNL     1       7.721   5.053  12.882  0.00  0.00    +0.000 Cl
ATOM      2  C   UNL     1       6.923   4.789  14.372  0.00  0.00    +0.000 A 
ATOM      3  C   UNL     1       7.476   5.176  15.570  0.00  0.00    +0.000 A 
ATOM      4  C   UNL     1       6.745   4.938  16.733  0.00  0.00    +0.000 A 
ATOM      5  C   UNL     1       5.498   4.315  16.675  0.00  0.00    +0.000 A 
ATOM      6  N   UNL     1       4.751   4.074  17.822  0.00  0.00    +0.000 N 
ATOM      7  C   UNL     1       3.802   2.968  17.797  0.00  0.00    +0.000 C 
ATOM      8  C   UNL     1       2.413   3.404  17.335  0.00  0.00    +0.000 C 
ATOM      9  C   UNL     1       1.611   4.148  18.399  0.00  0.00    +0.000 C 
ATOM     10  C   UNL     1       2.278   5.414  18.929  0.00  0.00    +0.000 C 
ATOM     11  C   UNL     1       3.531   5.125  19.758  0.00  0.00    +0.000 C 
ATOM     12  C   UNL     1       4.812   5.017  18.934  0.00  0.00    +0.000 C 
ATOM     13  N   UNL     1       5.030   3.928  15.464  0.00  0.00    +0.000 NA
ATOM     14  N   UNL     1       5.731   4.178  14.299  0.00  0.00    +0.000 NA
ENDROOT
TORSDOF 0
ENDMDL
MODEL 7
REMARK VINA RESULT:      -6.2      3.074      5.339
REMARK  Name = 
REMARK  0 active torsions:
REMARK  status: ('A' for Active; 'I' for Inactive)
REMARK                            x       y       z     vdW  Elec       q    Type
REMARK                         _______ _______ _______ _____ _____    ______ ____
ROOT
ATOM      1 CL   UNL     1       1.418   2.542  21.806  0.00  0.00    +0.000 Cl
ATOM      2  C   UNL     1       2.170   3.408  20.537  0.00  0.00    +0.000 A 
ATOM      3  C   UNL     1       1.950   4.752  20.347  0.00  0.00    +0.000 A 
ATOM      4  C   UNL     1       2.622   5.380  19.299  0.00  0.00    +0.000 A 
ATOM      5  C   UNL     1       3.478   4.658  18.467  0.00  0.00    +0.000 A 
ATOM      6  N   UNL     1       4.160   5.267  17.420  0.00  0.00    +0.000 N 
ATOM      7  C   UNL     1       4.547   4.437  16.285  0.00  0.00    +0.000 C 
ATOM      8  C   UNL     1       5.938   3.831  16.455  0.00  0.00    +0.000 C 
ATOM      9  C   UNL     1       7.078   4.814  16.203  0.00  0.00    +0.000 C 
ATOM     10  C   UNL     1       7.062   6.049  17.099  0.00  0.00    +0.000 C 
ATOM     11  C   UNL     1       5.892   6.987  16.800  0.00  0.00    +0.000 C 
ATOM     12  C   UNL     1       4.611   6.648  17.559  0.00  0.00    +0.000 C 
ATOM     13  N   UNL     1       3.619   3.330  18.690  0.00  0.00    +0.000 NA
ATOM     14  N   UNL     1       2.979   2.696  19.739  0.00  0.00    +0.000 NA
ENDROOT
TORSDOF 0
ENDMDL
MODEL 8
REMARK VINA RESULT:      -6.2      1.500      1.716
REMARK  Name = 
REMARK  0 active torsions:
REMARK  status: ('A' for Active; 'I' for Inactive)
REMARK                            x       y       z     vdW  Elec       q    Type
REMARK                         _______ _______ _______ _____ _____    ______ ____
ROOT
ATOM      1 CL   UNL     1       7.446   6.696  16.741  0.00  0.00    +0.000 Cl
ATOM      2  C   UNL     1       6.416   5.635  17.600  0.00  0.00    +0.000 A 
ATOM      3  C   UNL     1       6.478   5.514  18.969  0.00  0.00    +0.000 A 
ATOM      4  C   UNL     1       5.586   4.639  19.587  0.00  0.00    +0.000 A 
ATOM      5  C   UNL     1       4.671   3.904  18.833  0.00  0.00    +0.000 A 
ATOM      6  N   UNL     1       3.770   3.031  19.431  0.00  0.00    +0.000 N 
ATOM      7  C   UNL     1       3.275   1.913  18.636  0.00  0.00    +0.000 C 
ATOM      8  C   UNL     1       1.993   2.259  17.882  0.00  0.00    +0.000 C 
ATOM      9  C   UNL     1       0.743   2.270  18.757  0.00  0.00    +0.000 C 
ATOM     10  C   UNL     1       0.797   3.243  19.932  0.00  0.00    +0.000 C 
ATOM     11  C   UNL     1       1.811   2.831  21.000  0.00  0.00    +0.000 C 
ATOM     12  C   UNL     1       3.227   3.345  20.748  0.00  0.00    +0.000 C 
ATOM     13  N   UNL     1       4.690   4.045  17.486  0.00  0.00    +0.000 NA
ATOM     14  N   UNL     1       5.552   4.926  16.859  0.00  0.00    +0.000 NA
ENDROOT
TORSDOF 0
ENDMDL
MODEL 9
REMARK VINA RESULT:      -6.2      1.332      1.595
REMARK  Name = 
REMARK  0 active torsions:
REMARK  status: ('A' for Active; 'I' for Inactive)
REMARK                            x       y       z     vdW  Elec       q    Type
REMARK                         _______ _______ _______ _____ _____    ______ ____
ROOT
ATOM      1 CL   UNL     1       7.694   7.344  17.129  0.00  0.00    +0.000 Cl
ATOM      2  C   UNL     1       6.372   6.265  17.238  0.00  0.00    +0.000 A 
ATOM      3  C   UNL     1       6.421   5.001  16.699  0.00  0.00    +0.000 A 
ATOM      4  C   UNL     1       5.303   4.182  16.853  0.00  0.00    +0.000 A 
ATOM      5  C   UNL     1       4.170   4.644  17.524  0.00  0.00    +0.000 A 
ATOM      6  N   UNL     1       3.048   3.841  17.692  0.00  0.00    +0.000 N 
ATOM      7  C   UNL     1       1.757   4.501  17.853  0.00  0.00    +0.000 C 
ATOM      8  C   UNL     1       1.423   4.774  19.318  0.00  0.00    +0.000 C 
ATOM      9  C   UNL     1       0.959   3.542  20.089  0.00  0.00    +0.000 C 
ATOM     10  C   UNL     1       1.960   2.391  20.111  0.00  0.00    +0.000 C 
ATOM     11  C   UNL     1       2.145   1.737  18.741  0.00  0.00    +0.000 C 
ATOM     12  C   UNL     1       3.210   2.402  17.871  0.00  0.00    +0.000 C 
ATOM     13  N   UNL     1       4.178   5.912  17.998  0.00  0.00    +0.000 NA
ATOM     14  N   UNL     1       5.287   6.729  17.875  0.00  0.00    +0.000 NA
ENDROOT
TORSDOF 0
ENDMDL
