MODEL 1
REMARK VINA RESULT:      -6.9      0.000      0.000
REMARK  Name = 
REMARK  14 active torsions:
REMARK  status: ('A' for Active; 'I' for Inactive)
REMARK    1  A    between atoms: C_1  and  C_2
REMARK    2  A    between atoms: C_2  and  N_3
REMARK    3  A    between atoms: N_3  and  C_4
REMARK    4  A    between atoms: N_3  and  C_6
REMARK    5  A    between atoms: C_4  and  C_5
REMARK    6  A    between atoms: C_6  and  C_7
REMARK    7  A    between atoms: C_6  and  C_26
REMARK    8  A    between atoms: C_7  and  N_8
REMARK    9  A    between atoms: N_11  and  C_12
REMARK   10  A    between atoms: C_12  and  C_13
REMARK   11  A    between atoms: C_13  and  C_14
REMARK   12  A    between atoms: C_13  and  C_15
REMARK   13  A    between atoms: C_15  and  C_17
REMARK   14  A    between atoms: C_20  and  O_21
REMARK                            x       y       z     vdW  Elec       q    Type
REMARK                         _______ _______ _______ _____ _____    ______ ____
ROOT
ATOM      1  N   UNL     1       2.448   7.673  18.869  0.00  0.00    +0.000 NA
ATOM      2  C   UNL     1       2.272   8.822  17.947  0.00  0.00    +0.000 C 
ATOM      3  C   UNL     1       0.897   9.525  18.031  0.00  0.00    +0.000 C 
ATOM      4  N   UNL     1       0.544   9.965  19.397  0.00  0.00    +0.000 NA
ATOM      5  C   UNL     1       0.558   8.749  20.243  0.00  0.00    +0.000 C 
ATOM      6  C   UNL     1       1.900   7.974  20.209  0.00  0.00    +0.000 C 
ENDROOT
BRANCH   1   7
ATOM      7  C   UNL     1       1.875   6.457  18.263  0.00  0.00    +0.000 C 
BRANCH   7   8
ATOM      8  C   UNL     1       2.768   5.166  18.092  0.00  0.00    +0.000 C 
BRANCH   8   9
ATOM      9  C   UNL     1       4.260   5.577  18.118  0.00  0.00    +0.000 A 
ATOM     10  C   UNL     1       4.796   6.320  17.054  0.00  0.00    +0.000 A 
ATOM     11  C   UNL     1       6.142   6.702  17.060  0.00  0.00    +0.000 A 
ATOM     12  C   UNL     1       6.959   6.340  18.123  0.00  0.00    +0.000 A 
ATOM     13  F   UNL     1       8.253   6.695  18.117  0.00  0.00    +0.000 F 
ATOM     14  C   UNL     1       6.461   5.613  19.188  0.00  0.00    +0.000 A 
ATOM     15  C   UNL     1       5.116   5.235  19.188  0.00  0.00    +0.000 A 
ENDBRANCH   8   9
BRANCH   8  16
ATOM     16  N   UNL     1       2.502   3.980  18.981  0.00  0.00    +0.000 NA
BRANCH  16  18
ATOM     17  C   UNL     1       1.114   3.109  20.922  0.00  0.00    +0.000 C 
ATOM     18  C   UNL     1       1.428   4.247  19.952  0.00  0.00    +0.000 C 
ENDBRANCH  16  18
BRANCH  16  19
ATOM     19  C   UNL     1       2.276   2.763  18.172  0.00  0.00    +0.000 C 
ATOM     20  C   UNL     1       3.429   1.763  18.090  0.00  0.00    +0.000 C 
ENDBRANCH  16  19
ENDBRANCH   8  16
ENDBRANCH   7   8
ENDBRANCH   1   7
BRANCH   4  21
ATOM     21  C   UNL     1       1.483  10.981  19.942  0.00  0.00    +0.000 C 
BRANCH  21  22
ATOM     22  C   UNL     1       0.885  12.395  20.073  0.00  0.00    +0.000 C 
ATOM     23  C   UNL     1      -0.267  12.431  21.065  0.00  0.00    +0.000 C 
BRANCH  22  24
ATOM     24  C   UNL     1       1.987  13.381  20.472  0.00  0.00    +0.000 C 
ATOM     25  O   UNL     1       2.698  13.220  21.459  0.00  0.00    +0.000 OA
BRANCH  24  26
ATOM     26  C   UNL     1       2.246  14.534  19.558  0.00  0.00    +0.000 A 
ATOM     27  C   UNL     1       1.494  15.716  19.641  0.00  0.00    +0.000 A 
ATOM     28  C   UNL     1       1.683  16.739  18.712  0.00  0.00    +0.000 A 
ATOM     29  C   UNL     1       2.627  16.583  17.704  0.00  0.00    +0.000 A 
ATOM     30  C   UNL     1       3.412  15.437  17.635  0.00  0.00    +0.000 A 
ATOM     31  C   UNL     1       3.226  14.410  18.566  0.00  0.00    +0.000 A 
BRANCH  29  32
ATOM     32  O   UNL     1       2.805  17.540  16.751  0.00  0.00    +0.000 OA
ATOM     33  H   UNL     1       1.940  17.756  16.360  0.00  0.00    +0.000 HD
ENDBRANCH  29  32
ENDBRANCH  24  26
ENDBRANCH  22  24
ENDBRANCH  21  22
ENDBRANCH   4  21
TORSDOF 11
ENDMDL
MODEL 2
REMARK VINA RESULT:      -6.9      3.003      3.943
REMARK  Name = 
REMARK  14 active torsions:
REMARK  status: ('A' for Active; 'I' for Inactive)
REMARK    1  A    between atoms: C_1  and  C_2
REMARK    2  A    between atoms: C_2  and  N_3
REMARK    3  A    between atoms: N_3  and  C_4
REMARK    4  A    between atoms: N_3  and  C_6
REMARK    5  A    between atoms: C_4  and  C_5
REMARK    6  A    between atoms: C_6  and  C_7
REMARK    7  A    between atoms: C_6  and  C_26
REMARK    8  A    between atoms: C_7  and  N_8
REMARK    9  A    between atoms: N_11  and  C_12
REMARK   10  A    between atoms: C_12  and  C_13
REMARK   11  A    between atoms: C_13  and  C_14
REMARK   12  A    between atoms: C_13  and  C_15
REMARK   13  A    between atoms: C_15  and  C_17
REMARK   14  A    between atoms: C_20  and  O_21
REMARK                            x       y       z     vdW  Elec       q    Type
REMARK                         _______ _______ _______ _____ _____    ______ ____
ROOT
ATOM      1  N   UNL     1       2.497   7.675  19.058  0.00  0.00    +0.000 NA
ATOM      2  C   UNL     1       2.266   8.920  18.286  0.00  0.00    +0.000 C 
ATOM      3  C   UNL     1       0.811   9.443  18.305  0.00  0.00    +0.000 C 
ATOM      4  N   UNL     1       0.274   9.636  19.668  0.00  0.00    +0.000 NA
ATOM      5  C   UNL     1       0.360   8.318  20.340  0.00  0.00    +0.000 C 
ATOM      6  C   UNL     1       1.787   7.712  20.356  0.00  0.00    +0.000 C 
ENDROOT
BRANCH   1   7
ATOM      7  C   UNL     1       2.145   6.504  18.234  0.00  0.00    +0.000 C 
BRANCH   7   8
ATOM      8  C   UNL     1       3.097   5.245  18.205  0.00  0.00    +0.000 C 
BRANCH   8   9
ATOM      9  C   UNL     1       4.569   5.724  18.236  0.00  0.00    +0.000 A 
ATOM     10  C   UNL     1       5.033   6.608  17.248  0.00  0.00    +0.000 A 
ATOM     11  C   UNL     1       6.360   7.054  17.259  0.00  0.00    +0.000 A 
ATOM     12  C   UNL     1       7.228   6.615  18.250  0.00  0.00    +0.000 A 
ATOM     13  F   UNL     1       8.503   7.033  18.248  0.00  0.00    +0.000 F 
ATOM     14  C   UNL     1       6.800   5.750  19.239  0.00  0.00    +0.000 A 
ATOM     15  C   UNL     1       5.475   5.308  19.234  0.00  0.00    +0.000 A 
ENDBRANCH   8   9
BRANCH   8  16
ATOM     16  N   UNL     1       2.854   4.132  19.190  0.00  0.00    +0.000 NA
BRANCH  16  18
ATOM     17  C   UNL     1       1.203   3.469  21.002  0.00  0.00    +0.000 C 
ATOM     18  C   UNL     1       1.447   4.072  19.621  0.00  0.00    +0.000 C 
ENDBRANCH  16  18
BRANCH  16  19
ATOM     19  C   UNL     1       3.364   2.848  18.661  0.00  0.00    +0.000 C 
ATOM     20  C   UNL     1       2.446   2.079  17.711  0.00  0.00    +0.000 C 
ENDBRANCH  16  19
ENDBRANCH   8  16
ENDBRANCH   7   8
ENDBRANCH   1   7
BRANCH   4  21
ATOM     21  C   UNL     1       1.018  10.659  20.448  0.00  0.00    +0.000 C 
BRANCH  21  22
ATOM     22  C   UNL     1       0.139  11.790  21.018  0.00  0.00    +0.000 C 
ATOM     23  C   UNL     1      -1.022  12.121  20.092  0.00  0.00    +0.000 C 
BRANCH  22  24
ATOM     24  C   UNL     1      -0.361  11.397  22.410  0.00  0.00    +0.000 C 
ATOM     25  O   UNL     1       0.095  10.446  23.037  0.00  0.00    +0.000 OA
BRANCH  24  26
ATOM     26  C   UNL     1      -1.385  12.277  23.049  0.00  0.00    +0.000 A 
ATOM     27  C   UNL     1      -2.675  11.806  23.340  0.00  0.00    +0.000 A 
ATOM     28  C   UNL     1      -3.646  12.672  23.841  0.00  0.00    +0.000 A 
ATOM     29  C   UNL     1      -3.327  14.008  24.057  0.00  0.00    +0.000 A 
ATOM     30  C   UNL     1      -2.042  14.480  23.816  0.00  0.00    +0.000 A 
ATOM     31  C   UNL     1      -1.065  13.614  23.316  0.00  0.00    +0.000 A 
BRANCH  29  32
ATOM     32  O   UNL     1      -4.264  14.893  24.499  0.00  0.00    +0.000 OA
ATOM     33  H   UNL     1      -3.918  15.344  25.289  0.00  0.00    +0.000 HD
ENDBRANCH  29  32
ENDBRANCH  24  26
ENDBRANCH  22  24
ENDBRANCH  21  22
ENDBRANCH   4  21
TORSDOF 11
ENDMDL
MODEL 3
REMARK VINA RESULT:      -6.9      2.091      3.715
REMARK  Name = 
REMARK  14 active torsions:
REMARK  status: ('A' for Active; 'I' for Inactive)
REMARK    1  A    between atoms: C_1  and  C_2
REMARK    2  A    between atoms: C_2  and  N_3
REMARK    3  A    between atoms: N_3  and  C_4
REMARK    4  A    between atoms: N_3  and  C_6
REMARK    5  A    between atoms: C_4  and  C_5
REMARK    6  A    between atoms: C_6  and  C_7
REMARK    7  A    between atoms: C_6  and  C_26
REMARK    8  A    between atoms: C_7  and  N_8
REMARK    9  A    between atoms: N_11  and  C_12
REMARK   10  A    between atoms: C_12  and  C_13
REMARK   11  A    between atoms: C_13  and  C_14
REMARK   12  A    between atoms: C_13  and  C_15
REMARK   13  A    between atoms: C_15  and  C_17
REMARK   14  A    between atoms: C_20  and  O_21
REMARK                            x       y       z     vdW  Elec       q    Type
REMARK                         _______ _______ _______ _____ _____    ______ ____
ROOT
ATOM      1  N   UNL     1       2.606   7.629  18.801  0.00  0.00    +0.000 NA
ATOM      2  C   UNL     1       2.412   8.730  17.826  0.00  0.00    +0.000 C 
ATOM      3  C   UNL     1       1.007   9.376  17.839  0.00  0.00    +0.000 C 
ATOM      4  N   UNL     1       0.594   9.858  19.173  0.00  0.00    +0.000 NA
ATOM      5  C   UNL     1       0.631   8.679  20.071  0.00  0.00    +0.000 C 
ATOM      6  C   UNL     1       2.005   7.962  20.110  0.00  0.00    +0.000 C 
ENDROOT
BRANCH   1   7
ATOM      7  C   UNL     1       2.104   6.365  18.231  0.00  0.00    +0.000 C 
BRANCH   7   8
ATOM      8  C   UNL     1       3.066   5.121  18.102  0.00  0.00    +0.000 C 
BRANCH   8   9
ATOM      9  C   UNL     1       4.534   5.611  18.147  0.00  0.00    +0.000 A 
ATOM     10  C   UNL     1       5.371   5.209  19.202  0.00  0.00    +0.000 A 
ATOM     11  C   UNL     1       6.700   5.641  19.259  0.00  0.00    +0.000 A 
ATOM     12  C   UNL     1       7.198   6.478  18.271  0.00  0.00    +0.000 A 
ATOM     13  F   UNL     1       8.470   6.903  18.338  0.00  0.00    +0.000 F 
ATOM     14  C   UNL     1       6.403   6.888  17.217  0.00  0.00    +0.000 A 
ATOM     15  C   UNL     1       5.076   6.454  17.153  0.00  0.00    +0.000 A 
ENDBRANCH   8   9
BRANCH   8  16
ATOM     16  N   UNL     1       2.847   3.938  19.008  0.00  0.00    +0.000 NA
BRANCH  16  18
ATOM     17  C   UNL     1       0.684   3.253  20.151  0.00  0.00    +0.000 C 
ATOM     18  C   UNL     1       1.858   4.226  20.061  0.00  0.00    +0.000 C 
ENDBRANCH  16  18
BRANCH  16  19
ATOM     19  C   UNL     1       2.532   2.728  18.219  0.00  0.00    +0.000 C 
ATOM     20  C   UNL     1       3.485   1.542  18.362  0.00  0.00    +0.000 C 
ENDBRANCH  16  19
ENDBRANCH   8  16
ENDBRANCH   7   8
ENDBRANCH   1   7
BRANCH   4  21
ATOM     21  C   UNL     1       1.472  10.934  19.702  0.00  0.00    +0.000 C 
BRANCH  21  22
ATOM     22  C   UNL     1       0.864  12.348  19.625  0.00  0.00    +0.000 C 
ATOM     23  C   UNL     1      -0.477  12.346  18.906  0.00  0.00    +0.000 C 
BRANCH  22  24
ATOM     24  C   UNL     1       0.730  12.925  21.037  0.00  0.00    +0.000 C 
ATOM     25  O   UNL     1       1.582  13.647  21.545  0.00  0.00    +0.000 OA
BRANCH  24  26
ATOM     26  C   UNL     1      -0.540  12.655  21.776  0.00  0.00    +0.000 A 
ATOM     27  C   UNL     1      -1.558  13.618  21.855  0.00  0.00    +0.000 A 
ATOM     28  C   UNL     1      -2.690  13.386  22.635  0.00  0.00    +0.000 A 
ATOM     29  C   UNL     1      -2.809  12.188  23.330  0.00  0.00    +0.000 A 
ATOM     30  C   UNL     1      -1.831  11.205  23.227  0.00  0.00    +0.000 A 
ATOM     31  C   UNL     1      -0.695  11.434  22.444  0.00  0.00    +0.000 A 
BRANCH  29  32
ATOM     32  O   UNL     1      -3.878  11.946  24.139  0.00  0.00    +0.000 OA
ATOM     33  H   UNL     1      -4.553  12.628  23.977  0.00  0.00    +0.000 HD
ENDBRANCH  29  32
ENDBRANCH  24  26
ENDBRANCH  22  24
ENDBRANCH  21  22
ENDBRANCH   4  21
TORSDOF 11
ENDMDL
MODEL 4
REMARK VINA RESULT:      -6.8      0.504      1.241
REMARK  Name = 
REMARK  14 active torsions:
REMARK  status: ('A' for Active; 'I' for Inactive)
REMARK    1  A    between atoms: C_1  and  C_2
REMARK    2  A    between atoms: C_2  and  N_3
REMARK    3  A    between atoms: N_3  and  C_4
REMARK    4  A    between atoms: N_3  and  C_6
REMARK    5  A    between atoms: C_4  and  C_5
REMARK    6  A    between atoms: C_6  and  C_7
REMARK    7  A    between atoms: C_6  and  C_26
REMARK    8  A    between atoms: C_7  and  N_8
REMARK    9  A    between atoms: N_11  and  C_12
REMARK   10  A    between atoms: C_12  and  C_13
REMARK   11  A    between atoms: C_13  and  C_14
REMARK   12  A    between atoms: C_13  and  C_15
REMARK   13  A    between atoms: C_15  and  C_17
REMARK   14  A    between atoms: C_20  and  O_21
REMARK                            x       y       z     vdW  Elec       q    Type
REMARK                         _______ _______ _______ _____ _____    ______ ____
ROOT
ATOM      1  N   UNL     1       2.415   7.749  18.890  0.00  0.00    +0.000 NA
ATOM      2  C   UNL     1       2.249   8.918  17.992  0.00  0.00    +0.000 C 
ATOM      3  C   UNL     1       0.873   9.618  18.075  0.00  0.00    +0.000 C 
ATOM      4  N   UNL     1       0.504  10.028  19.445  0.00  0.00    +0.000 NA
ATOM      5  C   UNL     1       0.508   8.794  20.265  0.00  0.00    +0.000 C 
ATOM      6  C   UNL     1       1.851   8.021  20.230  0.00  0.00    +0.000 C 
ENDROOT
BRANCH   1   7
ATOM      7  C   UNL     1       1.850   6.546  18.251  0.00  0.00    +0.000 C 
BRANCH   7   8
ATOM      8  C   UNL     1       2.747   5.262  18.057  0.00  0.00    +0.000 C 
BRANCH   8   9
ATOM      9  C   UNL     1       4.238   5.680  18.071  0.00  0.00    +0.000 A 
ATOM     10  C   UNL     1       5.069   5.259  19.122  0.00  0.00    +0.000 A 
ATOM     11  C   UNL     1       6.419   5.627  19.151  0.00  0.00    +0.000 A 
ATOM     12  C   UNL     1       6.942   6.419  18.138  0.00  0.00    +0.000 A 
ATOM     13  F   UNL     1       8.234   6.781  18.178  0.00  0.00    +0.000 F 
ATOM     14  C   UNL     1       6.152   6.845  17.087  0.00  0.00    +0.000 A 
ATOM     15  C   UNL     1       4.805   6.475  17.052  0.00  0.00    +0.000 A 
ENDBRANCH   8   9
BRANCH   8  16
ATOM     16  N   UNL     1       2.498   4.064  18.935  0.00  0.00    +0.000 NA
BRANCH  16  18
ATOM     17  C   UNL     1       1.140   3.166  20.885  0.00  0.00    +0.000 C 
ATOM     18  C   UNL     1       1.444   4.320  19.932  0.00  0.00    +0.000 C 
ENDBRANCH  16  18
BRANCH  16  19
ATOM     19  C   UNL     1       2.252   2.858  18.114  0.00  0.00    +0.000 C 
ATOM     20  C   UNL     1       3.374   1.823  18.054  0.00  0.00    +0.000 C 
ENDBRANCH  16  19
ENDBRANCH   8  16
ENDBRANCH   7   8
ENDBRANCH   1   7
BRANCH   4  21
ATOM     21  C   UNL     1       1.435  11.032  20.023  0.00  0.00    +0.000 C 
BRANCH  21  22
ATOM     22  C   UNL     1       0.788  12.395  20.339  0.00  0.00    +0.000 C 
ATOM     23  C   UNL     1      -0.133  12.315  21.547  0.00  0.00    +0.000 C 
BRANCH  22  24
ATOM     24  C   UNL     1       1.883  13.445  20.549  0.00  0.00    +0.000 C 
ATOM     25  O   UNL     1       2.793  13.303  21.358  0.00  0.00    +0.000 OA
BRANCH  24  26
ATOM     26  C   UNL     1       1.870  14.643  19.656  0.00  0.00    +0.000 A 
ATOM     27  C   UNL     1       3.062  15.247  19.228  0.00  0.00    +0.000 A 
ATOM     28  C   UNL     1       3.028  16.424  18.481  0.00  0.00    +0.000 A 
ATOM     29  C   UNL     1       1.802  16.994  18.157  0.00  0.00    +0.000 A 
ATOM     30  C   UNL     1       0.611  16.383  18.535  0.00  0.00    +0.000 A 
ATOM     31  C   UNL     1       0.642  15.202  19.283  0.00  0.00    +0.000 A 
BRANCH  29  32
ATOM     32  O   UNL     1       1.731  18.168  17.470  0.00  0.00    +0.000 OA
ATOM     33  H   UNL     1       1.353  17.993  16.590  0.00  0.00    +0.000 HD
ENDBRANCH  29  32
ENDBRANCH  24  26
ENDBRANCH  22  24
ENDBRANCH  21  22
ENDBRANCH   4  21
TORSDOF 11
ENDMDL
MODEL 5
REMARK VINA RESULT:      -6.8      3.524      5.329
REMARK  Name = 
REMARK  14 active torsions:
REMARK  status: ('A' for Active; 'I' for Inactive)
REMARK    1  A    between atoms: C_1  and  C_2
REMARK    2  A    between atoms: C_2  and  N_3
REMARK    3  A    between atoms: N_3  and  C_4
REMARK    4  A    between atoms: N_3  and  C_6
REMARK    5  A    between atoms: C_4  and  C_5
REMARK    6  A    between atoms: C_6  and  C_7
REMARK    7  A    between atoms: C_6  and  C_26
REMARK    8  A    between atoms: C_7  and  N_8
REMARK    9  A    between atoms: N_11  and  C_12
REMARK   10  A    between atoms: C_12  and  C_13
REMARK   11  A    between atoms: C_13  and  C_14
REMARK   12  A    between atoms: C_13  and  C_15
REMARK   13  A    between atoms: C_15  and  C_17
REMARK   14  A    between atoms: C_20  and  O_21
REMARK                            x       y       z     vdW  Elec       q    Type
REMARK                         _______ _______ _______ _____ _____    ______ ____
ROOT
ATOM      1  N   UNL     1       2.462   8.597  18.937  0.00  0.00    +0.000 NA
ATOM      2  C   UNL     1       1.871   9.683  18.117  0.00  0.00    +0.000 C 
ATOM      3  C   UNL     1       0.338   9.840  18.242  0.00  0.00    +0.000 C 
ATOM      4  N   UNL     1      -0.124  10.006  19.636  0.00  0.00    +0.000 NA
ATOM      5  C   UNL     1       0.338   8.806  20.373  0.00  0.00    +0.000 C 
ATOM      6  C   UNL     1       1.867   8.567  20.291  0.00  0.00    +0.000 C 
ENDROOT
BRANCH   1   7
ATOM      7  C   UNL     1       2.349   7.314  18.220  0.00  0.00    +0.000 C 
BRANCH   7   8
ATOM      8  C   UNL     1       3.333   6.129  18.565  0.00  0.00    +0.000 C 
BRANCH   8   9
ATOM      9  C   UNL     1       2.520   4.816  18.682  0.00  0.00    +0.000 A 
ATOM     10  C   UNL     1       2.686   3.807  17.719  0.00  0.00    +0.000 A 
ATOM     11  C   UNL     1       1.961   2.613  17.810  0.00  0.00    +0.000 A 
ATOM     12  C   UNL     1       1.066   2.425  18.854  0.00  0.00    +0.000 A 
ATOM     13  F   UNL     1       0.362   1.285  18.928  0.00  0.00    +0.000 F 
ATOM     14  C   UNL     1       0.885   3.396  19.820  0.00  0.00    +0.000 A 
ATOM     15  C   UNL     1       1.611   4.587  19.737  0.00  0.00    +0.000 A 
ENDBRANCH   8   9
BRANCH   8  16
ATOM     16  N   UNL     1       4.568   5.945  17.723  0.00  0.00    +0.000 NA
BRANCH  16  18
ATOM     17  C   UNL     1       5.273   6.515  15.351  0.00  0.00    +0.000 C 
ATOM     18  C   UNL     1       4.687   6.980  16.682  0.00  0.00    +0.000 C 
ENDBRANCH  16  18
BRANCH  16  19
ATOM     19  C   UNL     1       5.769   5.829  18.579  0.00  0.00    +0.000 C 
ATOM     20  C   UNL     1       6.687   4.634  18.325  0.00  0.00    +0.000 C 
ENDBRANCH  16  19
ENDBRANCH   8  16
ENDBRANCH   7   8
ENDBRANCH   1   7
BRANCH   4  21
ATOM     21  C   UNL     1       0.402  11.238  20.280  0.00  0.00    +0.000 C 
BRANCH  21  22
ATOM     22  C   UNL     1      -0.682  12.152  20.885  0.00  0.00    +0.000 C 
ATOM     23  C   UNL     1      -2.002  12.030  20.140  0.00  0.00    +0.000 C 
BRANCH  22  24
ATOM     24  C   UNL     1      -0.856  11.826  22.371  0.00  0.00    +0.000 C 
ATOM     25  O   UNL     1      -0.250  10.916  22.928  0.00  0.00    +0.000 OA
BRANCH  24  26
ATOM     26  C   UNL     1      -1.739  12.722  23.176  0.00  0.00    +0.000 A 
ATOM     27  C   UNL     1      -3.030  12.326  23.558  0.00  0.00    +0.000 A 
ATOM     28  C   UNL     1      -3.875  13.216  24.218  0.00  0.00    +0.000 A 
ATOM     29  C   UNL     1      -3.428  14.502  24.504  0.00  0.00    +0.000 A 
ATOM     30  C   UNL     1      -2.136  14.895  24.173  0.00  0.00    +0.000 A 
ATOM     31  C   UNL     1      -1.285  14.004  23.511  0.00  0.00    +0.000 A 
BRANCH  29  32
ATOM     32  O   UNL     1      -4.242  15.413  25.105  0.00  0.00    +0.000 OA
ATOM     33  H   UNL     1      -5.132  15.030  25.188  0.00  0.00    +0.000 HD
ENDBRANCH  29  32
ENDBRANCH  24  26
ENDBRANCH  22  24
ENDBRANCH  21  22
ENDBRANCH   4  21
TORSDOF 11
ENDMDL
MODEL 6
REMARK VINA RESULT:      -6.8      0.411      1.024
REMARK  Name = 
REMARK  14 active torsions:
REMARK  status: ('A' for Active; 'I' for Inactive)
REMARK    1  A    between atoms: C_1  and  C_2
REMARK    2  A    between atoms: C_2  and  N_3
REMARK    3  A    between atoms: N_3  and  C_4
REMARK    4  A    between atoms: N_3  and  C_6
REMARK    5  A    between atoms: C_4  and  C_5
REMARK    6  A    between atoms: C_6  and  C_7
REMARK    7  A    between atoms: C_6  and  C_26
REMARK    8  A    between atoms: C_7  and  N_8
REMARK    9  A    between atoms: N_11  and  C_12
REMARK   10  A    between atoms: C_12  and  C_13
REMARK   11  A    between atoms: C_13  and  C_14
REMARK   12  A    between atoms: C_13  and  C_15
REMARK   13  A    between atoms: C_15  and  C_17
REMARK   14  A    between atoms: C_20  and  O_21
REMARK                            x       y       z     vdW  Elec       q    Type
REMARK                         _______ _______ _______ _____ _____    ______ ____
ROOT
ATOM      1  N   UNL     1       2.466   7.677  18.897  0.00  0.00    +0.000 NA
ATOM      2  C   UNL     1       2.241   8.824  17.983  0.00  0.00    +0.000 C 
ATOM      3  C   UNL     1       0.847   9.484  18.090  0.00  0.00    +0.000 C 
ATOM      4  N   UNL     1       0.501   9.908  19.463  0.00  0.00    +0.000 NA
ATOM      5  C   UNL     1       0.565   8.690  20.304  0.00  0.00    +0.000 C 
ATOM      6  C   UNL     1       1.929   7.957  20.247  0.00  0.00    +0.000 C 
ENDROOT
BRANCH   1   7
ATOM      7  C   UNL     1       1.921   6.446  18.295  0.00  0.00    +0.000 C 
BRANCH   7   8
ATOM      8  C   UNL     1       2.839   5.171  18.140  0.00  0.00    +0.000 C 
BRANCH   8   9
ATOM      9  C   UNL     1       4.323   5.615  18.140  0.00  0.00    +0.000 A 
ATOM     10  C   UNL     1       5.168   5.219  19.190  0.00  0.00    +0.000 A 
ATOM     11  C   UNL     1       6.512   5.609  19.206  0.00  0.00    +0.000 A 
ATOM     12  C   UNL     1       7.015   6.399  18.182  0.00  0.00    +0.000 A 
ATOM     13  F   UNL     1       8.301   6.783  18.209  0.00  0.00    +0.000 F 
ATOM     14  C   UNL     1       6.211   6.801  17.132  0.00  0.00    +0.000 A 
ATOM     15  C   UNL     1       4.870   6.409  17.109  0.00  0.00    +0.000 A 
ENDBRANCH   8   9
BRANCH   8  16
ATOM     16  N   UNL     1       2.610   3.998  19.056  0.00  0.00    +0.000 NA
BRANCH  16  18
ATOM     17  C   UNL     1       2.163   3.793  21.548  0.00  0.00    +0.000 C 
ATOM     18  C   UNL     1       1.735   4.344  20.189  0.00  0.00    +0.000 C 
ENDBRANCH  16  18
BRANCH  16  19
ATOM     19  C   UNL     1       2.143   2.823  18.288  0.00  0.00    +0.000 C 
ATOM     20  C   UNL     1       0.758   2.277  18.634  0.00  0.00    +0.000 C 
ENDBRANCH  16  19
ENDBRANCH   8  16
ENDBRANCH   7   8
ENDBRANCH   1   7
BRANCH   4  21
ATOM     21  C   UNL     1       1.417  10.950  19.998  0.00  0.00    +0.000 C 
BRANCH  21  22
ATOM     22  C   UNL     1       0.874  12.389  19.896  0.00  0.00    +0.000 C 
ATOM     23  C   UNL     1      -0.404  12.567  20.703  0.00  0.00    +0.000 C 
BRANCH  22  24
ATOM     24  C   UNL     1       1.953  13.376  20.347  0.00  0.00    +0.000 C 
ATOM     25  O   UNL     1       2.643  13.197  21.346  0.00  0.00    +0.000 OA
BRANCH  24  26
ATOM     26  C   UNL     1       2.221  14.555  19.470  0.00  0.00    +0.000 A 
ATOM     27  C   UNL     1       1.465  15.733  19.578  0.00  0.00    +0.000 A 
ATOM     28  C   UNL     1       1.662  16.783  18.682  0.00  0.00    +0.000 A 
ATOM     29  C   UNL     1       2.618  16.658  17.680  0.00  0.00    +0.000 A 
ATOM     30  C   UNL     1       3.405  15.516  17.586  0.00  0.00    +0.000 A 
ATOM     31  C   UNL     1       3.212  14.462  18.485  0.00  0.00    +0.000 A 
BRANCH  29  32
ATOM     32  O   UNL     1       2.804  17.643  16.757  0.00  0.00    +0.000 OA
ATOM     33  H   UNL     1       3.502  18.241  17.076  0.00  0.00    +0.000 HD
ENDBRANCH  29  32
ENDBRANCH  24  26
ENDBRANCH  22  24
ENDBRANCH  21  22
ENDBRANCH   4  21
TORSDOF 11
ENDMDL
MODEL 7
REMARK VINA RESULT:      -6.7      3.655      5.630
REMARK  Name = 
REMARK  14 active torsions:
REMARK  status: ('A' for Active; 'I' for Inactive)
REMARK    1  A    between atoms: C_1  and  C_2
REMARK    2  A    between atoms: C_2  and  N_3
REMARK    3  A    between atoms: N_3  and  C_4
REMARK    4  A    between atoms: N_3  and  C_6
REMARK    5  A    between atoms: C_4  and  C_5
REMARK    6  A    between atoms: C_6  and  C_7
REMARK    7  A    between atoms: C_6  and  C_26
REMARK    8  A    between atoms: C_7  and  N_8
REMARK    9  A    between atoms: N_11  and  C_12
REMARK   10  A    between atoms: C_12  and  C_13
REMARK   11  A    between atoms: C_13  and  C_14
REMARK   12  A    between atoms: C_13  and  C_15
REMARK   13  A    between atoms: C_15  and  C_17
REMARK   14  A    between atoms: C_20  and  O_21
REMARK                            x       y       z     vdW  Elec       q    Type
REMARK                         _______ _______ _______ _____ _____    ______ ____
ROOT
ATOM      1  N   UNL     1       1.944   7.633  18.723  0.00  0.00    +0.000 NA
ATOM      2  C   UNL     1       1.629   7.875  20.152  0.00  0.00    +0.000 C 
ATOM      3  C   UNL     1       1.816   9.334  20.627  0.00  0.00    +0.000 C 
ATOM      4  N   UNL     1       1.070  10.317  19.814  0.00  0.00    +0.000 NA
ATOM      5  C   UNL     1       1.553  10.158  18.422  0.00  0.00    +0.000 C 
ATOM      6  C   UNL     1       1.412   8.717  17.868  0.00  0.00    +0.000 C 
ENDROOT
BRANCH   1   7
ATOM      7  C   UNL     1       3.394   7.420  18.561  0.00  0.00    +0.000 C 
BRANCH   7   8
ATOM      8  C   UNL     1       4.036   6.033  18.960  0.00  0.00    +0.000 C 
BRANCH   8   9
ATOM      9  C   UNL     1       2.945   4.936  18.899  0.00  0.00    +0.000 A 
ATOM     10  C   UNL     1       2.432   4.397  20.091  0.00  0.00    +0.000 A 
ATOM     11  C   UNL     1       1.445   3.406  20.055  0.00  0.00    +0.000 A 
ATOM     12  C   UNL     1       0.972   2.945  18.834  0.00  0.00    +0.000 A 
ATOM     13  F   UNL     1       0.036   1.983  18.805  0.00  0.00    +0.000 F 
ATOM     14  C   UNL     1       1.452   3.459  17.644  0.00  0.00    +0.000 A 
ATOM     15  C   UNL     1       2.434   4.452  17.676  0.00  0.00    +0.000 A 
ENDBRANCH   8   9
BRANCH   8  16
ATOM     16  N   UNL     1       5.303   5.597  18.273  0.00  0.00    +0.000 NA
BRANCH  16  18
ATOM     17  C   UNL     1       5.362   6.029  15.771  0.00  0.00    +0.000 C 
ATOM     18  C   UNL     1       5.683   6.512  17.183  0.00  0.00    +0.000 C 
ENDBRANCH  16  18
BRANCH  16  19
ATOM     19  C   UNL     1       6.381   5.377  19.261  0.00  0.00    +0.000 C 
ATOM     20  C   UNL     1       7.742   6.000  18.950  0.00  0.00    +0.000 C 
ENDBRANCH  16  19
ENDBRANCH   8  16
ENDBRANCH   7   8
ENDBRANCH   1   7
BRANCH   4  21
ATOM     21  C   UNL     1      -0.403  10.122  19.872  0.00  0.00    +0.000 C 
BRANCH  21  22
ATOM     22  C   UNL     1      -1.189  11.352  20.368  0.00  0.00    +0.000 C 
ATOM     23  C   UNL     1      -0.355  12.214  21.303  0.00  0.00    +0.000 C 
BRANCH  22  24
ATOM     24  C   UNL     1      -1.683  12.161  19.166  0.00  0.00    +0.000 C 
ATOM     25  O   UNL     1      -0.955  12.911  18.523  0.00  0.00    +0.000 OA
BRANCH  24  26
ATOM     26  C   UNL     1      -3.093  11.946  18.721  0.00  0.00    +0.000 A 
ATOM     27  C   UNL     1      -3.387  11.380  17.470  0.00  0.00    +0.000 A 
ATOM     28  C   UNL     1      -4.706  11.282  17.032  0.00  0.00    +0.000 A 
ATOM     29  C   UNL     1      -5.734  11.745  17.846  0.00  0.00    +0.000 A 
ATOM     30  C   UNL     1      -5.464  12.268  19.106  0.00  0.00    +0.000 A 
ATOM     31  C   UNL     1      -4.141  12.365  19.549  0.00  0.00    +0.000 A 
BRANCH  29  32
ATOM     32  O   UNL     1      -7.031  11.710  17.430  0.00  0.00    +0.000 OA
ATOM     33  H   UNL     1      -7.381  12.618  17.424  0.00  0.00    +0.000 HD
ENDBRANCH  29  32
ENDBRANCH  24  26
ENDBRANCH  22  24
ENDBRANCH  21  22
ENDBRANCH   4  21
TORSDOF 11
ENDMDL
MODEL 8
REMARK VINA RESULT:      -6.7      3.235      5.388
REMARK  Name = 
REMARK  14 active torsions:
REMARK  status: ('A' for Active; 'I' for Inactive)
REMARK    1  A    between atoms: C_1  and  C_2
REMARK    2  A    between atoms: C_2  and  N_3
REMARK    3  A    between atoms: N_3  and  C_4
REMARK    4  A    between atoms: N_3  and  C_6
REMARK    5  A    between atoms: C_4  and  C_5
REMARK    6  A    between atoms: C_6  and  C_7
REMARK    7  A    between atoms: C_6  and  C_26
REMARK    8  A    between atoms: C_7  and  N_8
REMARK    9  A    between atoms: N_11  and  C_12
REMARK   10  A    between atoms: C_12  and  C_13
REMARK   11  A    between atoms: C_13  and  C_14
REMARK   12  A    between atoms: C_13  and  C_15
REMARK   13  A    between atoms: C_15  and  C_17
REMARK   14  A    between atoms: C_20  and  O_21
REMARK                            x       y       z     vdW  Elec       q    Type
REMARK                         _______ _______ _______ _____ _____    ______ ____
ROOT
ATOM      1  N   UNL     1       2.143   7.505  18.767  0.00  0.00    +0.000 NA
ATOM      2  C   UNL     1       1.471   7.897  20.030  0.00  0.00    +0.000 C 
ATOM      3  C   UNL     1       1.517   9.408  20.356  0.00  0.00    +0.000 C 
ATOM      4  N   UNL     1       0.995  10.260  19.268  0.00  0.00    +0.000 NA
ATOM      5  C   UNL     1       1.819   9.961  18.073  0.00  0.00    +0.000 C 
ATOM      6  C   UNL     1       1.838   8.462  17.680  0.00  0.00    +0.000 C 
ENDROOT
BRANCH   1   7
ATOM      7  C   UNL     1       3.588   7.332  19.004  0.00  0.00    +0.000 C 
BRANCH   7   8
ATOM      8  C   UNL     1       4.207   5.881  19.071  0.00  0.00    +0.000 C 
BRANCH   8   9
ATOM      9  C   UNL     1       3.066   4.840  18.964  0.00  0.00    +0.000 A 
ATOM     10  C   UNL     1       2.467   4.340  20.132  0.00  0.00    +0.000 A 
ATOM     11  C   UNL     1       1.434   3.400  20.055  0.00  0.00    +0.000 A 
ATOM     12  C   UNL     1       1.000   2.951  18.815  0.00  0.00    +0.000 A 
ATOM     13  F   UNL     1       0.019   2.037  18.746  0.00  0.00    +0.000 F 
ATOM     14  C   UNL     1       1.565   3.427  17.647  0.00  0.00    +0.000 A 
ATOM     15  C   UNL     1       2.593   4.370  17.720  0.00  0.00    +0.000 A 
ENDBRANCH   8   9
BRANCH   8  16
ATOM     16  N   UNL     1       5.357   5.542  18.160  0.00  0.00    +0.000 NA
BRANCH  16  18
ATOM     17  C   UNL     1       5.381   5.936  15.651  0.00  0.00    +0.000 C 
ATOM     18  C   UNL     1       5.496   6.512  17.060  0.00  0.00    +0.000 C 
ENDBRANCH  16  18
BRANCH  16  19
ATOM     19  C   UNL     1       6.600   5.353  18.939  0.00  0.00    +0.000 C 
ATOM     20  C   UNL     1       7.769   6.282  18.613  0.00  0.00    +0.000 C 
ENDBRANCH  16  19
ENDBRANCH   8  16
ENDBRANCH   7   8
ENDBRANCH   1   7
BRANCH   4  21
ATOM     21  C   UNL     1      -0.441  10.015  18.975  0.00  0.00    +0.000 C 
BRANCH  21  22
ATOM     22  C   UNL     1      -1.191  11.233  18.399  0.00  0.00    +0.000 C 
ATOM     23  C   UNL     1      -2.668  10.935  18.184  0.00  0.00    +0.000 C 
BRANCH  22  24
ATOM     24  C   UNL     1      -1.002  12.436  19.328  0.00  0.00    +0.000 C 
ATOM     25  O   UNL     1      -0.376  13.438  18.998  0.00  0.00    +0.000 OA
BRANCH  24  26
ATOM     26  C   UNL     1      -1.693  12.401  20.652  0.00  0.00    +0.000 A 
ATOM     27  C   UNL     1      -1.094  11.804  21.773  0.00  0.00    +0.000 A 
ATOM     28  C   UNL     1      -1.797  11.690  22.971  0.00  0.00    +0.000 A 
ATOM     29  C   UNL     1      -3.097  12.178  23.052  0.00  0.00    +0.000 A 
ATOM     30  C   UNL     1      -3.688  12.811  21.965  0.00  0.00    +0.000 A 
ATOM     31  C   UNL     1      -2.985  12.929  20.762  0.00  0.00    +0.000 A 
BRANCH  29  32
ATOM     32  O   UNL     1      -3.831  12.041  24.192  0.00  0.00    +0.000 OA
ATOM     33  H   UNL     1      -4.188  11.137  24.226  0.00  0.00    +0.000 HD
ENDBRANCH  29  32
ENDBRANCH  24  26
ENDBRANCH  22  24
ENDBRANCH  21  22
ENDBRANCH   4  21
TORSDOF 11
ENDMDL
MODEL 9
REMARK VINA RESULT:      -6.7      2.165      3.974
REMARK  Name = 
REMARK  14 active torsions:
REMARK  status: ('A' for Active; 'I' for Inactive)
REMARK    1  A    between atoms: C_1  and  C_2
REMARK    2  A    between atoms: C_2  and  N_3
REMARK    3  A    between atoms: N_3  and  C_4
REMARK    4  A    between atoms: N_3  and  C_6
REMARK    5  A    between atoms: C_4  and  C_5
REMARK    6  A    between atoms: C_6  and  C_7
REMARK    7  A    between atoms: C_6  and  C_26
REMARK    8  A    between atoms: C_7  and  N_8
REMARK    9  A    between atoms: N_11  and  C_12
REMARK   10  A    between atoms: C_12  and  C_13
REMARK   11  A    between atoms: C_13  and  C_14
REMARK   12  A    between atoms: C_13  and  C_15
REMARK   13  A    between atoms: C_15  and  C_17
REMARK   14  A    between atoms: C_20  and  O_21
REMARK                            x       y       z     vdW  Elec       q    Type
REMARK                         _______ _______ _______ _____ _____    ______ ____
ROOT
ATOM      1  N   UNL     1       2.541   7.589  19.004  0.00  0.00    +0.000 NA
ATOM      2  C   UNL     1       2.361   8.610  17.943  0.00  0.00    +0.000 C 
ATOM      3  C   UNL     1       0.944   9.223  17.857  0.00  0.00    +0.000 C 
ATOM      4  N   UNL     1       0.471   9.792  19.136  0.00  0.00    +0.000 NA
ATOM      5  C   UNL     1       0.499   8.685  20.120  0.00  0.00    +0.000 C 
ATOM      6  C   UNL     1       1.884   8.005  20.263  0.00  0.00    +0.000 C 
ENDROOT
BRANCH   1   7
ATOM      7  C   UNL     1       2.086   6.275  18.513  0.00  0.00    +0.000 C 
BRANCH   7   8
ATOM      8  C   UNL     1       3.092   5.060  18.464  0.00  0.00    +0.000 C 
BRANCH   8   9
ATOM      9  C   UNL     1       4.530   5.603  18.277  0.00  0.00    +0.000 A 
ATOM     10  C   UNL     1       5.518   5.300  19.228  0.00  0.00    +0.000 A 
ATOM     11  C   UNL     1       6.823   5.780  19.076  0.00  0.00    +0.000 A 
ATOM     12  C   UNL     1       7.146   6.568  17.979  0.00  0.00    +0.000 A 
ATOM     13  F   UNL     1       8.395   7.040  17.845  0.00  0.00    +0.000 F 
ATOM     14  C   UNL     1       6.198   6.880  17.023  0.00  0.00    +0.000 A 
ATOM     15  C   UNL     1       4.895   6.397  17.169  0.00  0.00    +0.000 A 
ENDBRANCH   8   9
BRANCH   8  16
ATOM     16  N   UNL     1       3.027   4.021  19.552  0.00  0.00    +0.000 NA
BRANCH  16  18
ATOM     17  C   UNL     1       1.014   3.175  20.848  0.00  0.00    +0.000 C 
ATOM     18  C   UNL     1       1.976   4.320  20.539  0.00  0.00    +0.000 C 
ENDBRANCH  16  18
BRANCH  16  19
ATOM     19  C   UNL     1       2.922   2.664  18.971  0.00  0.00    +0.000 C 
ATOM     20  C   UNL     1       2.512   2.572  17.502  0.00  0.00    +0.000 C 
ENDBRANCH  16  19
ENDBRANCH   8  16
ENDBRANCH   7   8
ENDBRANCH   1   7
BRANCH   4  21
ATOM     21  C   UNL     1       1.307  10.925  19.613  0.00  0.00    +0.000 C 
BRANCH  21  22
ATOM     22  C   UNL     1       0.596  12.292  19.602  0.00  0.00    +0.000 C 
ATOM     23  C   UNL     1       1.126  13.194  18.497  0.00  0.00    +0.000 C 
BRANCH  22  24
ATOM     24  C   UNL     1      -0.915  12.081  19.463  0.00  0.00    +0.000 C 
ATOM     25  O   UNL     1      -1.455  11.829  18.391  0.00  0.00    +0.000 OA
BRANCH  24  26
ATOM     26  C   UNL     1      -1.732  12.102  20.713  0.00  0.00    +0.000 A 
ATOM     27  C   UNL     1      -3.009  12.682  20.742  0.00  0.00    +0.000 A 
ATOM     28  C   UNL     1      -3.712  12.783  21.942  0.00  0.00    +0.000 A 
ATOM     29  C   UNL     1      -3.140  12.298  23.113  0.00  0.00    +0.000 A 
ATOM     30  C   UNL     1      -1.895  11.681  23.094  0.00  0.00    +0.000 A 
ATOM     31  C   UNL     1      -1.188  11.576  21.892  0.00  0.00    +0.000 A 
BRANCH  29  32
ATOM     32  O   UNL     1      -3.777  12.423  24.311  0.00  0.00    +0.000 OA
ATOM     33  H   UNL     1      -3.217  12.032  25.004  0.00  0.00    +0.000 HD
ENDBRANCH  29  32
ENDBRANCH  24  26
ENDBRANCH  22  24
ENDBRANCH  21  22
ENDBRANCH   4  21
TORSDOF 11
ENDMDL
