MODEL 1
REMARK VINA RESULT:      -8.6      0.000      0.000
REMARK  Name = 
REMARK  9 active torsions:
REMARK  status: ('A' for Active; 'I' for Inactive)
REMARK    1  A    between atoms: N_1  and  C_2
REMARK    2  A    between atoms: C_2  and  C_3
REMARK    3  A    between atoms: C_2  and  C_25
REMARK    4  A    between atoms: C_3  and  C_4
REMARK    5  A    between atoms: N_10  and  S_11
REMARK    6  A    between atoms: S_11  and  C_14
REMARK    7  A    between atoms: C_17  and  C_18
REMARK    8  A    between atoms: C_18  and  O_20
REMARK    9  A    between atoms: C_25  and  C_26
REMARK                            x       y       z     vdW  Elec       q    Type
REMARK                         _______ _______ _______ _____ _____    ______ ____
ROOT
ATOM      1  C   UNL     1       1.313   8.333  20.372  0.00  0.00    +0.000 C 
ATOM      2  O   UNL     1       1.258   9.309  19.631  0.00  0.00    +0.000 OA
ATOM      3  N   UNL     1       1.901   7.122  19.978  0.00  0.00    +0.000 N 
ATOM      4  C   UNL     1       2.079   5.977  20.878  0.00  0.00    +0.000 C 
ATOM      5  C   UNL     1       1.385   4.684  20.455  0.00  0.00    +0.000 C 
ATOM      6  C   UNL     1       1.633   4.140  19.054  0.00  0.00    +0.000 C 
ATOM      7  N   UNL     1       2.822   4.695  18.403  0.00  0.00    +0.000 NA
ATOM      8  C   UNL     1       2.619   6.034  17.797  0.00  0.00    +0.000 C 
ATOM      9  C   UNL     1       2.788   7.176  18.800  0.00  0.00    +0.000 C 
ENDROOT
BRANCH   7  10
ATOM     10  S   UNL     1       4.369   4.230  18.883  0.00  0.00    +0.000 S 
ATOM     11  O   UNL     1       4.887   5.216  19.804  0.00  0.00    +0.000 OA
ATOM     12  O   UNL     1       4.344   2.820  19.219  0.00  0.00    +0.000 OA
BRANCH  10  13
ATOM     13  C   UNL     1       5.307   4.385  17.383  0.00  0.00    +0.000 A 
ATOM     14  C   UNL     1       4.710   4.033  16.169  0.00  0.00    +0.000 A 
ATOM     15  C   UNL     1       5.422   4.207  14.983  0.00  0.00    +0.000 A 
ATOM     16  C   UNL     1       6.722   4.736  15.004  0.00  0.00    +0.000 A 
ATOM     17  C   UNL     1       7.293   5.131  16.222  0.00  0.00    +0.000 A 
ATOM     18  C   UNL     1       6.588   4.946  17.414  0.00  0.00    +0.000 A 
BRANCH  16  19
ATOM     19  C   UNL     1       7.423   4.904  13.704  0.00  0.00    +0.000 C 
ATOM     20  O   UNL     1       8.328   5.708  13.544  0.00  0.00    +0.000 OA
BRANCH  19  21
ATOM     21  O   UNL     1       6.945   4.131  12.709  0.00  0.00    +0.000 OA
ATOM     22  H   UNL     1       5.977   4.057  12.653  0.00  0.00    +0.000 HD
ENDBRANCH  19  21
ENDBRANCH  16  19
ENDBRANCH  10  13
ENDBRANCH   7  10
BRANCH   1  23
ATOM     23  C   UNL     1       0.763   8.383  21.789  0.00  0.00    +0.000 C 
BRANCH  23  24
ATOM     24  C   UNL     1       0.519   9.791  22.346  0.00  0.00    +0.000 C 
BRANCH  24  25
ATOM     25  N   UNL     1       0.393   9.677  23.816  0.00  0.00    +0.000 NA
ATOM     26  H   UNL     1       1.174  10.146  24.274  0.00  0.00    +0.000 HD
ATOM     27  H   UNL     1       0.440   8.698  24.096  0.00  0.00    +0.000 HD
ENDBRANCH  24  25
BRANCH  24  28
ATOM     28  C   UNL     1      -0.747  10.455  21.753  0.00  0.00    +0.000 C 
BRANCH  28  29
ATOM     29  C   UNL     1      -1.203  11.747  22.401  0.00  0.00    +0.000 A 
ATOM     30  C   UNL     1      -2.347  11.835  23.212  0.00  0.00    +0.000 A 
ATOM     31  C   UNL     1      -2.738  13.065  23.736  0.00  0.00    +0.000 A 
ATOM     32  F   UNL     1      -3.855  13.139  24.474  0.00  0.00    +0.000 F 
ATOM     33  C   UNL     1      -1.988  14.208  23.489  0.00  0.00    +0.000 A 
ATOM     34  F   UNL     1      -2.382  15.392  23.976  0.00  0.00    +0.000 F 
ATOM     35  C   UNL     1      -0.825  14.136  22.737  0.00  0.00    +0.000 A 
ATOM     36  C   UNL     1      -0.441  12.908  22.206  0.00  0.00    +0.000 A 
ATOM     37  F   UNL     1       0.684  12.851  21.478  0.00  0.00    +0.000 F 
ENDBRANCH  28  29
ENDBRANCH  24  28
ENDBRANCH  23  24
ENDBRANCH   1  23
TORSDOF 9
ENDMDL
MODEL 2
REMARK VINA RESULT:      -8.4      4.899     11.025
REMARK  Name = 
REMARK  9 active torsions:
REMARK  status: ('A' for Active; 'I' for Inactive)
REMARK    1  A    between atoms: N_1  and  C_2
REMARK    2  A    between atoms: C_2  and  C_3
REMARK    3  A    between atoms: C_2  and  C_25
REMARK    4  A    between atoms: C_3  and  C_4
REMARK    5  A    between atoms: N_10  and  S_11
REMARK    6  A    between atoms: S_11  and  C_14
REMARK    7  A    between atoms: C_17  and  C_18
REMARK    8  A    between atoms: C_18  and  O_20
REMARK    9  A    between atoms: C_25  and  C_26
REMARK                            x       y       z     vdW  Elec       q    Type
REMARK                         _______ _______ _______ _____ _____    ______ ____
ROOT
ATOM      1  C   UNL     1       2.311   7.573  19.145  0.00  0.00    +0.000 C 
ATOM      2  O   UNL     1       2.538   6.772  20.047  0.00  0.00    +0.000 OA
ATOM      3  N   UNL     1       1.539   8.728  19.342  0.00  0.00    +0.000 N 
ATOM      4  C   UNL     1       1.344   9.756  18.313  0.00  0.00    +0.000 C 
ATOM      5  C   UNL     1      -0.102  10.008  17.891  0.00  0.00    +0.000 C 
ATOM      6  C   UNL     1      -1.141  10.305  18.965  0.00  0.00    +0.000 C 
ATOM      7  N   UNL     1      -0.569  10.716  20.249  0.00  0.00    +0.000 NA
ATOM      8  C   UNL     1      -0.087   9.593  21.090  0.00  0.00    +0.000 C 
ATOM      9  C   UNL     1       1.333   9.149  20.741  0.00  0.00    +0.000 C 
ENDROOT
BRANCH   7  10
ATOM     10  S   UNL     1       0.108  12.247  20.446  0.00  0.00    +0.000 S 
ATOM     11  O   UNL     1       1.436  12.102  20.997  0.00  0.00    +0.000 OA
ATOM     12  O   UNL     1      -0.130  13.015  19.240  0.00  0.00    +0.000 OA
BRANCH  10  13
ATOM     13  C   UNL     1      -0.903  12.960  21.719  0.00  0.00    +0.000 A 
ATOM     14  C   UNL     1      -2.170  12.423  21.961  0.00  0.00    +0.000 A 
ATOM     15  C   UNL     1      -2.944  12.943  22.998  0.00  0.00    +0.000 A 
ATOM     16  C   UNL     1      -2.455  13.989  23.796  0.00  0.00    +0.000 A 
ATOM     17  C   UNL     1      -1.164  14.488  23.576  0.00  0.00    +0.000 A 
ATOM     18  C   UNL     1      -0.390  13.979  22.530  0.00  0.00    +0.000 A 
BRANCH  16  19
ATOM     19  C   UNL     1      -3.328  14.492  24.890  0.00  0.00    +0.000 C 
ATOM     20  O   UNL     1      -2.882  14.916  25.944  0.00  0.00    +0.000 OA
BRANCH  19  21
ATOM     21  O   UNL     1      -4.648  14.394  24.640  0.00  0.00    +0.000 OA
ATOM     22  H   UNL     1      -4.991  13.496  24.497  0.00  0.00    +0.000 HD
ENDBRANCH  19  21
ENDBRANCH  16  19
ENDBRANCH  10  13
ENDBRANCH   7  10
BRANCH   1  23
ATOM     23  C   UNL     1       2.880   7.375  17.749  0.00  0.00    +0.000 C 
BRANCH  23  24
ATOM     24  C   UNL     1       4.127   6.484  17.671  0.00  0.00    +0.000 C 
BRANCH  24  25
ATOM     25  N   UNL     1       5.040   7.075  16.669  0.00  0.00    +0.000 NA
ATOM     26  H   UNL     1       5.864   6.486  16.551  0.00  0.00    +0.000 HD
ATOM     27  H   UNL     1       5.378   7.981  16.994  0.00  0.00    +0.000 HD
ENDBRANCH  24  25
BRANCH  24  28
ATOM     28  C   UNL     1       3.790   5.022  17.288  0.00  0.00    +0.000 C 
BRANCH  28  29
ATOM     29  C   UNL     1       3.144   4.170  18.364  0.00  0.00    +0.000 A 
ATOM     30  C   UNL     1       3.868   3.589  19.417  0.00  0.00    +0.000 A 
ATOM     31  C   UNL     1       3.221   2.775  20.344  0.00  0.00    +0.000 A 
ATOM     32  F   UNL     1       3.933   2.196  21.320  0.00  0.00    +0.000 F 
ATOM     33  C   UNL     1       1.851   2.555  20.254  0.00  0.00    +0.000 A 
ATOM     34  F   UNL     1       1.238   1.753  21.134  0.00  0.00    +0.000 F 
ATOM     35  C   UNL     1       1.106   3.162  19.254  0.00  0.00    +0.000 A 
ATOM     36  C   UNL     1       1.757   3.967  18.324  0.00  0.00    +0.000 A 
ATOM     37  F   UNL     1       1.028   4.547  17.360  0.00  0.00    +0.000 F 
ENDBRANCH  28  29
ENDBRANCH  24  28
ENDBRANCH  23  24
ENDBRANCH   1  23
TORSDOF 9
ENDMDL
MODEL 3
REMARK VINA RESULT:      -8.4      5.010     11.057
REMARK  Name = 
REMARK  9 active torsions:
REMARK  status: ('A' for Active; 'I' for Inactive)
REMARK    1  A    between atoms: N_1  and  C_2
REMARK    2  A    between atoms: C_2  and  C_3
REMARK    3  A    between atoms: C_2  and  C_25
REMARK    4  A    between atoms: C_3  and  C_4
REMARK    5  A    between atoms: N_10  and  S_11
REMARK    6  A    between atoms: S_11  and  C_14
REMARK    7  A    between atoms: C_17  and  C_18
REMARK    8  A    between atoms: C_18  and  O_20
REMARK    9  A    between atoms: C_25  and  C_26
REMARK                            x       y       z     vdW  Elec       q    Type
REMARK                         _______ _______ _______ _____ _____    ______ ____
ROOT
ATOM      1  C   UNL     1       2.540   7.365  18.989  0.00  0.00    +0.000 C 
ATOM      2  O   UNL     1       2.731   6.478  19.815  0.00  0.00    +0.000 OA
ATOM      3  N   UNL     1       1.738   8.484  19.260  0.00  0.00    +0.000 N 
ATOM      4  C   UNL     1       1.582   9.611  18.334  0.00  0.00    +0.000 C 
ATOM      5  C   UNL     1       0.157   9.888  17.858  0.00  0.00    +0.000 C 
ATOM      6  C   UNL     1      -0.946  10.059  18.895  0.00  0.00    +0.000 C 
ATOM      7  N   UNL     1      -0.452  10.342  20.245  0.00  0.00    +0.000 NA
ATOM      8  C   UNL     1       0.002   9.143  20.993  0.00  0.00    +0.000 C 
ATOM      9  C   UNL     1       1.447   8.755  20.681  0.00  0.00    +0.000 C 
ENDROOT
BRANCH   7  10
ATOM     10  S   UNL     1       0.185  11.852  20.638  0.00  0.00    +0.000 S 
ATOM     11  O   UNL     1       1.352  11.663  21.469  0.00  0.00    +0.000 OA
ATOM     12  O   UNL     1       0.236  12.657  19.433  0.00  0.00    +0.000 OA
BRANCH  10  13
ATOM     13  C   UNL     1      -1.077  12.551  21.673  0.00  0.00    +0.000 A 
ATOM     14  C   UNL     1      -1.560  13.830  21.385  0.00  0.00    +0.000 A 
ATOM     15  C   UNL     1      -2.591  14.361  22.160  0.00  0.00    +0.000 A 
ATOM     16  C   UNL     1      -3.143  13.617  23.215  0.00  0.00    +0.000 A 
ATOM     17  C   UNL     1      -2.684  12.317  23.465  0.00  0.00    +0.000 A 
ATOM     18  C   UNL     1      -1.643  11.786  22.699  0.00  0.00    +0.000 A 
BRANCH  16  19
ATOM     19  C   UNL     1      -4.245  14.237  23.997  0.00  0.00    +0.000 C 
ATOM     20  O   UNL     1      -5.349  14.451  23.522  0.00  0.00    +0.000 OA
BRANCH  19  21
ATOM     21  O   UNL     1      -3.908  14.587  25.254  0.00  0.00    +0.000 OA
ATOM     22  H   UNL     1      -3.710  13.854  25.862  0.00  0.00    +0.000 HD
ENDBRANCH  19  21
ENDBRANCH  16  19
ENDBRANCH  10  13
ENDBRANCH   7  10
BRANCH   1  23
ATOM     23  C   UNL     1       3.189   7.321  17.615  0.00  0.00    +0.000 C 
BRANCH  23  24
ATOM     24  C   UNL     1       4.459   6.465  17.519  0.00  0.00    +0.000 C 
BRANCH  24  25
ATOM     25  N   UNL     1       5.410   7.169  16.631  0.00  0.00    +0.000 NA
ATOM     26  H   UNL     1       5.730   6.544  15.892  0.00  0.00    +0.000 HD
ATOM     27  H   UNL     1       6.240   7.445  17.155  0.00  0.00    +0.000 HD
ENDBRANCH  24  25
BRANCH  24  28
ATOM     28  C   UNL     1       4.178   5.042  16.977  0.00  0.00    +0.000 C 
BRANCH  28  29
ATOM     29  C   UNL     1       3.462   4.088  17.914  0.00  0.00    +0.000 A 
ATOM     30  C   UNL     1       2.133   3.679  17.721  0.00  0.00    +0.000 A 
ATOM     31  C   UNL     1       1.519   2.840  18.648  0.00  0.00    +0.000 A 
ATOM     32  F   UNL     1       0.237   2.491  18.471  0.00  0.00    +0.000 F 
ATOM     33  C   UNL     1       2.222   2.374  19.753  0.00  0.00    +0.000 A 
ATOM     34  F   UNL     1       1.619   1.587  20.653  0.00  0.00    +0.000 F 
ATOM     35  C   UNL     1       3.552   2.721  19.936  0.00  0.00    +0.000 A 
ATOM     36  C   UNL     1       4.160   3.568  19.014  0.00  0.00    +0.000 A 
ATOM     37  F   UNL     1       5.447   3.898  19.201  0.00  0.00    +0.000 F 
ENDBRANCH  28  29
ENDBRANCH  24  28
ENDBRANCH  23  24
ENDBRANCH   1  23
TORSDOF 9
ENDMDL
MODEL 4
REMARK VINA RESULT:      -8.3      3.177      3.967
REMARK  Name = 
REMARK  9 active torsions:
REMARK  status: ('A' for Active; 'I' for Inactive)
REMARK    1  A    between atoms: N_1  and  C_2
REMARK    2  A    between atoms: C_2  and  C_3
REMARK    3  A    between atoms: C_2  and  C_25
REMARK    4  A    between atoms: C_3  and  C_4
REMARK    5  A    between atoms: N_10  and  S_11
REMARK    6  A    between atoms: S_11  and  C_14
REMARK    7  A    between atoms: C_17  and  C_18
REMARK    8  A    between atoms: C_18  and  O_20
REMARK    9  A    between atoms: C_25  and  C_26
REMARK                            x       y       z     vdW  Elec       q    Type
REMARK                         _______ _______ _______ _____ _____    ______ ____
ROOT
ATOM      1  C   UNL     1       1.726   8.742  18.562  0.00  0.00    +0.000 C 
ATOM      2  O   UNL     1       1.537   9.176  17.429  0.00  0.00    +0.000 OA
ATOM      3  N   UNL     1       2.281   7.475  18.797  0.00  0.00    +0.000 N 
ATOM      4  C   UNL     1       2.619   6.976  20.135  0.00  0.00    +0.000 C 
ATOM      5  C   UNL     1       1.904   5.697  20.569  0.00  0.00    +0.000 C 
ATOM      6  C   UNL     1       1.956   4.479  19.655  0.00  0.00    +0.000 C 
ATOM      7  N   UNL     1       3.022   4.534  18.652  0.00  0.00    +0.000 NA
ATOM      8  C   UNL     1       2.697   5.356  17.460  0.00  0.00    +0.000 C 
ATOM      9  C   UNL     1       2.983   6.843  17.664  0.00  0.00    +0.000 C 
ENDROOT
BRANCH   7  10
ATOM     10  S   UNL     1       4.634   4.307  19.087  0.00  0.00    +0.000 S 
ATOM     11  O   UNL     1       5.058   5.423  19.902  0.00  0.00    +0.000 OA
ATOM     12  O   UNL     1       4.804   2.938  19.531  0.00  0.00    +0.000 OA
BRANCH  10  13
ATOM     13  C   UNL     1       5.482   4.454  17.534  0.00  0.00    +0.000 A 
ATOM     14  C   UNL     1       5.125   3.607  16.482  0.00  0.00    +0.000 A 
ATOM     15  C   UNL     1       5.747   3.757  15.243  0.00  0.00    +0.000 A 
ATOM     16  C   UNL     1       6.719   4.752  15.050  0.00  0.00    +0.000 A 
ATOM     17  C   UNL     1       7.035   5.628  16.098  0.00  0.00    +0.000 A 
ATOM     18  C   UNL     1       6.422   5.473  17.345  0.00  0.00    +0.000 A 
BRANCH  16  19
ATOM     19  C   UNL     1       7.338   4.864  13.703  0.00  0.00    +0.000 C 
ATOM     20  O   UNL     1       6.988   4.175  12.760  0.00  0.00    +0.000 OA
BRANCH  19  21
ATOM     21  O   UNL     1       8.348   5.753  13.626  0.00  0.00    +0.000 OA
ATOM     22  H   UNL     1       8.902   5.840  14.420  0.00  0.00    +0.000 HD
ENDBRANCH  19  21
ENDBRANCH  16  19
ENDBRANCH  10  13
ENDBRANCH   7  10
BRANCH   1  23
ATOM     23  C   UNL     1       1.391   9.568  19.793  0.00  0.00    +0.000 C 
BRANCH  23  24
ATOM     24  C   UNL     1       0.441  10.748  19.549  0.00  0.00    +0.000 C 
BRANCH  24  25
ATOM     25  N   UNL     1       0.816  11.828  20.488  0.00  0.00    +0.000 NA
ATOM     26  H   UNL     1       1.265  12.593  19.984  0.00  0.00    +0.000 HD
ATOM     27  H   UNL     1       1.501  11.485  21.161  0.00  0.00    +0.000 HD
ENDBRANCH  24  25
BRANCH  24  28
ATOM     28  C   UNL     1      -1.046  10.366  19.744  0.00  0.00    +0.000 C 
BRANCH  28  29
ATOM     29  C   UNL     1      -1.949  10.509  18.534  0.00  0.00    +0.000 A 
ATOM     30  C   UNL     1      -1.779   9.759  17.359  0.00  0.00    +0.000 A 
ATOM     31  C   UNL     1      -2.613   9.976  16.265  0.00  0.00    +0.000 A 
ATOM     32  F   UNL     1      -2.413   9.280  15.137  0.00  0.00    +0.000 F 
ATOM     33  C   UNL     1      -3.638  10.912  16.334  0.00  0.00    +0.000 A 
ATOM     34  F   UNL     1      -4.422  11.134  15.271  0.00  0.00    +0.000 F 
ATOM     35  C   UNL     1      -3.860  11.626  17.502  0.00  0.00    +0.000 A 
ATOM     36  C   UNL     1      -3.018  11.414  18.591  0.00  0.00    +0.000 A 
ATOM     37  F   UNL     1      -3.240  12.112  19.714  0.00  0.00    +0.000 F 
ENDBRANCH  28  29
ENDBRANCH  24  28
ENDBRANCH  23  24
ENDBRANCH   1  23
TORSDOF 9
ENDMDL
MODEL 5
REMARK VINA RESULT:      -8.3      4.813     11.279
REMARK  Name = 
REMARK  9 active torsions:
REMARK  status: ('A' for Active; 'I' for Inactive)
REMARK    1  A    between atoms: N_1  and  C_2
REMARK    2  A    between atoms: C_2  and  C_3
REMARK    3  A    between atoms: C_2  and  C_25
REMARK    4  A    between atoms: C_3  and  C_4
REMARK    5  A    between atoms: N_10  and  S_11
REMARK    6  A    between atoms: S_11  and  C_14
REMARK    7  A    between atoms: C_17  and  C_18
REMARK    8  A    between atoms: C_18  and  O_20
REMARK    9  A    between atoms: C_25  and  C_26
REMARK                            x       y       z     vdW  Elec       q    Type
REMARK                         _______ _______ _______ _____ _____    ______ ____
ROOT
ATOM      1  C   UNL     1       2.549   7.486  19.116  0.00  0.00    +0.000 C 
ATOM      2  O   UNL     1       2.707   6.547  19.891  0.00  0.00    +0.000 OA
ATOM      3  N   UNL     1       1.636   8.522  19.368  0.00  0.00    +0.000 N 
ATOM      4  C   UNL     1       1.506   9.710  18.517  0.00  0.00    +0.000 C 
ATOM      5  C   UNL     1       0.130   9.930  17.889  0.00  0.00    +0.000 C 
ATOM      6  C   UNL     1      -1.097   9.939  18.791  0.00  0.00    +0.000 C 
ATOM      7  N   UNL     1      -0.791  10.140  20.210  0.00  0.00    +0.000 NA
ATOM      8  C   UNL     1      -0.339   8.916  20.916  0.00  0.00    +0.000 C 
ATOM      9  C   UNL     1       1.159   8.653  20.758  0.00  0.00    +0.000 C 
ENDROOT
BRANCH   7  10
ATOM     10  S   UNL     1      -0.323  11.651  20.791  0.00  0.00    +0.000 S 
ATOM     11  O   UNL     1       0.686  11.466  21.809  0.00  0.00    +0.000 OA
ATOM     12  O   UNL     1      -0.105  12.532  19.660  0.00  0.00    +0.000 OA
BRANCH  10  13
ATOM     13  C   UNL     1      -1.787  12.224  21.616  0.00  0.00    +0.000 A 
ATOM     14  C   UNL     1      -2.016  11.839  22.939  0.00  0.00    +0.000 A 
ATOM     15  C   UNL     1      -3.134  12.332  23.610  0.00  0.00    +0.000 A 
ATOM     16  C   UNL     1      -4.020  13.211  22.966  0.00  0.00    +0.000 A 
ATOM     17  C   UNL     1      -3.755  13.629  21.655  0.00  0.00    +0.000 A 
ATOM     18  C   UNL     1      -2.643  13.126  20.975  0.00  0.00    +0.000 A 
BRANCH  16  19
ATOM     19  C   UNL     1      -5.189  13.707  23.740  0.00  0.00    +0.000 C 
ATOM     20  O   UNL     1      -5.777  14.737  23.453  0.00  0.00    +0.000 OA
BRANCH  19  21
ATOM     21  O   UNL     1      -5.511  12.952  24.809  0.00  0.00    +0.000 OA
ATOM     22  H   UNL     1      -6.081  13.374  25.473  0.00  0.00    +0.000 HD
ENDBRANCH  19  21
ENDBRANCH  16  19
ENDBRANCH  10  13
ENDBRANCH   7  10
BRANCH   1  23
ATOM     23  C   UNL     1       3.358   7.601  17.834  0.00  0.00    +0.000 C 
BRANCH  23  24
ATOM     24  C   UNL     1       4.445   6.533  17.650  0.00  0.00    +0.000 C 
BRANCH  24  25
ATOM     25  N   UNL     1       5.597   7.177  16.981  0.00  0.00    +0.000 NA
ATOM     26  H   UNL     1       6.038   7.849  17.609  0.00  0.00    +0.000 HD
ATOM     27  H   UNL     1       5.280   7.705  16.169  0.00  0.00    +0.000 HD
ENDBRANCH  24  25
BRANCH  24  28
ATOM     28  C   UNL     1       3.955   5.323  16.819  0.00  0.00    +0.000 C 
BRANCH  28  29
ATOM     29  C   UNL     1       3.359   4.164  17.594  0.00  0.00    +0.000 A 
ATOM     30  C   UNL     1       4.139   3.162  18.193  0.00  0.00    +0.000 A 
ATOM     31  C   UNL     1       3.525   2.097  18.848  0.00  0.00    +0.000 A 
ATOM     32  F   UNL     1       4.283   1.127  19.379  0.00  0.00    +0.000 F 
ATOM     33  C   UNL     1       2.140   2.030  18.942  0.00  0.00    +0.000 A 
ATOM     34  F   UNL     1       1.555   0.991  19.553  0.00  0.00    +0.000 F 
ATOM     35  C   UNL     1       1.350   3.036  18.406  0.00  0.00    +0.000 A 
ATOM     36  C   UNL     1       1.966   4.094  17.743  0.00  0.00    +0.000 A 
ATOM     37  F   UNL     1       1.193   5.060  17.226  0.00  0.00    +0.000 F 
ENDBRANCH  28  29
ENDBRANCH  24  28
ENDBRANCH  23  24
ENDBRANCH   1  23
TORSDOF 9
ENDMDL
MODEL 6
REMARK VINA RESULT:      -8.2      5.065     11.094
REMARK  Name = 
REMARK  9 active torsions:
REMARK  status: ('A' for Active; 'I' for Inactive)
REMARK    1  A    between atoms: N_1  and  C_2
REMARK    2  A    between atoms: C_2  and  C_3
REMARK    3  A    between atoms: C_2  and  C_25
REMARK    4  A    between atoms: C_3  and  C_4
REMARK    5  A    between atoms: N_10  and  S_11
REMARK    6  A    between atoms: S_11  and  C_14
REMARK    7  A    between atoms: C_17  and  C_18
REMARK    8  A    between atoms: C_18  and  O_20
REMARK    9  A    between atoms: C_25  and  C_26
REMARK                            x       y       z     vdW  Elec       q    Type
REMARK                         _______ _______ _______ _____ _____    ______ ____
ROOT
ATOM      1  C   UNL     1       1.996   6.941  19.893  0.00  0.00    +0.000 C 
ATOM      2  O   UNL     1       1.771   6.122  20.779  0.00  0.00    +0.000 OA
ATOM      3  N   UNL     1       1.402   8.212  19.877  0.00  0.00    +0.000 N 
ATOM      4  C   UNL     1       1.735   9.249  18.894  0.00  0.00    +0.000 C 
ATOM      5  C   UNL     1       0.578   9.740  18.026  0.00  0.00    +0.000 C 
ATOM      6  C   UNL     1      -0.700  10.218  18.704  0.00  0.00    +0.000 C 
ATOM      7  N   UNL     1      -0.535  10.538  20.124  0.00  0.00    +0.000 NA
ATOM      8  C   UNL     1      -0.556   9.357  21.022  0.00  0.00    +0.000 C 
ATOM      9  C   UNL     1       0.807   8.675  21.145  0.00  0.00    +0.000 C 
ENDROOT
BRANCH   7  10
ATOM     10  S   UNL     1       0.275  11.933  20.610  0.00  0.00    +0.000 S 
ATOM     11  O   UNL     1       1.303  11.568  21.558  0.00  0.00    +0.000 OA
ATOM     12  O   UNL     1       0.577  12.725  19.434  0.00  0.00    +0.000 OA
BRANCH  10  13
ATOM     13  C   UNL     1      -0.972  12.813  21.518  0.00  0.00    +0.000 A 
ATOM     14  C   UNL     1      -1.180  12.500  22.863  0.00  0.00    +0.000 A 
ATOM     15  C   UNL     1      -2.119  13.227  23.596  0.00  0.00    +0.000 A 
ATOM     16  C   UNL     1      -2.843  14.267  22.991  0.00  0.00    +0.000 A 
ATOM     17  C   UNL     1      -2.591  14.604  21.654  0.00  0.00    +0.000 A 
ATOM     18  C   UNL     1      -1.662  13.870  20.913  0.00  0.00    +0.000 A 
BRANCH  16  19
ATOM     19  C   UNL     1      -3.822  15.008  23.829  0.00  0.00    +0.000 C 
ATOM     20  O   UNL     1      -4.641  15.779  23.357  0.00  0.00    +0.000 OA
BRANCH  19  21
ATOM     21  O   UNL     1      -3.696  14.794  25.154  0.00  0.00    +0.000 OA
ATOM     22  H   UNL     1      -3.744  13.867  25.443  0.00  0.00    +0.000 HD
ENDBRANCH  19  21
ENDBRANCH  16  19
ENDBRANCH  10  13
ENDBRANCH   7  10
BRANCH   1  23
ATOM     23  C   UNL     1       2.962   6.637  18.760  0.00  0.00    +0.000 C 
BRANCH  23  24
ATOM     24  C   UNL     1       2.777   5.268  18.092  0.00  0.00    +0.000 C 
BRANCH  24  25
ATOM     25  N   UNL     1       2.417   4.298  19.150  0.00  0.00    +0.000 NA
ATOM     26  H   UNL     1       2.429   3.349  18.776  0.00  0.00    +0.000 HD
ATOM     27  H   UNL     1       1.465   4.469  19.472  0.00  0.00    +0.000 HD
ENDBRANCH  24  25
BRANCH  24  28
ATOM     28  C   UNL     1       4.047   4.794  17.345  0.00  0.00    +0.000 C 
BRANCH  28  29
ATOM     29  C   UNL     1       5.350   5.469  17.726  0.00  0.00    +0.000 A 
ATOM     30  C   UNL     1       6.122   5.075  18.831  0.00  0.00    +0.000 A 
ATOM     31  C   UNL     1       7.284   5.770  19.155  0.00  0.00    +0.000 A 
ATOM     32  F   UNL     1       7.988   5.407  20.236  0.00  0.00    +0.000 F 
ATOM     33  C   UNL     1       7.709   6.838  18.373  0.00  0.00    +0.000 A 
ATOM     34  F   UNL     1       8.815   7.518  18.703  0.00  0.00    +0.000 F 
ATOM     35  C   UNL     1       6.993   7.211  17.245  0.00  0.00    +0.000 A 
ATOM     36  C   UNL     1       5.826   6.521  16.929  0.00  0.00    +0.000 A 
ATOM     37  F   UNL     1       5.140   6.891  15.838  0.00  0.00    +0.000 F 
ENDBRANCH  28  29
ENDBRANCH  24  28
ENDBRANCH  23  24
ENDBRANCH   1  23
TORSDOF 9
ENDMDL
MODEL 7
REMARK VINA RESULT:      -8.1      4.807     11.267
REMARK  Name = 
REMARK  9 active torsions:
REMARK  status: ('A' for Active; 'I' for Inactive)
REMARK    1  A    between atoms: N_1  and  C_2
REMARK    2  A    between atoms: C_2  and  C_3
REMARK    3  A    between atoms: C_2  and  C_25
REMARK    4  A    between atoms: C_3  and  C_4
REMARK    5  A    between atoms: N_10  and  S_11
REMARK    6  A    between atoms: S_11  and  C_14
REMARK    7  A    between atoms: C_17  and  C_18
REMARK    8  A    between atoms: C_18  and  O_20
REMARK    9  A    between atoms: C_25  and  C_26
REMARK                            x       y       z     vdW  Elec       q    Type
REMARK                         _______ _______ _______ _____ _____    ______ ____
ROOT
ATOM      1  C   UNL     1       2.522   7.511  19.143  0.00  0.00    +0.000 C 
ATOM      2  O   UNL     1       2.683   6.584  19.933  0.00  0.00    +0.000 OA
ATOM      3  N   UNL     1       1.628   8.563  19.392  0.00  0.00    +0.000 N 
ATOM      4  C   UNL     1       1.496   9.736  18.521  0.00  0.00    +0.000 C 
ATOM      5  C   UNL     1       0.112   9.962  17.914  0.00  0.00    +0.000 C 
ATOM      6  C   UNL     1      -1.098  10.004  18.839  0.00  0.00    +0.000 C 
ATOM      7  N   UNL     1      -0.763  10.228  20.247  0.00  0.00    +0.000 NA
ATOM      8  C   UNL     1      -0.313   9.012  20.968  0.00  0.00    +0.000 C 
ATOM      9  C   UNL     1       1.178   8.727  20.788  0.00  0.00    +0.000 C 
ENDROOT
BRANCH   7  10
ATOM     10  S   UNL     1      -0.265  11.743  20.790  0.00  0.00    +0.000 S 
ATOM     11  O   UNL     1       0.752  11.565  21.800  0.00  0.00    +0.000 OA
ATOM     12  O   UNL     1      -0.046  12.596  19.638  0.00  0.00    +0.000 OA
BRANCH  10  13
ATOM     13  C   UNL     1      -1.711  12.357  21.618  0.00  0.00    +0.000 A 
ATOM     14  C   UNL     1      -2.557  13.241  20.943  0.00  0.00    +0.000 A 
ATOM     15  C   UNL     1      -3.723  13.680  21.568  0.00  0.00    +0.000 A 
ATOM     16  C   UNL     1      -4.050  13.235  22.859  0.00  0.00    +0.000 A 
ATOM     17  C   UNL     1      -3.220  12.311  23.508  0.00  0.00    +0.000 A 
ATOM     18  C   UNL     1      -2.043  11.878  22.890  0.00  0.00    +0.000 A 
BRANCH  16  19
ATOM     19  C   UNL     1      -5.312  13.735  23.466  0.00  0.00    +0.000 C 
ATOM     20  O   UNL     1      -5.916  13.119  24.329  0.00  0.00    +0.000 OA
BRANCH  19  21
ATOM     21  O   UNL     1      -5.757  14.898  22.948  0.00  0.00    +0.000 OA
ATOM     22  H   UNL     1      -6.132  14.850  22.052  0.00  0.00    +0.000 HD
ENDBRANCH  19  21
ENDBRANCH  16  19
ENDBRANCH  10  13
ENDBRANCH   7  10
BRANCH   1  23
ATOM     23  C   UNL     1       3.308   7.590  17.845  0.00  0.00    +0.000 C 
BRANCH  23  24
ATOM     24  C   UNL     1       4.421   6.545  17.689  0.00  0.00    +0.000 C 
BRANCH  24  25
ATOM     25  N   UNL     1       5.578   7.212  17.052  0.00  0.00    +0.000 NA
ATOM     26  H   UNL     1       5.780   8.093  17.524  0.00  0.00    +0.000 HD
ATOM     27  H   UNL     1       5.357   7.447  16.085  0.00  0.00    +0.000 HD
ENDBRANCH  24  25
BRANCH  24  28
ATOM     28  C   UNL     1       3.978   5.326  16.845  0.00  0.00    +0.000 C 
BRANCH  28  29
ATOM     29  C   UNL     1       3.367   4.162  17.601  0.00  0.00    +0.000 A 
ATOM     30  C   UNL     1       4.133   3.134  18.174  0.00  0.00    +0.000 A 
ATOM     31  C   UNL     1       3.505   2.068  18.813  0.00  0.00    +0.000 A 
ATOM     32  F   UNL     1       4.248   1.075  19.319  0.00  0.00    +0.000 F 
ATOM     33  C   UNL     1       2.119   2.024  18.916  0.00  0.00    +0.000 A 
ATOM     34  F   UNL     1       1.519   0.984  19.510  0.00  0.00    +0.000 F 
ATOM     35  C   UNL     1       1.344   3.055  18.405  0.00  0.00    +0.000 A 
ATOM     36  C   UNL     1       1.974   4.115  17.759  0.00  0.00    +0.000 A 
ATOM     37  F   UNL     1       1.215   5.104  17.267  0.00  0.00    +0.000 F 
ENDBRANCH  28  29
ENDBRANCH  24  28
ENDBRANCH  23  24
ENDBRANCH   1  23
TORSDOF 9
ENDMDL
MODEL 8
REMARK VINA RESULT:      -8.1      1.168      1.313
REMARK  Name = 
REMARK  9 active torsions:
REMARK  status: ('A' for Active; 'I' for Inactive)
REMARK    1  A    between atoms: N_1  and  C_2
REMARK    2  A    between atoms: C_2  and  C_3
REMARK    3  A    between atoms: C_2  and  C_25
REMARK    4  A    between atoms: C_3  and  C_4
REMARK    5  A    between atoms: N_10  and  S_11
REMARK    6  A    between atoms: S_11  and  C_14
REMARK    7  A    between atoms: C_17  and  C_18
REMARK    8  A    between atoms: C_18  and  O_20
REMARK    9  A    between atoms: C_25  and  C_26
REMARK                            x       y       z     vdW  Elec       q    Type
REMARK                         _______ _______ _______ _____ _____    ______ ____
ROOT
ATOM      1  C   UNL     1       1.537   8.409  20.207  0.00  0.00    +0.000 C 
ATOM      2  O   UNL     1       1.446   9.324  19.394  0.00  0.00    +0.000 OA
ATOM      3  N   UNL     1       2.094   7.164  19.878  0.00  0.00    +0.000 N 
ATOM      4  C   UNL     1       2.315   6.092  20.856  0.00  0.00    +0.000 C 
ATOM      5  C   UNL     1       1.589   4.777  20.578  0.00  0.00    +0.000 C 
ATOM      6  C   UNL     1       1.752   4.121  19.212  0.00  0.00    +0.000 C 
ATOM      7  N   UNL     1       2.906   4.608  18.453  0.00  0.00    +0.000 NA
ATOM      8  C   UNL     1       2.678   5.897  17.755  0.00  0.00    +0.000 C 
ATOM      9  C   UNL     1       2.912   7.113  18.651  0.00  0.00    +0.000 C 
ENDROOT
BRANCH   7  10
ATOM     10  S   UNL     1       4.475   4.166  18.880  0.00  0.00    +0.000 S 
ATOM     11  O   UNL     1       5.008   5.157  19.786  0.00  0.00    +0.000 OA
ATOM     12  O   UNL     1       4.482   2.755  19.214  0.00  0.00    +0.000 OA
BRANCH  10  13
ATOM     13  C   UNL     1       5.360   4.338  17.350  0.00  0.00    +0.000 A 
ATOM     14  C   UNL     1       4.782   3.855  16.173  0.00  0.00    +0.000 A 
ATOM     15  C   UNL     1       5.447   4.039  14.961  0.00  0.00    +0.000 A 
ATOM     16  C   UNL     1       6.681   4.707  14.921  0.00  0.00    +0.000 A 
ATOM     17  C   UNL     1       7.228   5.230  16.100  0.00  0.00    +0.000 A 
ATOM     18  C   UNL     1       6.572   5.036  17.318  0.00  0.00    +0.000 A 
BRANCH  16  19
ATOM     19  C   UNL     1       7.333   4.877  13.595  0.00  0.00    +0.000 C 
ATOM     20  O   UNL     1       7.002   4.233  12.613  0.00  0.00    +0.000 OA
BRANCH  19  21
ATOM     21  O   UNL     1       8.349   5.762  13.583  0.00  0.00    +0.000 OA
ATOM     22  H   UNL     1       8.491   6.237  12.746  0.00  0.00    +0.000 HD
ENDBRANCH  19  21
ENDBRANCH  16  19
ENDBRANCH  10  13
ENDBRANCH   7  10
BRANCH   1  23
ATOM     23  C   UNL     1       1.070   8.577  21.644  0.00  0.00    +0.000 C 
BRANCH  23  24
ATOM     24  C   UNL     1      -0.263   9.317  21.815  0.00  0.00    +0.000 C 
BRANCH  24  25
ATOM     25  N   UNL     1      -1.070   9.078  20.597  0.00  0.00    +0.000 NA
ATOM     26  H   UNL     1      -1.523   8.166  20.649  0.00  0.00    +0.000 HD
ATOM     27  H   UNL     1      -0.465   9.053  19.777  0.00  0.00    +0.000 HD
ENDBRANCH  24  25
BRANCH  24  28
ATOM     28  C   UNL     1      -0.076  10.837  22.040  0.00  0.00    +0.000 C 
BRANCH  28  29
ATOM     29  C   UNL     1      -1.339  11.658  22.213  0.00  0.00    +0.000 A 
ATOM     30  C   UNL     1      -2.116  11.631  23.382  0.00  0.00    +0.000 A 
ATOM     31  C   UNL     1      -3.293  12.371  23.457  0.00  0.00    +0.000 A 
ATOM     32  F   UNL     1      -4.043  12.303  24.565  0.00  0.00    +0.000 F 
ATOM     33  C   UNL     1      -3.694  13.167  22.390  0.00  0.00    +0.000 A 
ATOM     34  F   UNL     1      -4.840  13.859  22.458  0.00  0.00    +0.000 F 
ATOM     35  C   UNL     1      -2.916  13.252  21.245  0.00  0.00    +0.000 A 
ATOM     36  C   UNL     1      -1.745  12.503  21.170  0.00  0.00    +0.000 A 
ATOM     37  F   UNL     1      -1.001  12.591  20.058  0.00  0.00    +0.000 F 
ENDBRANCH  28  29
ENDBRANCH  24  28
ENDBRANCH  23  24
ENDBRANCH   1  23
TORSDOF 9
ENDMDL
MODEL 9
REMARK VINA RESULT:      -8.1      2.298      2.835
REMARK  Name = 
REMARK  9 active torsions:
REMARK  status: ('A' for Active; 'I' for Inactive)
REMARK    1  A    between atoms: N_1  and  C_2
REMARK    2  A    between atoms: C_2  and  C_3
REMARK    3  A    between atoms: C_2  and  C_25
REMARK    4  A    between atoms: C_3  and  C_4
REMARK    5  A    between atoms: N_10  and  S_11
REMARK    6  A    between atoms: S_11  and  C_14
REMARK    7  A    between atoms: C_17  and  C_18
REMARK    8  A    between atoms: C_18  and  O_20
REMARK    9  A    between atoms: C_25  and  C_26
REMARK                            x       y       z     vdW  Elec       q    Type
REMARK                         _______ _______ _______ _____ _____    ______ ____
ROOT
ATOM      1  C   UNL     1       1.778   7.525  20.056  0.00  0.00    +0.000 C 
ATOM      2  O   UNL     1       1.853   8.364  19.163  0.00  0.00    +0.000 OA
ATOM      3  N   UNL     1       1.963   6.155  19.817  0.00  0.00    +0.000 N 
ATOM      4  C   UNL     1       1.988   5.145  20.881  0.00  0.00    +0.000 C 
ATOM      5  C   UNL     1       0.925   4.051  20.786  0.00  0.00    +0.000 C 
ATOM      6  C   UNL     1       0.788   3.270  19.486  0.00  0.00    +0.000 C 
ATOM      7  N   UNL     1       1.955   3.371  18.605  0.00  0.00    +0.000 NA
ATOM      8  C   UNL     1       2.004   4.615  17.798  0.00  0.00    +0.000 C 
ATOM      9  C   UNL     1       2.625   5.792  18.550  0.00  0.00    +0.000 C 
ENDROOT
BRANCH   7  10
ATOM     10  S   UNL     1       3.389   2.564  18.969  0.00  0.00    +0.000 S 
ATOM     11  O   UNL     1       3.630   2.660  20.390  0.00  0.00    +0.000 OA
ATOM     12  O   UNL     1       3.382   1.284  18.287  0.00  0.00    +0.000 OA
BRANCH  10  13
ATOM     13  C   UNL     1       4.616   3.567  18.170  0.00  0.00    +0.000 A 
ATOM     14  C   UNL     1       4.669   3.591  16.774  0.00  0.00    +0.000 A 
ATOM     15  C   UNL     1       5.594   4.422  16.141  0.00  0.00    +0.000 A 
ATOM     16  C   UNL     1       6.458   5.231  16.896  0.00  0.00    +0.000 A 
ATOM     17  C   UNL     1       6.362   5.235  18.294  0.00  0.00    +0.000 A 
ATOM     18  C   UNL     1       5.447   4.395  18.933  0.00  0.00    +0.000 A 
BRANCH  16  19
ATOM     19  C   UNL     1       7.414   6.100  16.159  0.00  0.00    +0.000 C 
ATOM     20  O   UNL     1       7.802   7.170  16.599  0.00  0.00    +0.000 OA
BRANCH  19  21
ATOM     21  O   UNL     1       7.775   5.630  14.949  0.00  0.00    +0.000 OA
ATOM     22  H   UNL     1       7.083   5.168  14.447  0.00  0.00    +0.000 HD
ENDBRANCH  19  21
ENDBRANCH  16  19
ENDBRANCH  10  13
ENDBRANCH   7  10
BRANCH   1  23
ATOM     23  C   UNL     1       1.504   7.925  21.497  0.00  0.00    +0.000 C 
BRANCH  23  24
ATOM     24  C   UNL     1       1.105   9.393  21.703  0.00  0.00    +0.000 C 
BRANCH  24  25
ATOM     25  N   UNL     1       0.966   9.620  23.159  0.00  0.00    +0.000 NA
ATOM     26  H   UNL     1       0.050   9.307  23.478  0.00  0.00    +0.000 HD
ATOM     27  H   UNL     1       1.018  10.618  23.363  0.00  0.00    +0.000 HD
ENDBRANCH  24  25
BRANCH  24  28
ATOM     28  C   UNL     1      -0.213   9.758  20.979  0.00  0.00    +0.000 C 
BRANCH  28  29
ATOM     29  C   UNL     1      -0.248  11.097  20.266  0.00  0.00    +0.000 A 
ATOM     30  C   UNL     1       0.291  12.271  20.816  0.00  0.00    +0.000 A 
ATOM     31  C   UNL     1       0.181  13.478  20.129  0.00  0.00    +0.000 A 
ATOM     32  F   UNL     1       0.664  14.597  20.686  0.00  0.00    +0.000 F 
ATOM     33  C   UNL     1      -0.432  13.527  18.883  0.00  0.00    +0.000 A 
ATOM     34  F   UNL     1      -0.556  14.695  18.238  0.00  0.00    +0.000 F 
ATOM     35  C   UNL     1      -0.923  12.371  18.295  0.00  0.00    +0.000 A 
ATOM     36  C   UNL     1      -0.821  11.168  18.988  0.00  0.00    +0.000 A 
ATOM     37  F   UNL     1      -1.301  10.056  18.411  0.00  0.00    +0.000 F 
ENDBRANCH  28  29
ENDBRANCH  24  28
ENDBRANCH  23  24
ENDBRANCH   1  23
TORSDOF 9
ENDMDL
