MODEL 1
REMARK VINA RESULT:      -9.4      0.000      0.000
REMARK  Name = 
REMARK  6 active torsions:
REMARK  status: ('A' for Active; 'I' for Inactive)
REMARK    1  A    between atoms: C_1  and  O_2
REMARK    2  A    between atoms: O_2  and  C_3
REMARK    3  A    between atoms: C_12  and  C_13
REMARK    4  A    between atoms: N_14  and  N_15
REMARK    5  A    between atoms: C_16  and  C_18
REMARK    6  A    between atoms: C_21  and  C_22
REMARK                            x       y       z     vdW  Elec       q    Type
REMARK                         _______ _______ _______ _____ _____    ______ ____
ROOT
ATOM      1  N   UNL     1       1.542   7.292  21.055  0.00  0.00    +0.000 N 
ATOM      2  C   UNL     1       1.246   8.487  20.405  0.00  0.00    +0.000 C 
ATOM      3  O   UNL     1       1.609   8.773  19.268  0.00  0.00    +0.000 OA
ATOM      4  H   UNL     1       1.281   7.118  22.017  0.00  0.00    +0.000 HD
ENDROOT
BRANCH   2   5
ATOM      5  C   UNL     1       0.453   9.486  21.173  0.00  0.00    +0.000 A 
ATOM      6  C   UNL     1       0.096  10.672  20.523  0.00  0.00    +0.000 A 
ATOM      7  C   UNL     1      -0.650  11.652  21.185  0.00  0.00    +0.000 A 
ATOM      8  C   UNL     1      -1.090  11.475  22.510  0.00  0.00    +0.000 A 
ATOM      9  C   UNL     1      -0.744  10.262  23.137  0.00  0.00    +0.000 A 
ATOM     10  C   UNL     1       0.020   9.278  22.484  0.00  0.00    +0.000 A 
BRANCH   8  11
ATOM     11  C   UNL     1      -1.875  12.527  23.205  0.00  0.00    +0.000 A 
ATOM     12  C   UNL     1      -1.312  13.782  23.513  0.00  0.00    +0.000 A 
ATOM     13  C   UNL     1      -2.029  14.759  24.213  0.00  0.00    +0.000 A 
ATOM     14  C   UNL     1      -3.339  14.513  24.606  0.00  0.00    +0.000 A 
ATOM     15  C   UNL     1      -3.930  13.292  24.299  0.00  0.00    +0.000 A 
ATOM     16  C   UNL     1      -3.205  12.311  23.611  0.00  0.00    +0.000 A 
ENDBRANCH   8  11
ENDBRANCH   2   5
BRANCH   1  18
ATOM     17  C   UNL     1       1.695   5.435  19.733  0.00  0.00    +0.000 C 
ATOM     18  N   UNL     1       2.294   6.374  20.390  0.00  0.00    +0.000 NA
BRANCH  17  28
ATOM     19  C   UNL     1       2.199   3.054  19.258  0.00  0.00    +0.000 A 
ATOM     20  C   UNL     1       2.900   2.060  18.573  0.00  0.00    +0.000 A 
ATOM     21  C   UNL     1       3.861   2.397  17.623  0.00  0.00    +0.000 A 
ATOM     22  C   UNL     1       4.134   3.732  17.313  0.00  0.00    +0.000 A 
ATOM     23  C   UNL     1       5.105   4.016  16.338  0.00  0.00    +0.000 A 
ATOM     24  C   UNL     1       5.402   5.326  15.978  0.00  0.00    +0.000 A 
ATOM     25  C   UNL     1       4.725   6.368  16.587  0.00  0.00    +0.000 A 
ATOM     26  C   UNL     1       3.756   6.097  17.557  0.00  0.00    +0.000 A 
ATOM     27  C   UNL     1       3.432   4.775  17.969  0.00  0.00    +0.000 A 
ATOM     28  C   UNL     1       2.459   4.410  18.961  0.00  0.00    +0.000 A 
BRANCH  19  30
ATOM     29  C   UNL     1       1.734   2.502  21.527  0.00  0.00    +0.000 C 
ATOM     30  O   UNL     1       1.250   2.769  20.211  0.00  0.00    +0.000 OA
ENDBRANCH  19  30
ENDBRANCH  17  28
ENDBRANCH   1  18
TORSDOF 5
ENDMDL
MODEL 2
REMARK VINA RESULT:      -9.4      0.166      1.266
REMARK  Name = 
REMARK  6 active torsions:
REMARK  status: ('A' for Active; 'I' for Inactive)
REMARK    1  A    between atoms: C_1  and  O_2
REMARK    2  A    between atoms: O_2  and  C_3
REMARK    3  A    between atoms: C_12  and  C_13
REMARK    4  A    between atoms: N_14  and  N_15
REMARK    5  A    between atoms: C_16  and  C_18
REMARK    6  A    between atoms: C_21  and  C_22
REMARK                            x       y       z     vdW  Elec       q    Type
REMARK                         _______ _______ _______ _____ _____    ______ ____
ROOT
ATOM      1  N   UNL     1       1.562   7.450  20.975  0.00  0.00    +0.000 N 
ATOM      2  C   UNL     1       1.267   8.609  20.262  0.00  0.00    +0.000 C 
ATOM      3  O   UNL     1       1.621   8.828  19.108  0.00  0.00    +0.000 OA
ATOM      4  H   UNL     1       1.308   7.331  21.948  0.00  0.00    +0.000 HD
ENDROOT
BRANCH   2   5
ATOM      5  C   UNL     1       0.487   9.655  20.980  0.00  0.00    +0.000 A 
ATOM      6  C   UNL     1      -0.064   9.318  22.220  0.00  0.00    +0.000 A 
ATOM      7  C   UNL     1      -0.807  10.253  22.948  0.00  0.00    +0.000 A 
ATOM      8  C   UNL     1      -1.004  11.565  22.479  0.00  0.00    +0.000 A 
ATOM      9  C   UNL     1      -0.416  11.892  21.241  0.00  0.00    +0.000 A 
ATOM     10  C   UNL     1       0.318  10.953  20.495  0.00  0.00    +0.000 A 
BRANCH   8  11
ATOM     11  C   UNL     1      -1.801  12.547  23.259  0.00  0.00    +0.000 A 
ATOM     12  C   UNL     1      -3.120  12.264  23.666  0.00  0.00    +0.000 A 
ATOM     13  C   UNL     1      -3.895  13.204  24.356  0.00  0.00    +0.000 A 
ATOM     14  C   UNL     1      -3.361  14.447  24.675  0.00  0.00    +0.000 A 
ATOM     15  C   UNL     1      -2.054  14.748  24.305  0.00  0.00    +0.000 A 
ATOM     16  C   UNL     1      -1.287  13.810  23.602  0.00  0.00    +0.000 A 
ENDBRANCH   8  11
ENDBRANCH   2   5
BRANCH   1  18
ATOM     17  C   UNL     1       1.690   5.545  19.720  0.00  0.00    +0.000 C 
ATOM     18  N   UNL     1       2.302   6.491  20.356  0.00  0.00    +0.000 NA
BRANCH  17  28
ATOM     19  C   UNL     1       2.150   3.137  19.345  0.00  0.00    +0.000 A 
ATOM     20  C   UNL     1       2.837   2.103  18.708  0.00  0.00    +0.000 A 
ATOM     21  C   UNL     1       3.816   2.383  17.757  0.00  0.00    +0.000 A 
ATOM     22  C   UNL     1       4.120   3.698  17.398  0.00  0.00    +0.000 A 
ATOM     23  C   UNL     1       5.107   3.925  16.424  0.00  0.00    +0.000 A 
ATOM     24  C   UNL     1       5.435   5.213  16.016  0.00  0.00    +0.000 A 
ATOM     25  C   UNL     1       4.773   6.292  16.576  0.00  0.00    +0.000 A 
ATOM     26  C   UNL     1       3.788   6.078  17.544  0.00  0.00    +0.000 A 
ATOM     27  C   UNL     1       3.433   4.781  18.004  0.00  0.00    +0.000 A 
ATOM     28  C   UNL     1       2.441   4.475  18.998  0.00  0.00    +0.000 A 
BRANCH  19  30
ATOM     29  C   UNL     1       1.651   2.569  21.603  0.00  0.00    +0.000 C 
ATOM     30  O   UNL     1       1.184   2.909  20.298  0.00  0.00    +0.000 OA
ENDBRANCH  19  30
ENDBRANCH  17  28
ENDBRANCH   1  18
TORSDOF 5
ENDMDL
MODEL 3
REMARK VINA RESULT:      -8.7      7.057      9.526
REMARK  Name = 
REMARK  6 active torsions:
REMARK  status: ('A' for Active; 'I' for Inactive)
REMARK    1  A    between atoms: C_1  and  O_2
REMARK    2  A    between atoms: O_2  and  C_3
REMARK    3  A    between atoms: C_12  and  C_13
REMARK    4  A    between atoms: N_14  and  N_15
REMARK    5  A    between atoms: C_16  and  C_18
REMARK    6  A    between atoms: C_21  and  C_22
REMARK                            x       y       z     vdW  Elec       q    Type
REMARK                         _______ _______ _______ _____ _____    ______ ____
ROOT
ATOM      1  N   UNL     1       7.678   9.030  17.316  0.00  0.00    +0.000 N 
ATOM      2  C   UNL     1       8.607   9.420  18.276  0.00  0.00    +0.000 C 
ATOM      3  O   UNL     1       8.984   8.719  19.210  0.00  0.00    +0.000 OA
ATOM      4  H   UNL     1       7.342   9.659  16.597  0.00  0.00    +0.000 HD
ENDROOT
BRANCH   2   5
ATOM      5  C   UNL     1       9.150  10.802  18.158  0.00  0.00    +0.000 A 
ATOM      6  C   UNL     1       8.275  11.811  17.742  0.00  0.00    +0.000 A 
ATOM      7  C   UNL     1       8.718  13.131  17.612  0.00  0.00    +0.000 A 
ATOM      8  C   UNL     1      10.042  13.497  17.915  0.00  0.00    +0.000 A 
ATOM      9  C   UNL     1      10.900  12.471  18.358  0.00  0.00    +0.000 A 
ATOM     10  C   UNL     1      10.466  11.138  18.477  0.00  0.00    +0.000 A 
BRANCH   8  11
ATOM     11  C   UNL     1      10.503  14.902  17.764  0.00  0.00    +0.000 A 
ATOM     12  C   UNL     1       9.594  15.979  17.772  0.00  0.00    +0.000 A 
ATOM     13  C   UNL     1      10.016  17.299  17.580  0.00  0.00    +0.000 A 
ATOM     14  C   UNL     1      11.364  17.579  17.394  0.00  0.00    +0.000 A 
ATOM     15  C   UNL     1      12.289  16.540  17.402  0.00  0.00    +0.000 A 
ATOM     16  C   UNL     1      11.862  15.218  17.581  0.00  0.00    +0.000 A 
ENDBRANCH   8  11
ENDBRANCH   2   5
BRANCH   1  18
ATOM     17  C   UNL     1       6.174   7.456  16.624  0.00  0.00    +0.000 C 
ATOM     18  N   UNL     1       7.140   7.785  17.418  0.00  0.00    +0.000 NA
BRANCH  17  28
ATOM     19  C   UNL     1       6.185   5.079  15.917  0.00  0.00    +0.000 A 
ATOM     20  C   UNL     1       5.634   3.796  15.914  0.00  0.00    +0.000 A 
ATOM     21  C   UNL     1       4.464   3.525  16.619  0.00  0.00    +0.000 A 
ATOM     22  C   UNL     1       3.823   4.517  17.366  0.00  0.00    +0.000 A 
ATOM     23  C   UNL     1       2.652   4.187  18.069  0.00  0.00    +0.000 A 
ATOM     24  C   UNL     1       1.986   5.132  18.842  0.00  0.00    +0.000 A 
ATOM     25  C   UNL     1       2.489   6.418  18.926  0.00  0.00    +0.000 A 
ATOM     26  C   UNL     1       3.654   6.757  18.232  0.00  0.00    +0.000 A 
ATOM     27  C   UNL     1       4.358   5.830  17.416  0.00  0.00    +0.000 A 
ATOM     28  C   UNL     1       5.554   6.098  16.665  0.00  0.00    +0.000 A 
BRANCH  19  30
ATOM     29  C   UNL     1       7.406   4.936  13.878  0.00  0.00    +0.000 C 
ATOM     30  O   UNL     1       7.331   5.395  15.228  0.00  0.00    +0.000 OA
ENDBRANCH  19  30
ENDBRANCH  17  28
ENDBRANCH   1  18
TORSDOF 5
ENDMDL
MODEL 4
REMARK VINA RESULT:      -8.5      7.103      9.544
REMARK  Name = 
REMARK  6 active torsions:
REMARK  status: ('A' for Active; 'I' for Inactive)
REMARK    1  A    between atoms: C_1  and  O_2
REMARK    2  A    between atoms: O_2  and  C_3
REMARK    3  A    between atoms: C_12  and  C_13
REMARK    4  A    between atoms: N_14  and  N_15
REMARK    5  A    between atoms: C_16  and  C_18
REMARK    6  A    between atoms: C_21  and  C_22
REMARK                            x       y       z     vdW  Elec       q    Type
REMARK                         _______ _______ _______ _____ _____    ______ ____
ROOT
ATOM      1  N   UNL     1       7.615   8.984  17.433  0.00  0.00    +0.000 N 
ATOM      2  C   UNL     1       8.576   9.323  18.382  0.00  0.00    +0.000 C 
ATOM      3  O   UNL     1       9.005   8.563  19.244  0.00  0.00    +0.000 OA
ATOM      4  H   UNL     1       7.237   9.657  16.777  0.00  0.00    +0.000 HD
ENDROOT
BRANCH   2   5
ATOM      5  C   UNL     1       9.087  10.721  18.345  0.00  0.00    +0.000 A 
ATOM      6  C   UNL     1      10.312  10.982  18.968  0.00  0.00    +0.000 A 
ATOM      7  C   UNL     1      10.850  12.273  18.969  0.00  0.00    +0.000 A 
ATOM      8  C   UNL     1      10.201  13.343  18.329  0.00  0.00    +0.000 A 
ATOM      9  C   UNL     1       8.982  13.053  17.683  0.00  0.00    +0.000 A 
ATOM     10  C   UNL     1       8.426  11.762  17.691  0.00  0.00    +0.000 A 
BRANCH   8  11
ATOM     11  C   UNL     1      10.779  14.712  18.344  0.00  0.00    +0.000 A 
ATOM     12  C   UNL     1      10.963  15.446  17.154  0.00  0.00    +0.000 A 
ATOM     13  C   UNL     1      11.554  16.714  17.156  0.00  0.00    +0.000 A 
ATOM     14  C   UNL     1      11.960  17.291  18.353  0.00  0.00    +0.000 A 
ATOM     15  C   UNL     1      11.773  16.601  19.546  0.00  0.00    +0.000 A 
ATOM     16  C   UNL     1      11.194  15.326  19.540  0.00  0.00    +0.000 A 
ENDBRANCH   8  11
ENDBRANCH   2   5
BRANCH   1  18
ATOM     17  C   UNL     1       6.190   7.400  16.609  0.00  0.00    +0.000 C 
ATOM     18  N   UNL     1       7.105   7.723  17.463  0.00  0.00    +0.000 NA
BRANCH  17  28
ATOM     19  C   UNL     1       6.271   5.064  15.778  0.00  0.00    +0.000 A 
ATOM     20  C   UNL     1       5.753   3.770  15.699  0.00  0.00    +0.000 A 
ATOM     21  C   UNL     1       4.582   3.433  16.374  0.00  0.00    +0.000 A 
ATOM     22  C   UNL     1       3.908   4.368  17.164  0.00  0.00    +0.000 A 
ATOM     23  C   UNL     1       2.738   3.972  17.834  0.00  0.00    +0.000 A 
ATOM     24  C   UNL     1       2.039   4.856  18.647  0.00  0.00    +0.000 A 
ATOM     25  C   UNL     1       2.508   6.149  18.805  0.00  0.00    +0.000 A 
ATOM     26  C   UNL     1       3.671   6.553  18.145  0.00  0.00    +0.000 A 
ATOM     27  C   UNL     1       4.408   5.689  17.291  0.00  0.00    +0.000 A 
ATOM     28  C   UNL     1       5.606   6.026  16.571  0.00  0.00    +0.000 A 
BRANCH  19  30
ATOM     29  C   UNL     1       7.515   5.067  13.748  0.00  0.00    +0.000 C 
ATOM     30  O   UNL     1       7.417   5.446  15.120  0.00  0.00    +0.000 OA
ENDBRANCH  19  30
ENDBRANCH  17  28
ENDBRANCH   1  18
TORSDOF 5
ENDMDL
MODEL 5
REMARK VINA RESULT:      -8.5      3.351      4.884
REMARK  Name = 
REMARK  6 active torsions:
REMARK  status: ('A' for Active; 'I' for Inactive)
REMARK    1  A    between atoms: C_1  and  O_2
REMARK    2  A    between atoms: O_2  and  C_3
REMARK    3  A    between atoms: C_12  and  C_13
REMARK    4  A    between atoms: N_14  and  N_15
REMARK    5  A    between atoms: C_16  and  C_18
REMARK    6  A    between atoms: C_21  and  C_22
REMARK                            x       y       z     vdW  Elec       q    Type
REMARK                         _______ _______ _______ _____ _____    ______ ____
ROOT
ATOM      1  N   UNL     1       1.951   9.010  17.735  0.00  0.00    +0.000 N 
ATOM      2  C   UNL     1       1.350   9.546  18.871  0.00  0.00    +0.000 C 
ATOM      3  O   UNL     1       0.937   8.887  19.821  0.00  0.00    +0.000 OA
ATOM      4  H   UNL     1       2.220   9.579  16.943  0.00  0.00    +0.000 HD
ENDROOT
BRANCH   2   5
ATOM      5  C   UNL     1       1.183  11.025  18.903  0.00  0.00    +0.000 A 
ATOM      6  C   UNL     1       2.179  11.805  18.307  0.00  0.00    +0.000 A 
ATOM      7  C   UNL     1       2.083  13.201  18.300  0.00  0.00    +0.000 A 
ATOM      8  C   UNL     1       0.980  13.867  18.863  0.00  0.00    +0.000 A 
ATOM      9  C   UNL     1      -0.026  13.062  19.434  0.00  0.00    +0.000 A 
ATOM     10  C   UNL     1       0.070  11.659  19.460  0.00  0.00    +0.000 A 
BRANCH   8  11
ATOM     11  C   UNL     1       0.894  15.350  18.856  0.00  0.00    +0.000 A 
ATOM     12  C   UNL     1      -0.317  16.015  18.577  0.00  0.00    +0.000 A 
ATOM     13  C   UNL     1      -0.394  17.411  18.519  0.00  0.00    +0.000 A 
ATOM     14  C   UNL     1       0.738  18.181  18.758  0.00  0.00    +0.000 A 
ATOM     15  C   UNL     1       1.944  17.555  19.057  0.00  0.00    +0.000 A 
ATOM     16  C   UNL     1       2.020  16.158  19.101  0.00  0.00    +0.000 A 
ENDBRANCH   8  11
ENDBRANCH   2   5
BRANCH   1  18
ATOM     17  C   UNL     1       3.216   7.126  18.001  0.00  0.00    +0.000 C 
ATOM     18  N   UNL     1       2.087   7.658  17.663  0.00  0.00    +0.000 NA
BRANCH  17  28
ATOM     19  C   UNL     1       4.314   5.143  16.995  0.00  0.00    +0.000 A 
ATOM     20  C   UNL     1       4.530   3.766  16.917  0.00  0.00    +0.000 A 
ATOM     21  C   UNL     1       3.860   2.894  17.773  0.00  0.00    +0.000 A 
ATOM     22  C   UNL     1       2.977   3.371  18.745  0.00  0.00    +0.000 A 
ATOM     23  C   UNL     1       2.338   2.449  19.591  0.00  0.00    +0.000 A 
ATOM     24  C   UNL     1       1.464   2.871  20.587  0.00  0.00    +0.000 A 
ATOM     25  C   UNL     1       1.224   4.225  20.751  0.00  0.00    +0.000 A 
ATOM     26  C   UNL     1       1.856   5.150  19.916  0.00  0.00    +0.000 A 
ATOM     27  C   UNL     1       2.742   4.764  18.875  0.00  0.00    +0.000 A 
ATOM     28  C   UNL     1       3.425   5.648  17.970  0.00  0.00    +0.000 A 
BRANCH  19  30
ATOM     29  C   UNL     1       5.738   5.484  15.117  0.00  0.00    +0.000 C 
ATOM     30  O   UNL     1       4.943   6.040  16.164  0.00  0.00    +0.000 OA
ENDBRANCH  19  30
ENDBRANCH  17  28
ENDBRANCH   1  18
TORSDOF 5
ENDMDL
MODEL 6
REMARK VINA RESULT:      -8.5      1.204      1.670
REMARK  Name = 
REMARK  6 active torsions:
REMARK  status: ('A' for Active; 'I' for Inactive)
REMARK    1  A    between atoms: C_1  and  O_2
REMARK    2  A    between atoms: O_2  and  C_3
REMARK    3  A    between atoms: C_12  and  C_13
REMARK    4  A    between atoms: N_14  and  N_15
REMARK    5  A    between atoms: C_16  and  C_18
REMARK    6  A    between atoms: C_21  and  C_22
REMARK                            x       y       z     vdW  Elec       q    Type
REMARK                         _______ _______ _______ _____ _____    ______ ____
ROOT
ATOM      1  N   UNL     1       1.669   8.228  19.823  0.00  0.00    +0.000 N 
ATOM      2  C   UNL     1       0.896   9.279  19.338  0.00  0.00    +0.000 C 
ATOM      3  O   UNL     1       0.753   9.551  18.150  0.00  0.00    +0.000 OA
ATOM      4  H   UNL     1       1.817   8.073  20.813  0.00  0.00    +0.000 HD
ENDROOT
BRANCH   2   5
ATOM      5  C   UNL     1       0.225  10.138  20.352  0.00  0.00    +0.000 A 
ATOM      6  C   UNL     1      -0.406  11.303  19.903  0.00  0.00    +0.000 A 
ATOM      7  C   UNL     1      -1.056  12.154  20.802  0.00  0.00    +0.000 A 
ATOM      8  C   UNL     1      -1.125  11.861  22.176  0.00  0.00    +0.000 A 
ATOM      9  C   UNL     1      -0.507  10.669  22.604  0.00  0.00    +0.000 A 
ATOM     10  C   UNL     1       0.163   9.816  21.709  0.00  0.00    +0.000 A 
BRANCH   8  11
ATOM     11  C   UNL     1      -1.812  12.777  23.123  0.00  0.00    +0.000 A 
ATOM     12  C   UNL     1      -3.104  12.495  23.612  0.00  0.00    +0.000 A 
ATOM     13  C   UNL     1      -3.778  13.378  24.463  0.00  0.00    +0.000 A 
ATOM     14  C   UNL     1      -3.168  14.560  24.864  0.00  0.00    +0.000 A 
ATOM     15  C   UNL     1      -1.885  14.858  24.415  0.00  0.00    +0.000 A 
ATOM     16  C   UNL     1      -1.219  13.978  23.552  0.00  0.00    +0.000 A 
ENDBRANCH   8  11
ENDBRANCH   2   5
BRANCH   1  18
ATOM     17  C   UNL     1       2.541   6.206  19.214  0.00  0.00    +0.000 C 
ATOM     18  N   UNL     1       2.322   7.446  18.920  0.00  0.00    +0.000 NA
BRANCH  17  28
ATOM     19  C   UNL     1       2.549   4.102  17.901  0.00  0.00    +0.000 A 
ATOM     20  C   UNL     1       3.159   3.204  17.023  0.00  0.00    +0.000 A 
ATOM     21  C   UNL     1       4.434   3.459  16.521  0.00  0.00    +0.000 A 
ATOM     22  C   UNL     1       5.125   4.624  16.861  0.00  0.00    +0.000 A 
ATOM     23  C   UNL     1       6.403   4.838  16.317  0.00  0.00    +0.000 A 
ATOM     24  C   UNL     1       7.126   5.989  16.608  0.00  0.00    +0.000 A 
ATOM     25  C   UNL     1       6.575   6.945  17.443  0.00  0.00    +0.000 A 
ATOM     26  C   UNL     1       5.304   6.744  17.989  0.00  0.00    +0.000 A 
ATOM     27  C   UNL     1       4.536   5.575  17.734  0.00  0.00    +0.000 A 
ATOM     28  C   UNL     1       3.230   5.287  18.259  0.00  0.00    +0.000 A 
BRANCH  19  30
ATOM     29  C   UNL     1       0.995   2.547  18.816  0.00  0.00    +0.000 C 
ATOM     30  O   UNL     1       1.298   3.887  18.430  0.00  0.00    +0.000 OA
ENDBRANCH  19  30
ENDBRANCH  17  28
ENDBRANCH   1  18
TORSDOF 5
ENDMDL
MODEL 7
REMARK VINA RESULT:      -8.4      1.050      1.407
REMARK  Name = 
REMARK  6 active torsions:
REMARK  status: ('A' for Active; 'I' for Inactive)
REMARK    1  A    between atoms: C_1  and  O_2
REMARK    2  A    between atoms: O_2  and  C_3
REMARK    3  A    between atoms: C_12  and  C_13
REMARK    4  A    between atoms: N_14  and  N_15
REMARK    5  A    between atoms: C_16  and  C_18
REMARK    6  A    between atoms: C_21  and  C_22
REMARK                            x       y       z     vdW  Elec       q    Type
REMARK                         _______ _______ _______ _____ _____    ______ ____
ROOT
ATOM      1  N   UNL     1       1.904   8.162  19.944  0.00  0.00    +0.000 N 
ATOM      2  C   UNL     1       1.019   8.054  21.014  0.00  0.00    +0.000 C 
ATOM      3  O   UNL     1       0.792   7.018  21.630  0.00  0.00    +0.000 OA
ATOM      4  H   UNL     1       2.017   9.019  19.417  0.00  0.00    +0.000 HD
ENDROOT
BRANCH   2   5
ATOM      5  C   UNL     1       0.289   9.291  21.403  0.00  0.00    +0.000 A 
ATOM      6  C   UNL     1      -0.239   9.354  22.697  0.00  0.00    +0.000 A 
ATOM      7  C   UNL     1      -0.935  10.488  23.129  0.00  0.00    +0.000 A 
ATOM      8  C   UNL     1      -1.109  11.608  22.296  0.00  0.00    +0.000 A 
ATOM      9  C   UNL     1      -0.546  11.535  21.007  0.00  0.00    +0.000 A 
ATOM     10  C   UNL     1       0.142  10.393  20.559  0.00  0.00    +0.000 A 
BRANCH   8  11
ATOM     11  C   UNL     1      -1.858  12.804  22.764  0.00  0.00    +0.000 A 
ATOM     12  C   UNL     1      -1.224  13.828  23.496  0.00  0.00    +0.000 A 
ATOM     13  C   UNL     1      -1.933  14.931  23.983  0.00  0.00    +0.000 A 
ATOM     14  C   UNL     1      -3.295  15.049  23.734  0.00  0.00    +0.000 A 
ATOM     15  C   UNL     1      -3.945  14.065  22.996  0.00  0.00    +0.000 A 
ATOM     16  C   UNL     1      -3.235  12.955  22.522  0.00  0.00    +0.000 A 
ENDBRANCH   8  11
ENDBRANCH   2   5
BRANCH   1  18
ATOM     17  C   UNL     1       2.073   6.347  18.567  0.00  0.00    +0.000 C 
ATOM     18  N   UNL     1       2.561   7.040  19.544  0.00  0.00    +0.000 NA
BRANCH  17  28
ATOM     19  C   UNL     1       2.216   3.873  18.451  0.00  0.00    +0.000 A 
ATOM     20  C   UNL     1       2.829   2.697  18.015  0.00  0.00    +0.000 A 
ATOM     21  C   UNL     1       3.976   2.748  17.225  0.00  0.00    +0.000 A 
ATOM     22  C   UNL     1       4.528   3.968  16.828  0.00  0.00    +0.000 A 
ATOM     23  C   UNL     1       5.678   3.961  16.021  0.00  0.00    +0.000 A 
ATOM     24  C   UNL     1       6.257   5.147  15.582  0.00  0.00    +0.000 A 
ATOM     25  C   UNL     1       5.687   6.356  15.943  0.00  0.00    +0.000 A 
ATOM     26  C   UNL     1       4.542   6.374  16.744  0.00  0.00    +0.000 A 
ATOM     27  C   UNL     1       3.927   5.188  17.229  0.00  0.00    +0.000 A 
ATOM     28  C   UNL     1       2.757   5.119  18.061  0.00  0.00    +0.000 A 
BRANCH  19  30
ATOM     29  C   UNL     1       1.125   3.031  20.392  0.00  0.00    +0.000 C 
ATOM     30  O   UNL     1       1.090   3.873  19.240  0.00  0.00    +0.000 OA
ENDBRANCH  19  30
ENDBRANCH  17  28
ENDBRANCH   1  18
TORSDOF 5
ENDMDL
MODEL 8
REMARK VINA RESULT:      -8.3      1.534      3.145
REMARK  Name = 
REMARK  6 active torsions:
REMARK  status: ('A' for Active; 'I' for Inactive)
REMARK    1  A    between atoms: C_1  and  O_2
REMARK    2  A    between atoms: O_2  and  C_3
REMARK    3  A    between atoms: C_12  and  C_13
REMARK    4  A    between atoms: N_14  and  N_15
REMARK    5  A    between atoms: C_16  and  C_18
REMARK    6  A    between atoms: C_21  and  C_22
REMARK                            x       y       z     vdW  Elec       q    Type
REMARK                         _______ _______ _______ _____ _____    ______ ____
ROOT
ATOM      1  N   UNL     1       1.813   8.412  20.134  0.00  0.00    +0.000 N 
ATOM      2  C   UNL     1       0.791   8.348  21.078  0.00  0.00    +0.000 C 
ATOM      3  O   UNL     1       0.390   7.315  21.604  0.00  0.00    +0.000 OA
ATOM      4  H   UNL     1       2.073   9.275  19.673  0.00  0.00    +0.000 HD
ENDROOT
BRANCH   2   5
ATOM      5  C   UNL     1       0.133   9.634  21.438  0.00  0.00    +0.000 A 
ATOM      6  C   UNL     1      -0.477   9.722  22.694  0.00  0.00    +0.000 A 
ATOM      7  C   UNL     1      -1.112  10.902  23.097  0.00  0.00    +0.000 A 
ATOM      8  C   UNL     1      -1.138  12.043  22.275  0.00  0.00    +0.000 A 
ATOM      9  C   UNL     1      -0.494  11.942  21.026  0.00  0.00    +0.000 A 
ATOM     10  C   UNL     1       0.132  10.755  20.606  0.00  0.00    +0.000 A 
BRANCH   8  11
ATOM     11  C   UNL     1      -1.823  13.287  22.712  0.00  0.00    +0.000 A 
ATOM     12  C   UNL     1      -1.243  14.149  23.666  0.00  0.00    +0.000 A 
ATOM     13  C   UNL     1      -1.905  15.295  24.119  0.00  0.00    +0.000 A 
ATOM     14  C   UNL     1      -3.158  15.622  23.614  0.00  0.00    +0.000 A 
ATOM     15  C   UNL     1      -3.746  14.804  22.656  0.00  0.00    +0.000 A 
ATOM     16  C   UNL     1      -3.088  13.649  22.215  0.00  0.00    +0.000 A 
ENDBRANCH   8  11
ENDBRANCH   2   5
BRANCH   1  18
ATOM     17  C   UNL     1       2.472   6.957  18.502  0.00  0.00    +0.000 C 
ATOM     18  N   UNL     1       2.410   7.248  19.760  0.00  0.00    +0.000 NA
BRANCH  17  28
ATOM     19  C   UNL     1       4.354   5.854  17.320  0.00  0.00    +0.000 A 
ATOM     20  C   UNL     1       5.003   4.716  16.838  0.00  0.00    +0.000 A 
ATOM     21  C   UNL     1       4.448   3.452  17.023  0.00  0.00    +0.000 A 
ATOM     22  C   UNL     1       3.245   3.284  17.712  0.00  0.00    +0.000 A 
ATOM     23  C   UNL     1       2.736   1.985  17.882  0.00  0.00    +0.000 A 
ATOM     24  C   UNL     1       1.552   1.760  18.576  0.00  0.00    +0.000 A 
ATOM     25  C   UNL     1       0.867   2.834  19.116  0.00  0.00    +0.000 A 
ATOM     26  C   UNL     1       1.365   4.130  18.955  0.00  0.00    +0.000 A 
ATOM     27  C   UNL     1       2.560   4.409  18.238  0.00  0.00    +0.000 A 
ATOM     28  C   UNL     1       3.136   5.708  18.021  0.00  0.00    +0.000 A 
BRANCH  19  30
ATOM     29  C   UNL     1       6.279   7.245  17.162  0.00  0.00    +0.000 C 
ATOM     30  O   UNL     1       4.857   7.122  17.152  0.00  0.00    +0.000 OA
ENDBRANCH  19  30
ENDBRANCH  17  28
ENDBRANCH   1  18
TORSDOF 5
ENDMDL
MODEL 9
REMARK VINA RESULT:      -8.3      3.336      4.807
REMARK  Name = 
REMARK  6 active torsions:
REMARK  status: ('A' for Active; 'I' for Inactive)
REMARK    1  A    between atoms: C_1  and  O_2
REMARK    2  A    between atoms: O_2  and  C_3
REMARK    3  A    between atoms: C_12  and  C_13
REMARK    4  A    between atoms: N_14  and  N_15
REMARK    5  A    between atoms: C_16  and  C_18
REMARK    6  A    between atoms: C_21  and  C_22
REMARK                            x       y       z     vdW  Elec       q    Type
REMARK                         _______ _______ _______ _____ _____    ______ ____
ROOT
ATOM      1  N   UNL     1       2.063   8.996  17.640  0.00  0.00    +0.000 N 
ATOM      2  C   UNL     1       1.418   9.577  18.729  0.00  0.00    +0.000 C 
ATOM      3  O   UNL     1       0.933   8.954  19.668  0.00  0.00    +0.000 OA
ATOM      4  H   UNL     1       2.393   9.538  16.851  0.00  0.00    +0.000 HD
ENDROOT
BRANCH   2   5
ATOM      5  C   UNL     1       1.296  11.061  18.719  0.00  0.00    +0.000 A 
ATOM      6  C   UNL     1       0.135  11.622  19.260  0.00  0.00    +0.000 A 
ATOM      7  C   UNL     1      -0.043  13.009  19.284  0.00  0.00    +0.000 A 
ATOM      8  C   UNL     1       0.940  13.887  18.794  0.00  0.00    +0.000 A 
ATOM      9  C   UNL     1       2.115  13.303  18.279  0.00  0.00    +0.000 A 
ATOM     10  C   UNL     1       2.295  11.909  18.236  0.00  0.00    +0.000 A 
BRANCH   8  11
ATOM     11  C   UNL     1       0.736  15.359  18.818  0.00  0.00    +0.000 A 
ATOM     12  C   UNL     1       1.784  16.251  18.513  0.00  0.00    +0.000 A 
ATOM     13  C   UNL     1       1.612  17.638  18.583  0.00  0.00    +0.000 A 
ATOM     14  C   UNL     1       0.379  18.170  18.942  0.00  0.00    +0.000 A 
ATOM     15  C   UNL     1      -0.680  17.316  19.228  0.00  0.00    +0.000 A 
ATOM     16  C   UNL     1      -0.501  15.928  19.170  0.00  0.00    +0.000 A 
ENDBRANCH   8  11
ENDBRANCH   2   5
BRANCH   1  18
ATOM     17  C   UNL     1       3.276   7.085  17.947  0.00  0.00    +0.000 C 
ATOM     18  N   UNL     1       2.159   7.639  17.605  0.00  0.00    +0.000 NA
BRANCH  17  28
ATOM     19  C   UNL     1       4.358   5.049  17.032  0.00  0.00    +0.000 A 
ATOM     20  C   UNL     1       4.536   3.665  16.993  0.00  0.00    +0.000 A 
ATOM     21  C   UNL     1       3.804   2.832  17.837  0.00  0.00    +0.000 A 
ATOM     22  C   UNL     1       2.894   3.356  18.758  0.00  0.00    +0.000 A 
ATOM     23  C   UNL     1       2.191   2.472  19.594  0.00  0.00    +0.000 A 
ATOM     24  C   UNL     1       1.287   2.941  20.541  0.00  0.00    +0.000 A 
ATOM     25  C   UNL     1       1.081   4.304  20.667  0.00  0.00    +0.000 A 
ATOM     26  C   UNL     1       1.775   5.192  19.841  0.00  0.00    +0.000 A 
ATOM     27  C   UNL     1       2.695   4.757  18.848  0.00  0.00    +0.000 A 
ATOM     28  C   UNL     1       3.442   5.601  17.956  0.00  0.00    +0.000 A 
BRANCH  19  30
ATOM     29  C   UNL     1       6.473   5.844  16.283  0.00  0.00    +0.000 C 
ATOM     30  O   UNL     1       5.049   5.909  16.212  0.00  0.00    +0.000 OA
ENDBRANCH  19  30
ENDBRANCH  17  28
ENDBRANCH   1  18
TORSDOF 5
ENDMDL
