MODEL 1
REMARK VINA RESULT:      -7.5      0.000      0.000
REMARK  Name = 
REMARK  3 active torsions:
REMARK  status: ('A' for Active; 'I' for Inactive)
REMARK    1  A    between atoms: C_1  and  C_2
REMARK    2  A    between atoms: C_8  and  C_9
REMARK    3  A    between atoms: C_12  and  O_13
REMARK                            x       y       z     vdW  Elec       q    Type
REMARK                         _______ _______ _______ _____ _____    ______ ____
ROOT
ATOM      1  C   UNL     1       2.111   6.461  20.186  0.00  0.00    +0.000 C 
ATOM      2  C   UNL     1       1.967   5.000  19.892  0.00  0.00    +0.000 A 
ATOM      3  C   UNL     1       0.999   4.217  20.550  0.00  0.00    +0.000 A 
ATOM      4  C   UNL     1       0.850   2.850  20.285  0.00  0.00    +0.000 A 
ATOM      5  C   UNL     1       1.668   2.207  19.352  0.00  0.00    +0.000 A 
ATOM      6  C   UNL     1       2.645   2.961  18.681  0.00  0.00    +0.000 A 
ATOM      7  C   UNL     1       3.625   2.678  17.699  0.00  0.00    +0.000 A 
ATOM      8  C   UNL     1       4.264   3.867  17.410  0.00  0.00    +0.000 A 
ATOM      9  O   UNL     1       3.744   4.869  18.183  0.00  0.00    +0.000 OA
ATOM     10  C   UNL     1       2.761   4.319  18.959  0.00  0.00    +0.000 A 
ENDROOT
BRANCH   8  11
ATOM     11  C   UNL     1       5.315   4.224  16.461  0.00  0.00    +0.000 A 
ATOM     12  C   UNL     1       6.441   4.960  16.855  0.00  0.00    +0.000 A 
ATOM     13  C   UNL     1       7.388   5.384  15.915  0.00  0.00    +0.000 A 
ATOM     14  C   UNL     1       7.213   5.061  14.574  0.00  0.00    +0.000 A 
ATOM     15  C   UNL     1       6.125   4.304  14.163  0.00  0.00    +0.000 A 
ATOM     16  C   UNL     1       5.179   3.888  15.104  0.00  0.00    +0.000 A 
BRANCH  14  17
ATOM     17  O   UNL     1       8.089   5.480  13.617  0.00  0.00    +0.000 OA
ATOM     18  H   UNL     1       8.382   4.709  13.105  0.00  0.00    +0.000 HD
ENDBRANCH  14  17
ENDBRANCH   8  11
TORSDOF 2
ENDMDL
MODEL 2
REMARK VINA RESULT:      -7.3      0.265      1.179
REMARK  Name = 
REMARK  3 active torsions:
REMARK  status: ('A' for Active; 'I' for Inactive)
REMARK    1  A    between atoms: C_1  and  C_2
REMARK    2  A    between atoms: C_8  and  C_9
REMARK    3  A    between atoms: C_12  and  O_13
REMARK                            x       y       z     vdW  Elec       q    Type
REMARK                         _______ _______ _______ _____ _____    ______ ____
ROOT
ATOM      1  C   UNL     1       2.081   6.530  20.202  0.00  0.00    +0.000 C 
ATOM      2  C   UNL     1       1.977   5.070  19.889  0.00  0.00    +0.000 A 
ATOM      3  C   UNL     1       1.077   4.240  20.585  0.00  0.00    +0.000 A 
ATOM      4  C   UNL     1       0.966   2.873  20.303  0.00  0.00    +0.000 A 
ATOM      5  C   UNL     1       1.754   2.277  19.315  0.00  0.00    +0.000 A 
ATOM      6  C   UNL     1       2.662   3.080  18.605  0.00  0.00    +0.000 A 
ATOM      7  C   UNL     1       3.596   2.851  17.564  0.00  0.00    +0.000 A 
ATOM      8  C   UNL     1       4.173   4.069  17.263  0.00  0.00    +0.000 A 
ATOM      9  O   UNL     1       3.658   5.037  18.083  0.00  0.00    +0.000 OA
ATOM     10  C   UNL     1       2.742   4.436  18.901  0.00  0.00    +0.000 A 
ENDROOT
BRANCH   8  11
ATOM     11  C   UNL     1       5.154   4.481  16.264  0.00  0.00    +0.000 A 
ATOM     12  C   UNL     1       5.215   3.875  15.001  0.00  0.00    +0.000 A 
ATOM     13  C   UNL     1       6.226   4.209  14.092  0.00  0.00    +0.000 A 
ATOM     14  C   UNL     1       7.176   5.161  14.444  0.00  0.00    +0.000 A 
ATOM     15  C   UNL     1       7.117   5.800  15.674  0.00  0.00    +0.000 A 
ATOM     16  C   UNL     1       6.110   5.460  16.581  0.00  0.00    +0.000 A 
BRANCH  14  17
ATOM     17  O   UNL     1       8.199   5.493  13.606  0.00  0.00    +0.000 OA
ATOM     18  H   UNL     1       8.255   6.461  13.554  0.00  0.00    +0.000 HD
ENDBRANCH  14  17
ENDBRANCH   8  11
TORSDOF 2
ENDMDL
MODEL 3
REMARK VINA RESULT:      -7.3      1.872      6.496
REMARK  Name = 
REMARK  3 active torsions:
REMARK  status: ('A' for Active; 'I' for Inactive)
REMARK    1  A    between atoms: C_1  and  C_2
REMARK    2  A    between atoms: C_8  and  C_9
REMARK    3  A    between atoms: C_12  and  O_13
REMARK                            x       y       z     vdW  Elec       q    Type
REMARK                         _______ _______ _______ _____ _____    ______ ____
ROOT
ATOM      1  C   UNL     1       7.883   5.456  18.306  0.00  0.00    +0.000 C 
ATOM      2  C   UNL     1       7.018   5.062  17.149  0.00  0.00    +0.000 A 
ATOM      3  C   UNL     1       7.464   5.217  15.823  0.00  0.00    +0.000 A 
ATOM      4  C   UNL     1       6.668   4.852  14.730  0.00  0.00    +0.000 A 
ATOM      5  C   UNL     1       5.390   4.320  14.918  0.00  0.00    +0.000 A 
ATOM      6  C   UNL     1       4.917   4.156  16.230  0.00  0.00    +0.000 A 
ATOM      7  C   UNL     1       3.720   3.663  16.806  0.00  0.00    +0.000 A 
ATOM      8  C   UNL     1       3.876   3.724  18.177  0.00  0.00    +0.000 A 
ATOM      9  O   UNL     1       5.102   4.252  18.478  0.00  0.00    +0.000 OA
ATOM     10  C   UNL     1       5.735   4.518  17.295  0.00  0.00    +0.000 A 
ENDROOT
BRANCH   8  11
ATOM     11  C   UNL     1       3.024   3.320  19.291  0.00  0.00    +0.000 A 
ATOM     12  C   UNL     1       1.651   3.606  19.306  0.00  0.00    +0.000 A 
ATOM     13  C   UNL     1       0.867   3.305  20.426  0.00  0.00    +0.000 A 
ATOM     14  C   UNL     1       1.455   2.705  21.533  0.00  0.00    +0.000 A 
ATOM     15  C   UNL     1       2.804   2.380  21.529  0.00  0.00    +0.000 A 
ATOM     16  C   UNL     1       3.585   2.688  20.412  0.00  0.00    +0.000 A 
BRANCH  14  17
ATOM     17  O   UNL     1       0.740   2.425  22.659  0.00  0.00    +0.000 OA
ATOM     18  H   UNL     1      -0.049   2.990  22.675  0.00  0.00    +0.000 HD
ENDBRANCH  14  17
ENDBRANCH   8  11
TORSDOF 2
ENDMDL
MODEL 4
REMARK VINA RESULT:      -7.2      1.836      6.376
REMARK  Name = 
REMARK  3 active torsions:
REMARK  status: ('A' for Active; 'I' for Inactive)
REMARK    1  A    between atoms: C_1  and  C_2
REMARK    2  A    between atoms: C_8  and  C_9
REMARK    3  A    between atoms: C_12  and  O_13
REMARK                            x       y       z     vdW  Elec       q    Type
REMARK                         _______ _______ _______ _____ _____    ______ ____
ROOT
ATOM      1  C   UNL     1       7.440   6.623  17.813  0.00  0.00    +0.000 C 
ATOM      2  C   UNL     1       6.775   5.746  16.798  0.00  0.00    +0.000 A 
ATOM      3  C   UNL     1       7.248   5.680  15.473  0.00  0.00    +0.000 A 
ATOM      4  C   UNL     1       6.640   4.864  14.512  0.00  0.00    +0.000 A 
ATOM      5  C   UNL     1       5.528   4.081  14.835  0.00  0.00    +0.000 A 
ATOM      6  C   UNL     1       5.032   4.128  16.148  0.00  0.00    +0.000 A 
ATOM      7  C   UNL     1       3.965   3.498  16.836  0.00  0.00    +0.000 A 
ATOM      8  C   UNL     1       4.016   3.933  18.146  0.00  0.00    +0.000 A 
ATOM      9  O   UNL     1       5.048   4.819  18.297  0.00  0.00    +0.000 OA
ATOM     10  C   UNL     1       5.665   4.941  17.082  0.00  0.00    +0.000 A 
ENDROOT
BRANCH   8  11
ATOM     11  C   UNL     1       3.226   3.608  19.330  0.00  0.00    +0.000 A 
ATOM     12  C   UNL     1       3.735   2.791  20.350  0.00  0.00    +0.000 A 
ATOM     13  C   UNL     1       2.930   2.404  21.428  0.00  0.00    +0.000 A 
ATOM     14  C   UNL     1       1.613   2.843  21.493  0.00  0.00    +0.000 A 
ATOM     15  C   UNL     1       1.097   3.680  20.514  0.00  0.00    +0.000 A 
ATOM     16  C   UNL     1       1.901   4.059  19.436  0.00  0.00    +0.000 A 
BRANCH  14  17
ATOM     17  O   UNL     1       0.782   2.464  22.504  0.00  0.00    +0.000 OA
ATOM     18  H   UNL     1      -0.036   2.112  22.118  0.00  0.00    +0.000 HD
ENDBRANCH  14  17
ENDBRANCH   8  11
TORSDOF 2
ENDMDL
MODEL 5
REMARK VINA RESULT:      -7.0      1.280      2.201
REMARK  Name = 
REMARK  3 active torsions:
REMARK  status: ('A' for Active; 'I' for Inactive)
REMARK    1  A    between atoms: C_1  and  C_2
REMARK    2  A    between atoms: C_8  and  C_9
REMARK    3  A    between atoms: C_12  and  O_13
REMARK                            x       y       z     vdW  Elec       q    Type
REMARK                         _______ _______ _______ _____ _____    ______ ____
ROOT
ATOM      1  C   UNL     1       4.591   1.735  21.126  0.00  0.00    +0.000 C 
ATOM      2  C   UNL     1       3.412   2.531  20.658  0.00  0.00    +0.000 A 
ATOM      3  C   UNL     1       2.212   2.554  21.395  0.00  0.00    +0.000 A 
ATOM      4  C   UNL     1       1.101   3.294  20.973  0.00  0.00    +0.000 A 
ATOM      5  C   UNL     1       1.142   4.039  19.792  0.00  0.00    +0.000 A 
ATOM      6  C   UNL     1       2.325   4.034  19.034  0.00  0.00    +0.000 A 
ATOM      7  C   UNL     1       2.740   4.647  17.826  0.00  0.00    +0.000 A 
ATOM      8  C   UNL     1       4.054   4.279  17.617  0.00  0.00    +0.000 A 
ATOM      9  O   UNL     1       4.466   3.450  18.625  0.00  0.00    +0.000 OA
ATOM     10  C   UNL     1       3.414   3.297  19.486  0.00  0.00    +0.000 A 
ENDROOT
BRANCH   8  11
ATOM     11  C   UNL     1       5.029   4.625  16.587  0.00  0.00    +0.000 A 
ATOM     12  C   UNL     1       5.027   3.994  15.334  0.00  0.00    +0.000 A 
ATOM     13  C   UNL     1       6.030   4.260  14.394  0.00  0.00    +0.000 A 
ATOM     14  C   UNL     1       7.034   5.170  14.704  0.00  0.00    +0.000 A 
ATOM     15  C   UNL     1       7.039   5.834  15.923  0.00  0.00    +0.000 A 
ATOM     16  C   UNL     1       6.040   5.560  16.861  0.00  0.00    +0.000 A 
BRANCH  14  17
ATOM     17  O   UNL     1       8.051   5.436  13.835  0.00  0.00    +0.000 OA
ATOM     18  H   UNL     1       8.634   6.102  14.235  0.00  0.00    +0.000 HD
ENDBRANCH  14  17
ENDBRANCH   8  11
TORSDOF 2
ENDMDL
MODEL 6
REMARK VINA RESULT:      -7.0      3.456      5.592
REMARK  Name = 
REMARK  3 active torsions:
REMARK  status: ('A' for Active; 'I' for Inactive)
REMARK    1  A    between atoms: C_1  and  C_2
REMARK    2  A    between atoms: C_8  and  C_9
REMARK    3  A    between atoms: C_12  and  O_13
REMARK                            x       y       z     vdW  Elec       q    Type
REMARK                         _______ _______ _______ _____ _____    ______ ____
ROOT
ATOM      1  C   UNL     1       0.142   9.003  22.064  0.00  0.00    +0.000 C 
ATOM      2  C   UNL     1       0.595   9.320  20.673  0.00  0.00    +0.000 A 
ATOM      3  C   UNL     1       0.235  10.530  20.049  0.00  0.00    +0.000 A 
ATOM      4  C   UNL     1       0.652  10.842  18.749  0.00  0.00    +0.000 A 
ATOM      5  C   UNL     1       1.443   9.954  18.017  0.00  0.00    +0.000 A 
ATOM      6  C   UNL     1       1.817   8.738  18.612  0.00  0.00    +0.000 A 
ATOM      7  C   UNL     1       2.589   7.622  18.205  0.00  0.00    +0.000 A 
ATOM      8  C   UNL     1       2.622   6.743  19.269  0.00  0.00    +0.000 A 
ATOM      9  O   UNL     1       1.888   7.250  20.308  0.00  0.00    +0.000 OA
ATOM     10  C   UNL     1       1.395   8.462  19.908  0.00  0.00    +0.000 A 
ENDROOT
BRANCH   8  11
ATOM     11  C   UNL     1       3.287   5.461  19.476  0.00  0.00    +0.000 A 
ATOM     12  C   UNL     1       4.587   5.224  19.006  0.00  0.00    +0.000 A 
ATOM     13  C   UNL     1       5.172   3.957  19.119  0.00  0.00    +0.000 A 
ATOM     14  C   UNL     1       4.458   2.923  19.715  0.00  0.00    +0.000 A 
ATOM     15  C   UNL     1       3.183   3.141  20.219  0.00  0.00    +0.000 A 
ATOM     16  C   UNL     1       2.600   4.405  20.098  0.00  0.00    +0.000 A 
BRANCH  14  17
ATOM     17  O   UNL     1       4.972   1.665  19.817  0.00  0.00    +0.000 OA
ATOM     18  H   UNL     1       5.485   1.605  20.639  0.00  0.00    +0.000 HD
ENDBRANCH  14  17
ENDBRANCH   8  11
TORSDOF 2
ENDMDL
MODEL 7
REMARK VINA RESULT:      -6.9      3.423      5.632
REMARK  Name = 
REMARK  3 active torsions:
REMARK  status: ('A' for Active; 'I' for Inactive)
REMARK    1  A    between atoms: C_1  and  C_2
REMARK    2  A    between atoms: C_8  and  C_9
REMARK    3  A    between atoms: C_12  and  O_13
REMARK                            x       y       z     vdW  Elec       q    Type
REMARK                         _______ _______ _______ _____ _____    ______ ____
ROOT
ATOM      1  C   UNL     1       0.238   9.012  22.019  0.00  0.00    +0.000 C 
ATOM      2  C   UNL     1       0.719   9.356  20.644  0.00  0.00    +0.000 A 
ATOM      3  C   UNL     1       0.442  10.611  20.070  0.00  0.00    +0.000 A 
ATOM      4  C   UNL     1       0.885  10.949  18.785  0.00  0.00    +0.000 A 
ATOM      5  C   UNL     1       1.623  10.043  18.019  0.00  0.00    +0.000 A 
ATOM      6  C   UNL     1       1.914   8.782  18.565  0.00  0.00    +0.000 A 
ATOM      7  C   UNL     1       2.615   7.636  18.114  0.00  0.00    +0.000 A 
ATOM      8  C   UNL     1       2.585   6.714  19.141  0.00  0.00    +0.000 A 
ATOM      9  O   UNL     1       1.879   7.224  20.197  0.00  0.00    +0.000 OA
ATOM     10  C   UNL     1       1.467   8.480  19.847  0.00  0.00    +0.000 A 
ENDROOT
BRANCH   8  11
ATOM     11  C   UNL     1       3.165   5.383  19.297  0.00  0.00    +0.000 A 
ATOM     12  C   UNL     1       2.500   4.371  20.004  0.00  0.00    +0.000 A 
ATOM     13  C   UNL     1       3.113   3.133  20.233  0.00  0.00    +0.000 A 
ATOM     14  C   UNL     1       4.394   2.903  19.745  0.00  0.00    +0.000 A 
ATOM     15  C   UNL     1       5.060   3.876  19.013  0.00  0.00    +0.000 A 
ATOM     16  C   UNL     1       4.447   5.112  18.792  0.00  0.00    +0.000 A 
BRANCH  14  17
ATOM     17  O   UNL     1       5.045   1.727  19.973  0.00  0.00    +0.000 OA
ATOM     18  H   UNL     1       5.839   1.699  19.414  0.00  0.00    +0.000 HD
ENDBRANCH  14  17
ENDBRANCH   8  11
TORSDOF 2
ENDMDL
MODEL 8
REMARK VINA RESULT:      -6.9      1.247      1.846
REMARK  Name = 
REMARK  3 active torsions:
REMARK  status: ('A' for Active; 'I' for Inactive)
REMARK    1  A    between atoms: C_1  and  C_2
REMARK    2  A    between atoms: C_8  and  C_9
REMARK    3  A    between atoms: C_12  and  O_13
REMARK                            x       y       z     vdW  Elec       q    Type
REMARK                         _______ _______ _______ _____ _____    ______ ____
ROOT
ATOM      1  C   UNL     1       4.475   1.698  21.115  0.00  0.00    +0.000 C 
ATOM      2  C   UNL     1       3.361   2.547  20.587  0.00  0.00    +0.000 A 
ATOM      3  C   UNL     1       2.131   2.639  21.267  0.00  0.00    +0.000 A 
ATOM      4  C   UNL     1       1.080   3.430  20.787  0.00  0.00    +0.000 A 
ATOM      5  C   UNL     1       1.213   4.159  19.603  0.00  0.00    +0.000 A 
ATOM      6  C   UNL     1       2.427   4.085  18.901  0.00  0.00    +0.000 A 
ATOM      7  C   UNL     1       2.928   4.663  17.708  0.00  0.00    +0.000 A 
ATOM      8  C   UNL     1       4.230   4.226  17.563  0.00  0.00    +0.000 A 
ATOM      9  O   UNL     1       4.553   3.388  18.596  0.00  0.00    +0.000 OA
ATOM     10  C   UNL     1       3.456   3.299  19.409  0.00  0.00    +0.000 A 
ENDROOT
BRANCH   8  11
ATOM     11  C   UNL     1       5.267   4.510  16.576  0.00  0.00    +0.000 A 
ATOM     12  C   UNL     1       6.283   5.444  16.826  0.00  0.00    +0.000 A 
ATOM     13  C   UNL     1       7.209   5.782  15.832  0.00  0.00    +0.000 A 
ATOM     14  C   UNL     1       7.126   5.176  14.584  0.00  0.00    +0.000 A 
ATOM     15  C   UNL     1       6.151   4.223  14.322  0.00  0.00    +0.000 A 
ATOM     16  C   UNL     1       5.225   3.893  15.315  0.00  0.00    +0.000 A 
BRANCH  14  17
ATOM     17  O   UNL     1       7.983   5.498  13.573  0.00  0.00    +0.000 OA
ATOM     18  H   UNL     1       7.542   5.324  12.726  0.00  0.00    +0.000 HD
ENDBRANCH  14  17
ENDBRANCH   8  11
TORSDOF 2
ENDMDL
MODEL 9
REMARK VINA RESULT:      -6.8      3.252      5.752
REMARK  Name = 
REMARK  3 active torsions:
REMARK  status: ('A' for Active; 'I' for Inactive)
REMARK    1  A    between atoms: C_1  and  C_2
REMARK    2  A    between atoms: C_8  and  C_9
REMARK    3  A    between atoms: C_12  and  O_13
REMARK                            x       y       z     vdW  Elec       q    Type
REMARK                         _______ _______ _______ _____ _____    ______ ____
ROOT
ATOM      1  C   UNL     1       1.567   2.858  21.276  0.00  0.00    +0.000 C 
ATOM      2  C   UNL     1       2.281   2.996  19.967  0.00  0.00    +0.000 A 
ATOM      3  C   UNL     1       2.808   1.870  19.304  0.00  0.00    +0.000 A 
ATOM      4  C   UNL     1       3.477   1.982  18.079  0.00  0.00    +0.000 A 
ATOM      5  C   UNL     1       3.650   3.226  17.466  0.00  0.00    +0.000 A 
ATOM      6  C   UNL     1       3.136   4.366  18.104  0.00  0.00    +0.000 A 
ATOM      7  C   UNL     1       3.109   5.751  17.805  0.00  0.00    +0.000 A 
ATOM      8  C   UNL     1       2.411   6.371  18.823  0.00  0.00    +0.000 A 
ATOM      9  O   UNL     1       2.025   5.440  19.750  0.00  0.00    +0.000 OA
ATOM     10  C   UNL     1       2.468   4.221  19.315  0.00  0.00    +0.000 A 
ENDROOT
BRANCH   8  11
ATOM     11  C   UNL     1       2.013   7.756  19.052  0.00  0.00    +0.000 A 
ATOM     12  C   UNL     1       1.515   8.182  20.292  0.00  0.00    +0.000 A 
ATOM     13  C   UNL     1       1.040   9.488  20.466  0.00  0.00    +0.000 A 
ATOM     14  C   UNL     1       1.073  10.376  19.398  0.00  0.00    +0.000 A 
ATOM     15  C   UNL     1       1.594   9.990  18.170  0.00  0.00    +0.000 A 
ATOM     16  C   UNL     1       2.060   8.684  17.999  0.00  0.00    +0.000 A 
BRANCH  14  17
ATOM     17  O   UNL     1       0.591  11.647  19.509  0.00  0.00    +0.000 OA
ATOM     18  H   UNL     1      -0.379  11.612  19.498  0.00  0.00    +0.000 HD
ENDBRANCH  14  17
ENDBRANCH   8  11
TORSDOF 2
ENDMDL
