MODEL 1
REMARK VINA RESULT:      -8.9      0.000      0.000
REMARK  Name = 
REMARK  6 active torsions:
REMARK  status: ('A' for Active; 'I' for Inactive)
REMARK    1  A    between atoms: C_8  and  N_9
REMARK    2  A    between atoms: N_12  and  C_13
REMARK    3  A    between atoms: C_15  and  C_16
REMARK    4  A    between atoms: C_15  and  C_18
REMARK    5  A    between atoms: C_23  and  O_24
REMARK    6  A    between atoms: O_24  and  C_25
REMARK                            x       y       z     vdW  Elec       q    Type
REMARK                         _______ _______ _______ _____ _____    ______ ____
ROOT
ATOM      1  C   UNL     1       2.309   5.980  19.961  0.00  0.00    +0.000 C 
ATOM      2  C   UNL     1       2.289   4.933  21.094  0.00  0.00    +0.000 C 
ATOM      3  C   UNL     1       1.848   3.589  20.485  0.00  0.00    +0.000 C 
ATOM      4  O   UNL     1       2.889   3.135  19.600  0.00  0.00    +0.000 OA
ATOM      5  C   UNL     1       3.384   4.071  18.727  0.00  0.00    +0.000 A 
ATOM      6  C   UNL     1       4.087   3.524  17.653  0.00  0.00    +0.000 A 
ATOM      7  C   UNL     1       4.621   4.349  16.673  0.00  0.00    +0.000 A 
ATOM      8  C   UNL     1       4.395   5.726  16.752  0.00  0.00    +0.000 A 
ATOM      9  C   UNL     1       3.696   6.278  17.831  0.00  0.00    +0.000 A 
ATOM     10  C   UNL     1       3.199   5.460  18.852  0.00  0.00    +0.000 A 
ENDROOT
BRANCH   1  14
ATOM     11  N   UNL     1       1.487   9.332  21.156  0.00  0.00    +0.000 N 
ATOM     12  C   UNL     1       1.359   8.010  20.793  0.00  0.00    +0.000 C 
ATOM     13  O   UNL     1       0.285   7.405  20.785  0.00  0.00    +0.000 OA
ATOM     14  N   UNL     1       2.519   7.355  20.437  0.00  0.00    +0.000 N 
ATOM     15  H   UNL     1       2.340   9.815  20.914  0.00  0.00    +0.000 HD
ATOM     16  H   UNL     1       3.192   7.917  19.938  0.00  0.00    +0.000 HD
BRANCH  11  24
ATOM     17  O   UNL     1      -2.813  15.009  20.677  0.00  0.00    +0.000 OA
ATOM     18  C   UNL     1      -2.429  14.060  21.358  0.00  0.00    +0.000 C 
ATOM     19  C   UNL     1      -2.765  13.914  22.823  0.00  0.00    +0.000 C 
ATOM     20  C   UNL     1      -2.899  12.453  23.225  0.00  0.00    +0.000 C 
ATOM     21  C   UNL     1      -1.714  11.660  22.744  0.00  0.00    +0.000 A 
ATOM     22  C   UNL     1      -1.271  10.529  23.426  0.00  0.00    +0.000 A 
ATOM     23  C   UNL     1      -0.212   9.774  22.906  0.00  0.00    +0.000 A 
ATOM     24  C   UNL     1       0.408  10.099  21.683  0.00  0.00    +0.000 A 
ATOM     25  C   UNL     1      -0.058  11.228  21.001  0.00  0.00    +0.000 A 
ATOM     26  C   UNL     1      -1.100  12.003  21.535  0.00  0.00    +0.000 A 
ATOM     27  N   UNL     1      -1.558  13.129  20.841  0.00  0.00    +0.000 N 
ATOM     28  H   UNL     1      -1.234  13.314  19.895  0.00  0.00    +0.000 HD
ENDBRANCH  11  24
ENDBRANCH   1  14
BRANCH   3  29
ATOM     29  C   UNL     1       1.674   2.540  21.592  0.00  0.00    +0.000 C 
ATOM     30  F   UNL     1       2.904   2.152  22.043  0.00  0.00    +0.000 F 
ENDBRANCH   3  29
BRANCH   3  31
ATOM     31  C   UNL     1       0.506   3.629  19.725  0.00  0.00    +0.000 C 
ATOM     32  F   UNL     1       0.329   2.466  19.046  0.00  0.00    +0.000 F 
ENDBRANCH   3  31
BRANCH   7  33
ATOM     33  O   UNL     1       5.294   3.928  15.569  0.00  0.00    +0.000 OA
BRANCH  33  34
ATOM     34  C   UNL     1       6.590   4.456  15.306  0.00  0.00    +0.000 C 
ATOM     35  F   UNL     1       6.632   5.789  15.116  0.00  0.00    +0.000 F 
ATOM     36  F   UNL     1       7.407   4.143  16.335  0.00  0.00    +0.000 F 
ATOM     37  F   UNL     1       7.073   3.869  14.188  0.00  0.00    +0.000 F 
ENDBRANCH  33  34
ENDBRANCH   7  33
TORSDOF 6
ENDMDL
MODEL 2
REMARK VINA RESULT:      -8.9      1.298      1.683
REMARK  Name = 
REMARK  6 active torsions:
REMARK  status: ('A' for Active; 'I' for Inactive)
REMARK    1  A    between atoms: C_8  and  N_9
REMARK    2  A    between atoms: N_12  and  C_13
REMARK    3  A    between atoms: C_15  and  C_16
REMARK    4  A    between atoms: C_15  and  C_18
REMARK    5  A    between atoms: C_23  and  O_24
REMARK    6  A    between atoms: O_24  and  C_25
REMARK                            x       y       z     vdW  Elec       q    Type
REMARK                         _______ _______ _______ _____ _____    ______ ____
ROOT
ATOM      1  C   UNL     1       2.208   6.086  20.278  0.00  0.00    +0.000 C 
ATOM      2  C   UNL     1       2.263   4.812  21.147  0.00  0.00    +0.000 C 
ATOM      3  C   UNL     1       1.923   3.612  20.245  0.00  0.00    +0.000 C 
ATOM      4  O   UNL     1       2.997   3.443  19.300  0.00  0.00    +0.000 OA
ATOM      5  C   UNL     1       3.423   4.584  18.667  0.00  0.00    +0.000 A 
ATOM      6  C   UNL     1       4.166   4.345  17.512  0.00  0.00    +0.000 A 
ATOM      7  C   UNL     1       4.639   5.405  16.750  0.00  0.00    +0.000 A 
ATOM      8  C   UNL     1       4.312   6.709  17.132  0.00  0.00    +0.000 A 
ATOM      9  C   UNL     1       3.572   6.953  18.294  0.00  0.00    +0.000 A 
ATOM     10  C   UNL     1       3.135   5.894  19.097  0.00  0.00    +0.000 A 
ENDROOT
BRANCH   1  14
ATOM     11  N   UNL     1       1.393   9.447  21.451  0.00  0.00    +0.000 N 
ATOM     12  C   UNL     1       1.293   8.226  20.823  0.00  0.00    +0.000 C 
ATOM     13  O   UNL     1       0.350   7.908  20.095  0.00  0.00    +0.000 OA
ATOM     14  N   UNL     1       2.315   7.330  21.053  0.00  0.00    +0.000 N 
ATOM     15  H   UNL     1       2.289   9.720  21.829  0.00  0.00    +0.000 HD
ATOM     16  H   UNL     1       3.233   7.741  21.140  0.00  0.00    +0.000 HD
BRANCH  11  24
ATOM     17  O   UNL     1      -4.362  12.354  24.514  0.00  0.00    +0.000 OA
ATOM     18  C   UNL     1      -3.643  12.292  23.518  0.00  0.00    +0.000 C 
ATOM     19  C   UNL     1      -4.033  12.893  22.188  0.00  0.00    +0.000 C 
ATOM     20  C   UNL     1      -2.818  13.388  21.419  0.00  0.00    +0.000 C 
ATOM     21  C   UNL     1      -1.752  12.327  21.370  0.00  0.00    +0.000 A 
ATOM     22  C   UNL     1      -0.856  12.246  20.307  0.00  0.00    +0.000 A 
ATOM     23  C   UNL     1       0.169  11.291  20.333  0.00  0.00    +0.000 A 
ATOM     24  C   UNL     1       0.352  10.420  21.426  0.00  0.00    +0.000 A 
ATOM     25  C   UNL     1      -0.546  10.523  22.494  0.00  0.00    +0.000 A 
ATOM     26  C   UNL     1      -1.591  11.461  22.457  0.00  0.00    +0.000 A 
ATOM     27  N   UNL     1      -2.481  11.555  23.533  0.00  0.00    +0.000 N 
ATOM     28  H   UNL     1      -2.300  11.045  24.393  0.00  0.00    +0.000 HD
ENDBRANCH  11  24
ENDBRANCH   1  14
BRANCH   3  29
ATOM     29  C   UNL     1       1.826   2.331  21.086  0.00  0.00    +0.000 C 
ATOM     30  F   UNL     1       1.100   2.585  22.214  0.00  0.00    +0.000 F 
ENDBRANCH   3  29
BRANCH   3  31
ATOM     31  C   UNL     1       0.584   3.725  19.489  0.00  0.00    +0.000 C 
ATOM     32  F   UNL     1       0.268   2.527  18.932  0.00  0.00    +0.000 F 
ENDBRANCH   3  31
BRANCH   7  33
ATOM     33  O   UNL     1       5.343   5.292  15.592  0.00  0.00    +0.000 OA
BRANCH  33  34
ATOM     34  C   UNL     1       6.758   5.151  15.655  0.00  0.00    +0.000 C 
ATOM     35  F   UNL     1       7.396   6.122  16.338  0.00  0.00    +0.000 F 
ATOM     36  F   UNL     1       7.055   3.961  16.222  0.00  0.00    +0.000 F 
ATOM     37  F   UNL     1       7.245   5.152  14.394  0.00  0.00    +0.000 F 
ENDBRANCH  33  34
ENDBRANCH   7  33
TORSDOF 6
ENDMDL
MODEL 3
REMARK VINA RESULT:      -8.9      1.153      1.311
REMARK  Name = 
REMARK  6 active torsions:
REMARK  status: ('A' for Active; 'I' for Inactive)
REMARK    1  A    between atoms: C_8  and  N_9
REMARK    2  A    between atoms: N_12  and  C_13
REMARK    3  A    between atoms: C_15  and  C_16
REMARK    4  A    between atoms: C_15  and  C_18
REMARK    5  A    between atoms: C_23  and  O_24
REMARK    6  A    between atoms: O_24  and  C_25
REMARK                            x       y       z     vdW  Elec       q    Type
REMARK                         _______ _______ _______ _____ _____    ______ ____
ROOT
ATOM      1  C   UNL     1       2.642   5.727  19.573  0.00  0.00    +0.000 C 
ATOM      2  C   UNL     1       2.577   4.307  20.170  0.00  0.00    +0.000 C 
ATOM      3  C   UNL     1       2.168   3.340  19.044  0.00  0.00    +0.000 C 
ATOM      4  O   UNL     1       3.249   3.277  18.094  0.00  0.00    +0.000 OA
ATOM      5  C   UNL     1       3.777   4.483  17.706  0.00  0.00    +0.000 A 
ATOM      6  C   UNL     1       4.528   4.419  16.532  0.00  0.00    +0.000 A 
ATOM      7  C   UNL     1       5.099   5.568  16.002  0.00  0.00    +0.000 A 
ATOM      8  C   UNL     1       4.864   6.791  16.633  0.00  0.00    +0.000 A 
ATOM      9  C   UNL     1       4.117   6.859  17.814  0.00  0.00    +0.000 A 
ATOM     10  C   UNL     1       3.580   5.700  18.386  0.00  0.00    +0.000 A 
ENDROOT
BRANCH   1  14
ATOM     11  N   UNL     1       1.924   8.721  21.538  0.00  0.00    +0.000 N 
ATOM     12  C   UNL     1       1.766   7.660  20.676  0.00  0.00    +0.000 C 
ATOM     13  O   UNL     1       0.744   7.464  20.015  0.00  0.00    +0.000 OA
ATOM     14  N   UNL     1       2.825   6.781  20.582  0.00  0.00    +0.000 N 
ATOM     15  H   UNL     1       2.856   8.946  21.857  0.00  0.00    +0.000 HD
ATOM     16  H   UNL     1       3.739   7.203  20.646  0.00  0.00    +0.000 HD
BRANCH  11  24
ATOM     17  O   UNL     1      -1.468  14.863  20.226  0.00  0.00    +0.000 OA
ATOM     18  C   UNL     1      -1.338  13.895  20.973  0.00  0.00    +0.000 C 
ATOM     19  C   UNL     1      -1.952  13.837  22.352  0.00  0.00    +0.000 C 
ATOM     20  C   UNL     1      -2.340  12.416  22.733  0.00  0.00    +0.000 C 
ATOM     21  C   UNL     1      -1.196  11.470  22.487  0.00  0.00    +0.000 A 
ATOM     22  C   UNL     1      -1.031  10.315  23.248  0.00  0.00    +0.000 A 
ATOM     23  C   UNL     1       0.002   9.421  22.939  0.00  0.00    +0.000 A 
ATOM     24  C   UNL     1       0.872   9.630  21.850  0.00  0.00    +0.000 A 
ATOM     25  C   UNL     1       0.685  10.786  21.084  0.00  0.00    +0.000 A 
ATOM     26  C   UNL     1      -0.333  11.698  21.410  0.00  0.00    +0.000 A 
ATOM     27  N   UNL     1      -0.511  12.849  20.635  0.00  0.00    +0.000 N 
ATOM     28  H   UNL     1       0.002  12.965  19.764  0.00  0.00    +0.000 HD
ENDBRANCH  11  24
ENDBRANCH   1  14
BRANCH   3  29
ATOM     29  C   UNL     1       1.953   1.930  19.611  0.00  0.00    +0.000 C 
ATOM     30  F   UNL     1       1.565   2.023  20.918  0.00  0.00    +0.000 F 
ENDBRANCH   3  29
BRANCH   3  31
ATOM     31  C   UNL     1       0.861   3.708  18.314  0.00  0.00    +0.000 C 
ATOM     32  F   UNL     1       1.146   4.201  17.081  0.00  0.00    +0.000 F 
ENDBRANCH   3  31
BRANCH   7  33
ATOM     33  O   UNL     1       5.821   5.630  14.851  0.00  0.00    +0.000 OA
BRANCH  33  34
ATOM     34  C   UNL     1       6.918   4.740  14.675  0.00  0.00    +0.000 C 
ATOM     35  F   UNL     1       7.621   4.477  15.794  0.00  0.00    +0.000 F 
ATOM     36  F   UNL     1       6.461   3.574  14.171  0.00  0.00    +0.000 F 
ATOM     37  F   UNL     1       7.770   5.284  13.777  0.00  0.00    +0.000 F 
ENDBRANCH  33  34
ENDBRANCH   7  33
TORSDOF 6
ENDMDL
MODEL 4
REMARK VINA RESULT:      -8.9      1.647      2.104
REMARK  Name = 
REMARK  6 active torsions:
REMARK  status: ('A' for Active; 'I' for Inactive)
REMARK    1  A    between atoms: C_8  and  N_9
REMARK    2  A    between atoms: N_12  and  C_13
REMARK    3  A    between atoms: C_15  and  C_16
REMARK    4  A    between atoms: C_15  and  C_18
REMARK    5  A    between atoms: C_23  and  O_24
REMARK    6  A    between atoms: O_24  and  C_25
REMARK                            x       y       z     vdW  Elec       q    Type
REMARK                         _______ _______ _______ _____ _____    ______ ____
ROOT
ATOM      1  C   UNL     1       2.754   5.477  19.418  0.00  0.00    +0.000 C 
ATOM      2  C   UNL     1       2.874   4.054  20.002  0.00  0.00    +0.000 C 
ATOM      3  C   UNL     1       2.621   3.053  18.859  0.00  0.00    +0.000 C 
ATOM      4  O   UNL     1       3.716   3.149  17.930  0.00  0.00    +0.000 OA
ATOM      5  C   UNL     1       4.082   4.420  17.562  0.00  0.00    +0.000 A 
ATOM      6  C   UNL     1       4.855   4.472  16.403  0.00  0.00    +0.000 A 
ATOM      7  C   UNL     1       5.274   5.693  15.894  0.00  0.00    +0.000 A 
ATOM      8  C   UNL     1       4.863   6.867  16.531  0.00  0.00    +0.000 A 
ATOM      9  C   UNL     1       4.093   6.818  17.698  0.00  0.00    +0.000 A 
ATOM     10  C   UNL     1       3.709   5.591  18.249  0.00  0.00    +0.000 A 
ENDROOT
BRANCH   1  14
ATOM     11  N   UNL     1       1.941   8.631  21.069  0.00  0.00    +0.000 N 
ATOM     12  C   UNL     1       1.897   7.569  20.195  0.00  0.00    +0.000 C 
ATOM     13  O   UNL     1       1.120   7.504  19.239  0.00  0.00    +0.000 OA
ATOM     14  N   UNL     1       2.774   6.534  20.439  0.00  0.00    +0.000 N 
ATOM     15  H   UNL     1       2.746   8.724  21.672  0.00  0.00    +0.000 HD
ATOM     16  H   UNL     1       3.676   6.812  20.796  0.00  0.00    +0.000 HD
BRANCH  11  24
ATOM     17  O   UNL     1      -3.400  12.221  24.157  0.00  0.00    +0.000 OA
ATOM     18  C   UNL     1      -2.719  12.052  23.148  0.00  0.00    +0.000 C 
ATOM     19  C   UNL     1      -3.081  12.643  21.806  0.00  0.00    +0.000 C 
ATOM     20  C   UNL     1      -1.843  12.984  20.991  0.00  0.00    +0.000 C 
ATOM     21  C   UNL     1      -0.894  11.816  20.956  0.00  0.00    +0.000 A 
ATOM     22  C   UNL     1      -0.039  11.607  19.876  0.00  0.00    +0.000 A 
ATOM     23  C   UNL     1       0.882  10.552  19.913  0.00  0.00    +0.000 A 
ATOM     24  C   UNL     1       1.004   9.705  21.033  0.00  0.00    +0.000 A 
ATOM     25  C   UNL     1       0.151   9.938  22.117  0.00  0.00    +0.000 A 
ATOM     26  C   UNL     1      -0.793  10.977  22.070  0.00  0.00    +0.000 A 
ATOM     27  N   UNL     1      -1.639  11.199  23.162  0.00  0.00    +0.000 N 
ATOM     28  H   UNL     1      -1.488  10.703  24.037  0.00  0.00    +0.000 HD
ENDBRANCH  11  24
ENDBRANCH   1  14
BRANCH   3  29
ATOM     29  C   UNL     1       2.589   1.621  19.410  0.00  0.00    +0.000 C 
ATOM     30  F   UNL     1       3.471   0.848  18.709  0.00  0.00    +0.000 F 
ENDBRANCH   3  29
BRANCH   3  31
ATOM     31  C   UNL     1       1.288   3.248  18.108  0.00  0.00    +0.000 C 
ATOM     32  F   UNL     1       0.306   2.543  18.726  0.00  0.00    +0.000 F 
ENDBRANCH   3  31
BRANCH   7  33
ATOM     33  O   UNL     1       6.001   5.867  14.758  0.00  0.00    +0.000 OA
BRANCH  33  34
ATOM     34  C   UNL     1       6.971   4.887  14.402  0.00  0.00    +0.000 C 
ATOM     35  F   UNL     1       7.693   4.403  15.432  0.00  0.00    +0.000 F 
ATOM     36  F   UNL     1       6.348   3.855  13.792  0.00  0.00    +0.000 F 
ATOM     37  F   UNL     1       7.835   5.440  13.522  0.00  0.00    +0.000 F 
ENDBRANCH  33  34
ENDBRANCH   7  33
TORSDOF 6
ENDMDL
MODEL 5
REMARK VINA RESULT:      -8.8      2.218      2.863
REMARK  Name = 
REMARK  6 active torsions:
REMARK  status: ('A' for Active; 'I' for Inactive)
REMARK    1  A    between atoms: C_8  and  N_9
REMARK    2  A    between atoms: N_12  and  C_13
REMARK    3  A    between atoms: C_15  and  C_16
REMARK    4  A    between atoms: C_15  and  C_18
REMARK    5  A    between atoms: C_23  and  O_24
REMARK    6  A    between atoms: O_24  and  C_25
REMARK                            x       y       z     vdW  Elec       q    Type
REMARK                         _______ _______ _______ _____ _____    ______ ____
ROOT
ATOM      1  C   UNL     1       3.594   6.171  17.691  0.00  0.00    +0.000 C 
ATOM      2  C   UNL     1       3.689   5.369  19.005  0.00  0.00    +0.000 C 
ATOM      3  C   UNL     1       3.459   3.884  18.668  0.00  0.00    +0.000 C 
ATOM      4  O   UNL     1       4.578   3.423  17.888  0.00  0.00    +0.000 OA
ATOM      5  C   UNL     1       4.961   4.235  16.851  0.00  0.00    +0.000 A 
ATOM      6  C   UNL     1       5.764   3.600  15.903  0.00  0.00    +0.000 A 
ATOM      7  C   UNL     1       6.203   4.289  14.781  0.00  0.00    +0.000 A 
ATOM      8  C   UNL     1       5.784   5.608  14.592  0.00  0.00    +0.000 A 
ATOM      9  C   UNL     1       4.984   6.251  15.544  0.00  0.00    +0.000 A 
ATOM     10  C   UNL     1       4.578   5.581  16.704  0.00  0.00    +0.000 A 
ENDROOT
BRANCH   1  14
ATOM     11  N   UNL     1       2.284   9.521  18.323  0.00  0.00    +0.000 N 
ATOM     12  C   UNL     1       2.361   8.151  18.217  0.00  0.00    +0.000 C 
ATOM     13  O   UNL     1       1.404   7.397  18.408  0.00  0.00    +0.000 OA
ATOM     14  N   UNL     1       3.594   7.627  17.891  0.00  0.00    +0.000 N 
ATOM     15  H   UNL     1       3.030  10.076  17.928  0.00  0.00    +0.000 HD
ATOM     16  H   UNL     1       4.137   8.180  17.244  0.00  0.00    +0.000 HD
BRANCH  11  24
ATOM     17  O   UNL     1      -0.989  13.280  23.433  0.00  0.00    +0.000 OA
ATOM     18  C   UNL     1      -1.097  12.673  22.369  0.00  0.00    +0.000 C 
ATOM     19  C   UNL     1      -2.433  12.305  21.767  0.00  0.00    +0.000 C 
ATOM     20  C   UNL     1      -2.383  12.311  20.247  0.00  0.00    +0.000 C 
ATOM     21  C   UNL     1      -1.203  11.519  19.751  0.00  0.00    +0.000 A 
ATOM     22  C   UNL     1      -1.229  10.868  18.521  0.00  0.00    +0.000 A 
ATOM     23  C   UNL     1      -0.084  10.204  18.061  0.00  0.00    +0.000 A 
ATOM     24  C   UNL     1       1.121  10.199  18.791  0.00  0.00    +0.000 A 
ATOM     25  C   UNL     1       1.138  10.871  20.018  0.00  0.00    +0.000 A 
ATOM     26  C   UNL     1      -0.017  11.513  20.494  0.00  0.00    +0.000 A 
ATOM     27  N   UNL     1       0.014  12.183  21.722  0.00  0.00    +0.000 N 
ATOM     28  H   UNL     1       0.896  12.320  22.208  0.00  0.00    +0.000 HD
ENDBRANCH  11  24
ENDBRANCH   1  14
BRANCH   3  29
ATOM     29  C   UNL     1       3.404   3.053  19.958  0.00  0.00    +0.000 C 
ATOM     30  F   UNL     1       2.820   3.792  20.947  0.00  0.00    +0.000 F 
ENDBRANCH   3  29
BRANCH   3  31
ATOM     31  C   UNL     1       2.147   3.584  17.915  0.00  0.00    +0.000 C 
ATOM     32  F   UNL     1       1.100   4.142  18.577  0.00  0.00    +0.000 F 
ENDBRANCH   3  31
BRANCH   7  33
ATOM     33  O   UNL     1       6.959   3.765  13.780  0.00  0.00    +0.000 OA
BRANCH  33  34
ATOM     34  C   UNL     1       6.374   3.580  12.496  0.00  0.00    +0.000 C 
ATOM     35  F   UNL     1       5.028   3.660  12.468  0.00  0.00    +0.000 F 
ATOM     36  F   UNL     1       6.875   4.504  11.648  0.00  0.00    +0.000 F 
ATOM     37  F   UNL     1       6.719   2.356  12.039  0.00  0.00    +0.000 F 
ENDBRANCH  33  34
ENDBRANCH   7  33
TORSDOF 6
ENDMDL
MODEL 6
REMARK VINA RESULT:      -8.8      5.197     10.480
REMARK  Name = 
REMARK  6 active torsions:
REMARK  status: ('A' for Active; 'I' for Inactive)
REMARK    1  A    between atoms: C_8  and  N_9
REMARK    2  A    between atoms: N_12  and  C_13
REMARK    3  A    between atoms: C_15  and  C_16
REMARK    4  A    between atoms: C_15  and  C_18
REMARK    5  A    between atoms: C_23  and  O_24
REMARK    6  A    between atoms: O_24  and  C_25
REMARK                            x       y       z     vdW  Elec       q    Type
REMARK                         _______ _______ _______ _____ _____    ______ ____
ROOT
ATOM      1  C   UNL     1       1.133  10.390  19.115  0.00  0.00    +0.000 C 
ATOM      2  C   UNL     1       1.476  11.499  20.131  0.00  0.00    +0.000 C 
ATOM      3  C   UNL     1       1.298  12.856  19.425  0.00  0.00    +0.000 C 
ATOM      4  O   UNL     1      -0.105  13.041  19.157  0.00  0.00    +0.000 OA
ATOM      5  C   UNL     1      -0.756  11.969  18.600  0.00  0.00    +0.000 A 
ATOM      6  C   UNL     1      -1.976  12.294  18.008  0.00  0.00    +0.000 A 
ATOM      7  C   UNL     1      -2.732  11.316  17.377  0.00  0.00    +0.000 A 
ATOM      8  C   UNL     1      -2.225  10.017  17.299  0.00  0.00    +0.000 A 
ATOM      9  C   UNL     1      -1.004   9.685  17.897  0.00  0.00    +0.000 A 
ATOM     10  C   UNL     1      -0.259  10.652  18.581  0.00  0.00    +0.000 A 
ENDROOT
BRANCH   1  14
ATOM     11  N   UNL     1       2.303   6.932  19.015  0.00  0.00    +0.000 N 
ATOM     12  C   UNL     1       2.066   8.239  18.651  0.00  0.00    +0.000 C 
ATOM     13  O   UNL     1       2.381   8.710  17.556  0.00  0.00    +0.000 OA
ATOM     14  N   UNL     1       1.453   9.037  19.593  0.00  0.00    +0.000 N 
ATOM     15  H   UNL     1       1.814   6.561  19.816  0.00  0.00    +0.000 HD
ATOM     16  H   UNL     1       0.760   8.574  20.162  0.00  0.00    +0.000 HD
BRANCH  11  24
ATOM     17  O   UNL     1       7.874   5.707  14.723  0.00  0.00    +0.000 OA
ATOM     18  C   UNL     1       6.820   5.282  15.194  0.00  0.00    +0.000 C 
ATOM     19  C   UNL     1       6.128   4.047  14.667  0.00  0.00    +0.000 C 
ATOM     20  C   UNL     1       5.395   3.301  15.771  0.00  0.00    +0.000 C 
ATOM     21  C   UNL     1       4.534   4.244  16.567  0.00  0.00    +0.000 A 
ATOM     22  C   UNL     1       3.365   3.811  17.190  0.00  0.00    +0.000 A 
ATOM     23  C   UNL     1       2.630   4.701  17.984  0.00  0.00    +0.000 A 
ATOM     24  C   UNL     1       3.053   6.026  18.209  0.00  0.00    +0.000 A 
ATOM     25  C   UNL     1       4.237   6.443  17.590  0.00  0.00    +0.000 A 
ATOM     26  C   UNL     1       4.960   5.560  16.771  0.00  0.00    +0.000 A 
ATOM     27  N   UNL     1       6.144   5.989  16.160  0.00  0.00    +0.000 N 
ATOM     28  H   UNL     1       6.553   6.886  16.409  0.00  0.00    +0.000 HD
ENDBRANCH  11  24
ENDBRANCH   1  14
BRANCH   3  29
ATOM     29  C   UNL     1       1.760  13.994  20.345  0.00  0.00    +0.000 C 
ATOM     30  F   UNL     1       2.827  13.572  21.085  0.00  0.00    +0.000 F 
ENDBRANCH   3  29
BRANCH   3  31
ATOM     31  C   UNL     1       2.098  13.018  18.116  0.00  0.00    +0.000 C 
ATOM     32  F   UNL     1       2.413  14.326  17.930  0.00  0.00    +0.000 F 
ENDBRANCH   3  31
BRANCH   7  33
ATOM     33  O   UNL     1      -3.916  11.523  16.741  0.00  0.00    +0.000 OA
BRANCH  33  34
ATOM     34  C   UNL     1      -5.084  11.769  17.517  0.00  0.00    +0.000 C 
ATOM     35  F   UNL     1      -5.999  10.780  17.494  0.00  0.00    +0.000 F 
ATOM     36  F   UNL     1      -4.721  11.987  18.799  0.00  0.00    +0.000 F 
ATOM     37  F   UNL     1      -5.681  12.888  17.050  0.00  0.00    +0.000 F 
ENDBRANCH  33  34
ENDBRANCH   7  33
TORSDOF 6
ENDMDL
MODEL 7
REMARK VINA RESULT:      -8.8      2.763      3.339
REMARK  Name = 
REMARK  6 active torsions:
REMARK  status: ('A' for Active; 'I' for Inactive)
REMARK    1  A    between atoms: C_8  and  N_9
REMARK    2  A    between atoms: N_12  and  C_13
REMARK    3  A    between atoms: C_15  and  C_16
REMARK    4  A    between atoms: C_15  and  C_18
REMARK    5  A    between atoms: C_23  and  O_24
REMARK    6  A    between atoms: O_24  and  C_25
REMARK                            x       y       z     vdW  Elec       q    Type
REMARK                         _______ _______ _______ _____ _____    ______ ____
ROOT
ATOM      1  C   UNL     1       3.732   6.003  17.703  0.00  0.00    +0.000 C 
ATOM      2  C   UNL     1       3.901   5.184  18.999  0.00  0.00    +0.000 C 
ATOM      3  C   UNL     1       3.705   3.698  18.646  0.00  0.00    +0.000 C 
ATOM      4  O   UNL     1       4.807   3.284  17.817  0.00  0.00    +0.000 OA
ATOM      5  C   UNL     1       5.125   4.124  16.780  0.00  0.00    +0.000 A 
ATOM      6  C   UNL     1       5.911   3.530  15.793  0.00  0.00    +0.000 A 
ATOM      7  C   UNL     1       6.286   4.250  14.667  0.00  0.00    +0.000 A 
ATOM      8  C   UNL     1       5.819   5.558  14.516  0.00  0.00    +0.000 A 
ATOM      9  C   UNL     1       5.036   6.160  15.507  0.00  0.00    +0.000 A 
ATOM     10  C   UNL     1       4.696   5.460  16.670  0.00  0.00    +0.000 A 
ENDROOT
BRANCH   1  14
ATOM     11  N   UNL     1       2.327   9.323  18.291  0.00  0.00    +0.000 N 
ATOM     12  C   UNL     1       2.433   7.956  18.168  0.00  0.00    +0.000 C 
ATOM     13  O   UNL     1       1.476   7.185  18.272  0.00  0.00    +0.000 OA
ATOM     14  N   UNL     1       3.695   7.455  17.928  0.00  0.00    +0.000 N 
ATOM     15  H   UNL     1       3.092   9.895  17.963  0.00  0.00    +0.000 HD
ATOM     16  H   UNL     1       4.277   8.027  17.334  0.00  0.00    +0.000 HD
BRANCH  11  24
ATOM     17  O   UNL     1      -4.531  10.818  16.997  0.00  0.00    +0.000 OA
ATOM     18  C   UNL     1      -3.535  11.050  17.681  0.00  0.00    +0.000 C 
ATOM     19  C   UNL     1      -3.443  12.230  18.619  0.00  0.00    +0.000 C 
ATOM     20  C   UNL     1      -2.589  11.912  19.837  0.00  0.00    +0.000 C 
ATOM     21  C   UNL     1      -1.277  11.304  19.421  0.00  0.00    +0.000 A 
ATOM     22  C   UNL     1      -0.125  11.464  20.187  0.00  0.00    +0.000 A 
ATOM     23  C   UNL     1       1.059  10.820  19.806  0.00  0.00    +0.000 A 
ATOM     24  C   UNL     1       1.121   9.976  18.680  0.00  0.00    +0.000 A 
ATOM     25  C   UNL     1      -0.047   9.811  17.928  0.00  0.00    +0.000 A 
ATOM     26  C   UNL     1      -1.228  10.478  18.292  0.00  0.00    +0.000 A 
ATOM     27  N   UNL     1      -2.390  10.303  17.533  0.00  0.00    +0.000 N 
ATOM     28  H   UNL     1      -2.422   9.598  16.801  0.00  0.00    +0.000 HD
ENDBRANCH  11  24
ENDBRANCH   1  14
BRANCH   3  29
ATOM     29  C   UNL     1       3.725   2.845  19.922  0.00  0.00    +0.000 C 
ATOM     30  F   UNL     1       4.589   1.801  19.755  0.00  0.00    +0.000 F 
ENDBRANCH   3  29
BRANCH   3  31
ATOM     31  C   UNL     1       2.375   3.369  17.937  0.00  0.00    +0.000 C 
ATOM     32  F   UNL     1       2.456   2.144  17.356  0.00  0.00    +0.000 F 
ENDBRANCH   3  31
BRANCH   7  33
ATOM     33  O   UNL     1       7.020   3.766  13.629  0.00  0.00    +0.000 OA
BRANCH  33  34
ATOM     34  C   UNL     1       6.376   3.518  12.384  0.00  0.00    +0.000 C 
ATOM     35  F   UNL     1       6.621   2.305  11.850  0.00  0.00    +0.000 F 
ATOM     36  F   UNL     1       5.042   3.655  12.545  0.00  0.00    +0.000 F 
ATOM     37  F   UNL     1       6.792   4.447  11.494  0.00  0.00    +0.000 F 
ENDBRANCH  33  34
ENDBRANCH   7  33
TORSDOF 6
ENDMDL
MODEL 8
REMARK VINA RESULT:      -8.8      0.993      1.178
REMARK  Name = 
REMARK  6 active torsions:
REMARK  status: ('A' for Active; 'I' for Inactive)
REMARK    1  A    between atoms: C_8  and  N_9
REMARK    2  A    between atoms: N_12  and  C_13
REMARK    3  A    between atoms: C_15  and  C_16
REMARK    4  A    between atoms: C_15  and  C_18
REMARK    5  A    between atoms: C_23  and  O_24
REMARK    6  A    between atoms: O_24  and  C_25
REMARK                            x       y       z     vdW  Elec       q    Type
REMARK                         _______ _______ _______ _____ _____    ______ ____
ROOT
ATOM      1  C   UNL     1       2.752   5.805  19.377  0.00  0.00    +0.000 C 
ATOM      2  C   UNL     1       2.531   4.747  20.477  0.00  0.00    +0.000 C 
ATOM      3  C   UNL     1       2.157   3.422  19.787  0.00  0.00    +0.000 C 
ATOM      4  O   UNL     1       3.311   2.950  19.068  0.00  0.00    +0.000 OA
ATOM      5  C   UNL     1       3.959   3.881  18.296  0.00  0.00    +0.000 A 
ATOM      6  C   UNL     1       4.807   3.328  17.336  0.00  0.00    +0.000 A 
ATOM      7  C   UNL     1       5.506   4.149  16.462  0.00  0.00    +0.000 A 
ATOM      8  C   UNL     1       5.304   5.530  16.526  0.00  0.00    +0.000 A 
ATOM      9  C   UNL     1       4.460   6.089  17.492  0.00  0.00    +0.000 A 
ATOM     10  C   UNL     1       3.790   5.274  18.411  0.00  0.00    +0.000 A 
ENDROOT
BRANCH   1  14
ATOM     11  N   UNL     1       1.835   9.046  20.789  0.00  0.00    +0.000 N 
ATOM     12  C   UNL     1       1.756   7.735  20.375  0.00  0.00    +0.000 C 
ATOM     13  O   UNL     1       0.721   7.066  20.422  0.00  0.00    +0.000 OA
ATOM     14  N   UNL     1       2.919   7.169  19.899  0.00  0.00    +0.000 N 
ATOM     15  H   UNL     1       2.636   9.591  20.504  0.00  0.00    +0.000 HD
ATOM     16  H   UNL     1       3.516   7.792  19.376  0.00  0.00    +0.000 HD
BRANCH  11  24
ATOM     17  O   UNL     1      -3.107  14.195  20.703  0.00  0.00    +0.000 OA
ATOM     18  C   UNL     1      -2.527  13.332  21.360  0.00  0.00    +0.000 C 
ATOM     19  C   UNL     1      -2.638  13.234  22.863  0.00  0.00    +0.000 C 
ATOM     20  C   UNL     1      -2.549  11.792  23.339  0.00  0.00    +0.000 C 
ATOM     21  C   UNL     1      -1.359  11.104  22.725  0.00  0.00    +0.000 A 
ATOM     22  C   UNL     1      -0.701  10.067  23.382  0.00  0.00    +0.000 A 
ATOM     23  C   UNL     1       0.355   9.401  22.746  0.00  0.00    +0.000 A 
ATOM     24  C   UNL     1       0.759   9.722  21.434  0.00  0.00    +0.000 A 
ATOM     25  C   UNL     1       0.078  10.755  20.781  0.00  0.00    +0.000 A 
ATOM     26  C   UNL     1      -0.962  11.442  21.427  0.00  0.00    +0.000 A 
ATOM     27  N   UNL     1      -1.636  12.472  20.761  0.00  0.00    +0.000 N 
ATOM     28  H   UNL     1      -1.469  12.638  19.772  0.00  0.00    +0.000 HD
ENDBRANCH  11  24
ENDBRANCH   1  14
BRANCH   3  29
ATOM     29  C   UNL     1       1.788   2.366  20.839  0.00  0.00    +0.000 C 
ATOM     30  F   UNL     1       1.078   2.958  21.844  0.00  0.00    +0.000 F 
ENDBRANCH   3  29
BRANCH   3  31
ATOM     31  C   UNL     1       0.951   3.505  18.830  0.00  0.00    +0.000 C 
ATOM     32  F   UNL     1       0.128   2.444  19.035  0.00  0.00    +0.000 F 
ENDBRANCH   3  31
BRANCH   7  33
ATOM     33  O   UNL     1       6.332   3.722  15.470  0.00  0.00    +0.000 OA
BRANCH  33  34
ATOM     34  C   UNL     1       6.045   4.091  14.125  0.00  0.00    +0.000 C 
ATOM     35  F   UNL     1       6.330   3.149  13.205  0.00  0.00    +0.000 F 
ATOM     36  F   UNL     1       4.735   4.405  14.026  0.00  0.00    +0.000 F 
ATOM     37  F   UNL     1       6.768   5.192  13.819  0.00  0.00    +0.000 F 
ENDBRANCH  33  34
ENDBRANCH   7  33
TORSDOF 6
ENDMDL
MODEL 9
REMARK VINA RESULT:      -8.6      1.981      2.480
REMARK  Name = 
REMARK  6 active torsions:
REMARK  status: ('A' for Active; 'I' for Inactive)
REMARK    1  A    between atoms: C_8  and  N_9
REMARK    2  A    between atoms: N_12  and  C_13
REMARK    3  A    between atoms: C_15  and  C_16
REMARK    4  A    between atoms: C_15  and  C_18
REMARK    5  A    between atoms: C_23  and  O_24
REMARK    6  A    between atoms: O_24  and  C_25
REMARK                            x       y       z     vdW  Elec       q    Type
REMARK                         _______ _______ _______ _____ _____    ______ ____
ROOT
ATOM      1  C   UNL     1       3.503   5.782  17.799  0.00  0.00    +0.000 C 
ATOM      2  C   UNL     1       3.740   4.975  19.091  0.00  0.00    +0.000 C 
ATOM      3  C   UNL     1       3.681   3.479  18.730  0.00  0.00    +0.000 C 
ATOM      4  O   UNL     1       4.821   3.172  17.906  0.00  0.00    +0.000 OA
ATOM      5  C   UNL     1       5.067   4.043  16.874  0.00  0.00    +0.000 A 
ATOM      6  C   UNL     1       5.908   3.528  15.889  0.00  0.00    +0.000 A 
ATOM      7  C   UNL     1       6.222   4.286  14.769  0.00  0.00    +0.000 A 
ATOM      8  C   UNL     1       5.639   5.546  14.621  0.00  0.00    +0.000 A 
ATOM      9  C   UNL     1       4.799   6.069  15.611  0.00  0.00    +0.000 A 
ATOM     10  C   UNL     1       4.518   5.335  16.768  0.00  0.00    +0.000 A 
ENDROOT
BRANCH   1  14
ATOM     11  N   UNL     1       2.097   8.872  19.147  0.00  0.00    +0.000 N 
ATOM     12  C   UNL     1       2.364   7.534  18.960  0.00  0.00    +0.000 C 
ATOM     13  O   UNL     1       1.797   6.632  19.582  0.00  0.00    +0.000 OA
ATOM     14  N   UNL     1       3.332   7.224  18.030  0.00  0.00    +0.000 N 
ATOM     15  H   UNL     1       2.419   9.527  18.449  0.00  0.00    +0.000 HD
ATOM     16  H   UNL     1       3.357   7.825  17.220  0.00  0.00    +0.000 HD
BRANCH  11  24
ATOM     17  O   UNL     1      -3.103  13.315  21.189  0.00  0.00    +0.000 OA
ATOM     18  C   UNL     1      -2.254  12.493  21.531  0.00  0.00    +0.000 C 
ATOM     19  C   UNL     1      -1.854  12.281  22.972  0.00  0.00    +0.000 C 
ATOM     20  C   UNL     1      -1.464  10.834  23.238  0.00  0.00    +0.000 C 
ATOM     21  C   UNL     1      -0.478  10.353  22.207  0.00  0.00    +0.000 A 
ATOM     22  C   UNL     1       0.463   9.370  22.505  0.00  0.00    +0.000 A 
ATOM     23  C   UNL     1       1.314   8.895  21.499  0.00  0.00    +0.000 A 
ATOM     24  C   UNL     1       1.229   9.354  20.170  0.00  0.00    +0.000 A 
ATOM     25  C   UNL     1       0.268  10.329  19.881  0.00  0.00    +0.000 A 
ATOM     26  C   UNL     1      -0.567  10.827  20.894  0.00  0.00    +0.000 A 
ATOM     27  N   UNL     1      -1.525  11.801  20.592  0.00  0.00    +0.000 N 
ATOM     28  H   UNL     1      -1.711  12.054  19.624  0.00  0.00    +0.000 HD
ENDBRANCH  11  24
ENDBRANCH   1  14
BRANCH   3  29
ATOM     29  C   UNL     1       3.772   2.625  20.003  0.00  0.00    +0.000 C 
ATOM     30  F   UNL     1       4.543   1.525  19.755  0.00  0.00    +0.000 F 
ENDBRANCH   3  29
BRANCH   3  31
ATOM     31  C   UNL     1       2.391   3.034  18.013  0.00  0.00    +0.000 C 
ATOM     32  F   UNL     1       2.554   1.783  17.509  0.00  0.00    +0.000 F 
ENDBRANCH   3  31
BRANCH   7  33
ATOM     33  O   UNL     1       7.002   3.876  13.733  0.00  0.00    +0.000 OA
BRANCH  33  34
ATOM     34  C   UNL     1       6.396   3.618  12.471  0.00  0.00    +0.000 C 
ATOM     35  F   UNL     1       5.049   3.588  12.484  0.00  0.00    +0.000 F 
ATOM     36  F   UNL     1       6.795   4.563  11.592  0.00  0.00    +0.000 F 
ATOM     37  F   UNL     1       6.827   2.417  12.026  0.00  0.00    +0.000 F 
ENDBRANCH  33  34
ENDBRANCH   7  33
TORSDOF 6
ENDMDL
