MODEL 1
REMARK VINA RESULT:      -7.6      0.000      0.000
REMARK  Name = 
REMARK  4 active torsions:
REMARK  status: ('A' for Active; 'I' for Inactive)
REMARK    1  A    between atoms: C_1  and  C_2
REMARK    2  A    between atoms: C_4  and  C_5
REMARK    3  A    between atoms: C_11  and  C_12
REMARK    4  A    between atoms: C_18  and  C_19
REMARK                            x       y       z     vdW  Elec       q    Type
REMARK                         _______ _______ _______ _____ _____    ______ ____
ROOT
ATOM      1  C   UNL     1      -3.339  10.097  14.287  0.00  0.00    +0.000 C 
ATOM      2  C   UNL     1      -3.288  10.455  15.741  0.00  0.00    +0.000 A 
ATOM      3  C   UNL     1      -4.342  11.093  16.356  0.00  0.00    +0.000 A 
ATOM      4  C   UNL     1      -4.167  11.393  17.689  0.00  0.00    +0.000 A 
ATOM      5  C   UNL     1      -5.220  12.117  18.470  0.00  0.00    +0.000 C 
ATOM      6  N   UNL     1      -3.037  11.089  18.355  0.00  0.00    +0.000 NA
ATOM      7  C   UNL     1      -2.042  10.480  17.691  0.00  0.00    +0.000 A 
ATOM      8  N   UNL     1      -0.825  10.292  18.335  0.00  0.00    +0.000 N 
ATOM      9  C   UNL     1      -0.851  10.296  19.795  0.00  0.00    +0.000 C 
ATOM     10  C   UNL     1       0.555  10.623  20.315  0.00  0.00    +0.000 C 
ATOM     11  C   UNL     1       1.645   9.735  19.686  0.00  0.00    +0.000 C 
ATOM     12  C   UNL     1       1.516   9.728  18.158  0.00  0.00    +0.000 C 
ATOM     13  C   UNL     1       0.099   9.352  17.716  0.00  0.00    +0.000 C 
ATOM     14  N   UNL     1      -2.150  10.146  16.395  0.00  0.00    +0.000 NA
ENDROOT
BRANCH  11  15
ATOM     15  C   UNL     1       1.598   8.319  20.257  0.00  0.00    +0.000 C 
ATOM     16  O   UNL     1       0.997   8.070  21.299  0.00  0.00    +0.000 OA
ATOM     17  N   UNL     1       2.322   7.407  19.516  0.00  0.00    +0.000 N 
ATOM     18  C   UNL     1       2.333   6.085  19.871  0.00  0.00    +0.000 A 
ATOM     19  N   UNL     1       1.560   5.441  20.709  0.00  0.00    +0.000 NA
ATOM     20  N   UNL     1       1.949   4.128  20.862  0.00  0.00    +0.000 NA
ATOM     21  C   UNL     1       3.011   3.843  20.142  0.00  0.00    +0.000 A 
ATOM     22  C   UNL     1       3.738   2.552  20.202  0.00  0.00    +0.000 C 
ATOM     23  S   UNL     1       3.541   5.133  19.132  0.00  0.00    +0.000 S 
ATOM     24  H   UNL     1       2.962   7.703  18.796  0.00  0.00    +0.000 HD
ENDBRANCH  11  15
TORSDOF 1
ENDMDL
MODEL 2
REMARK VINA RESULT:      -6.9      6.760      9.406
REMARK  Name = 
REMARK  4 active torsions:
REMARK  status: ('A' for Active; 'I' for Inactive)
REMARK    1  A    between atoms: C_1  and  C_2
REMARK    2  A    between atoms: C_4  and  C_5
REMARK    3  A    between atoms: C_11  and  C_12
REMARK    4  A    between atoms: C_18  and  C_19
REMARK                            x       y       z     vdW  Elec       q    Type
REMARK                         _______ _______ _______ _____ _____    ______ ____
ROOT
ATOM      1  C   UNL     1       4.900   0.918  20.797  0.00  0.00    +0.000 C 
ATOM      2  C   UNL     1       4.291   2.213  20.352  0.00  0.00    +0.000 A 
ATOM      3  C   UNL     1       2.968   2.501  20.601  0.00  0.00    +0.000 A 
ATOM      4  C   UNL     1       2.515   3.711  20.120  0.00  0.00    +0.000 A 
ATOM      5  C   UNL     1       1.089   4.133  20.291  0.00  0.00    +0.000 C 
ATOM      6  N   UNL     1       3.311   4.562  19.445  0.00  0.00    +0.000 NA
ATOM      7  C   UNL     1       4.588   4.212  19.224  0.00  0.00    +0.000 A 
ATOM      8  N   UNL     1       5.371   5.020  18.408  0.00  0.00    +0.000 N 
ATOM      9  C   UNL     1       4.944   6.409  18.262  0.00  0.00    +0.000 C 
ATOM     10  C   UNL     1       5.547   6.978  16.971  0.00  0.00    +0.000 C 
ATOM     11  C   UNL     1       7.067   6.751  16.869  0.00  0.00    +0.000 C 
ATOM     12  C   UNL     1       7.407   5.279  17.137  0.00  0.00    +0.000 C 
ATOM     13  C   UNL     1       6.809   4.796  18.461  0.00  0.00    +0.000 C 
ATOM     14  N   UNL     1       5.098   3.055  19.676  0.00  0.00    +0.000 NA
ENDROOT
BRANCH  11  15
ATOM     15  C   UNL     1       7.827   7.680  17.814  0.00  0.00    +0.000 C 
ATOM     16  O   UNL     1       8.319   7.264  18.859  0.00  0.00    +0.000 OA
ATOM     17  N   UNL     1       7.848   8.993  17.389  0.00  0.00    +0.000 N 
ATOM     18  C   UNL     1       8.536   9.936  18.102  0.00  0.00    +0.000 A 
ATOM     19  N   UNL     1       9.418   9.780  19.056  0.00  0.00    +0.000 NA
ATOM     20  N   UNL     1       9.820  10.986  19.589  0.00  0.00    +0.000 NA
ATOM     21  C   UNL     1       9.209  12.001  19.020  0.00  0.00    +0.000 A 
ATOM     22  C   UNL     1       9.334  13.409  19.470  0.00  0.00    +0.000 C 
ATOM     23  S   UNL     1       8.184  11.560  17.709  0.00  0.00    +0.000 S 
ATOM     24  H   UNL     1       7.254   9.313  16.640  0.00  0.00    +0.000 HD
ENDBRANCH  11  15
TORSDOF 1
ENDMDL
MODEL 3
REMARK VINA RESULT:      -6.8      3.841      7.784
REMARK  Name = 
REMARK  4 active torsions:
REMARK  status: ('A' for Active; 'I' for Inactive)
REMARK    1  A    between atoms: C_1  and  C_2
REMARK    2  A    between atoms: C_4  and  C_5
REMARK    3  A    between atoms: C_11  and  C_12
REMARK    4  A    between atoms: C_18  and  C_19
REMARK                            x       y       z     vdW  Elec       q    Type
REMARK                         _______ _______ _______ _____ _____    ______ ____
ROOT
ATOM      1  C   UNL     1       4.438   5.218  17.215  0.00  0.00    +0.000 C 
ATOM      2  C   UNL     1       3.594   5.453  18.430  0.00  0.00    +0.000 A 
ATOM      3  C   UNL     1       3.423   4.472  19.380  0.00  0.00    +0.000 A 
ATOM      4  C   UNL     1       2.604   4.797  20.439  0.00  0.00    +0.000 A 
ATOM      5  C   UNL     1       2.304   3.810  21.525  0.00  0.00    +0.000 C 
ATOM      6  N   UNL     1       2.002   5.997  20.544  0.00  0.00    +0.000 NA
ATOM      7  C   UNL     1       2.199   6.903  19.574  0.00  0.00    +0.000 A 
ATOM      8  N   UNL     1       1.471   8.087  19.605  0.00  0.00    +0.000 N 
ATOM      9  C   UNL     1       0.937   8.490  20.903  0.00  0.00    +0.000 C 
ATOM     10  C   UNL     1      -0.239   9.449  20.678  0.00  0.00    +0.000 C 
ATOM     11  C   UNL     1       0.110  10.611  19.728  0.00  0.00    +0.000 C 
ATOM     12  C   UNL     1       0.753  10.076  18.442  0.00  0.00    +0.000 C 
ATOM     13  C   UNL     1       1.944   9.164  18.747  0.00  0.00    +0.000 C 
ATOM     14  N   UNL     1       2.996   6.658  18.521  0.00  0.00    +0.000 NA
ENDROOT
BRANCH  11  15
ATOM     15  C   UNL     1       1.010  11.634  20.419  0.00  0.00    +0.000 C 
ATOM     16  O   UNL     1       1.088  11.691  21.643  0.00  0.00    +0.000 OA
ATOM     17  N   UNL     1       1.656  12.477  19.537  0.00  0.00    +0.000 N 
ATOM     18  C   UNL     1       2.538  13.414  20.002  0.00  0.00    +0.000 A 
ATOM     19  N   UNL     1       3.088  13.526  21.184  0.00  0.00    +0.000 NA
ATOM     20  N   UNL     1       3.858  14.665  21.288  0.00  0.00    +0.000 NA
ATOM     21  C   UNL     1       3.842  15.371  20.179  0.00  0.00    +0.000 A 
ATOM     22  C   UNL     1       4.465  16.708  20.032  0.00  0.00    +0.000 C 
ATOM     23  S   UNL     1       2.976  14.630  18.887  0.00  0.00    +0.000 S 
ATOM     24  H   UNL     1       1.394  12.521  18.564  0.00  0.00    +0.000 HD
ENDBRANCH  11  15
TORSDOF 1
ENDMDL
MODEL 4
REMARK VINA RESULT:      -6.7      3.913      7.888
REMARK  Name = 
REMARK  4 active torsions:
REMARK  status: ('A' for Active; 'I' for Inactive)
REMARK    1  A    between atoms: C_1  and  C_2
REMARK    2  A    between atoms: C_4  and  C_5
REMARK    3  A    between atoms: C_11  and  C_12
REMARK    4  A    between atoms: C_18  and  C_19
REMARK                            x       y       z     vdW  Elec       q    Type
REMARK                         _______ _______ _______ _____ _____    ______ ____
ROOT
ATOM      1  C   UNL     1       5.084   6.298  15.858  0.00  0.00    +0.000 C 
ATOM      2  C   UNL     1       4.355   6.175  17.161  0.00  0.00    +0.000 A 
ATOM      3  C   UNL     1       4.460   5.040  17.932  0.00  0.00    +0.000 A 
ATOM      4  C   UNL     1       3.723   5.033  19.096  0.00  0.00    +0.000 A 
ATOM      5  C   UNL     1       3.719   3.847  20.010  0.00  0.00    +0.000 C 
ATOM      6  N   UNL     1       2.944   6.068  19.463  0.00  0.00    +0.000 NA
ATOM      7  C   UNL     1       2.875   7.139  18.656  0.00  0.00    +0.000 A 
ATOM      8  N   UNL     1       1.966   8.147  18.958  0.00  0.00    +0.000 N 
ATOM      9  C   UNL     1       1.523   8.231  20.347  0.00  0.00    +0.000 C 
ATOM     10  C   UNL     1       0.185   8.980  20.394  0.00  0.00    +0.000 C 
ATOM     11  C   UNL     1       0.224  10.323  19.641  0.00  0.00    +0.000 C 
ATOM     12  C   UNL     1       0.797  10.130  18.231  0.00  0.00    +0.000 C 
ATOM     13  C   UNL     1       2.151   9.417  18.269  0.00  0.00    +0.000 C 
ATOM     14  N   UNL     1       3.578   7.218  17.514  0.00  0.00    +0.000 NA
ENDROOT
BRANCH  11  15
ATOM     15  C   UNL     1       1.011  11.371  20.425  0.00  0.00    +0.000 C 
ATOM     16  O   UNL     1       1.172  11.271  21.639  0.00  0.00    +0.000 OA
ATOM     17  N   UNL     1       1.456  12.418  19.644  0.00  0.00    +0.000 N 
ATOM     18  C   UNL     1       2.223  13.409  20.194  0.00  0.00    +0.000 A 
ATOM     19  N   UNL     1       2.837  13.444  21.349  0.00  0.00    +0.000 NA
ATOM     20  N   UNL     1       3.435  14.664  21.578  0.00  0.00    +0.000 NA
ATOM     21  C   UNL     1       3.231  15.504  20.587  0.00  0.00    +0.000 A 
ATOM     22  C   UNL     1       3.636  16.931  20.605  0.00  0.00    +0.000 C 
ATOM     23  S   UNL     1       2.390  14.821  19.249  0.00  0.00    +0.000 S 
ATOM     24  H   UNL     1       1.119  12.553  18.704  0.00  0.00    +0.000 HD
ENDBRANCH  11  15
TORSDOF 1
ENDMDL
MODEL 5
REMARK VINA RESULT:      -6.6      3.445      8.075
REMARK  Name = 
REMARK  4 active torsions:
REMARK  status: ('A' for Active; 'I' for Inactive)
REMARK    1  A    between atoms: C_1  and  C_2
REMARK    2  A    between atoms: C_4  and  C_5
REMARK    3  A    between atoms: C_11  and  C_12
REMARK    4  A    between atoms: C_18  and  C_19
REMARK                            x       y       z     vdW  Elec       q    Type
REMARK                         _______ _______ _______ _____ _____    ______ ____
ROOT
ATOM      1  C   UNL     1       2.192   4.668  21.013  0.00  0.00    +0.000 C 
ATOM      2  C   UNL     1       2.480   5.683  19.948  0.00  0.00    +0.000 A 
ATOM      3  C   UNL     1       3.334   5.401  18.907  0.00  0.00    +0.000 A 
ATOM      4  C   UNL     1       3.540   6.422  18.005  0.00  0.00    +0.000 A 
ATOM      5  C   UNL     1       4.473   6.262  16.845  0.00  0.00    +0.000 C 
ATOM      6  N   UNL     1       2.949   7.626  18.130  0.00  0.00    +0.000 NA
ATOM      7  C   UNL     1       2.138   7.839  19.179  0.00  0.00    +0.000 A 
ATOM      8  N   UNL     1       1.639   9.119  19.389  0.00  0.00    +0.000 N 
ATOM      9  C   UNL     1       1.602  10.003  18.229  0.00  0.00    +0.000 C 
ATOM     10  C   UNL     1       1.560  11.457  18.716  0.00  0.00    +0.000 C 
ATOM     11  C   UNL     1       0.454  11.706  19.759  0.00  0.00    +0.000 C 
ATOM     12  C   UNL     1       0.529  10.660  20.879  0.00  0.00    +0.000 C 
ATOM     13  C   UNL     1       0.523   9.236  20.317  0.00  0.00    +0.000 C 
ATOM     14  N   UNL     1       1.882   6.883  20.087  0.00  0.00    +0.000 NA
ENDROOT
BRANCH  11  15
ATOM     15  C   UNL     1      -0.925  11.726  19.105  0.00  0.00    +0.000 C 
ATOM     16  O   UNL     1      -1.072  11.445  17.918  0.00  0.00    +0.000 OA
ATOM     17  N   UNL     1      -1.931  12.128  19.961  0.00  0.00    +0.000 N 
ATOM     18  C   UNL     1      -3.231  12.146  19.534  0.00  0.00    +0.000 A 
ATOM     19  N   UNL     1      -3.765  11.612  18.465  0.00  0.00    +0.000 NA
ATOM     20  N   UNL     1      -5.100  11.930  18.343  0.00  0.00    +0.000 NA
ATOM     21  C   UNL     1      -5.512  12.706  19.321  0.00  0.00    +0.000 A 
ATOM     22  C   UNL     1      -6.860  13.321  19.388  0.00  0.00    +0.000 C 
ATOM     23  S   UNL     1      -4.320  13.006  20.528  0.00  0.00    +0.000 S 
ATOM     24  H   UNL     1      -1.725  12.545  20.855  0.00  0.00    +0.000 HD
ENDBRANCH  11  15
TORSDOF 1
ENDMDL
MODEL 6
REMARK VINA RESULT:      -6.6      2.863      8.114
REMARK  Name = 
REMARK  4 active torsions:
REMARK  status: ('A' for Active; 'I' for Inactive)
REMARK    1  A    between atoms: C_1  and  C_2
REMARK    2  A    between atoms: C_4  and  C_5
REMARK    3  A    between atoms: C_11  and  C_12
REMARK    4  A    between atoms: C_18  and  C_19
REMARK                            x       y       z     vdW  Elec       q    Type
REMARK                         _______ _______ _______ _____ _____    ______ ____
ROOT
ATOM      1  C   UNL     1       2.440   3.561  21.467  0.00  0.00    +0.000 C 
ATOM      2  C   UNL     1       2.721   4.351  20.225  0.00  0.00    +0.000 A 
ATOM      3  C   UNL     1       3.479   3.827  19.202  0.00  0.00    +0.000 A 
ATOM      4  C   UNL     1       3.690   4.658  18.124  0.00  0.00    +0.000 A 
ATOM      5  C   UNL     1       4.526   4.226  16.959  0.00  0.00    +0.000 C 
ATOM      6  N   UNL     1       3.193   5.908  18.067  0.00  0.00    +0.000 NA
ATOM      7  C   UNL     1       2.474   6.362  19.106  0.00  0.00    +0.000 A 
ATOM      8  N   UNL     1       2.079   7.695  19.115  0.00  0.00    +0.000 N 
ATOM      9  C   UNL     1       2.021   8.367  17.820  0.00  0.00    +0.000 C 
ATOM     10  C   UNL     1       2.113   9.882  18.044  0.00  0.00    +0.000 C 
ATOM     11  C   UNL     1       1.103  10.394  19.088  0.00  0.00    +0.000 C 
ATOM     12  C   UNL     1       1.184   9.553  20.369  0.00  0.00    +0.000 C 
ATOM     13  C   UNL     1       1.041   8.059  20.070  0.00  0.00    +0.000 C 
ATOM     14  N   UNL     1       2.218   5.601  20.183  0.00  0.00    +0.000 NA
ENDROOT
BRANCH  11  15
ATOM     15  C   UNL     1      -0.315  10.410  18.520  0.00  0.00    +0.000 C 
ATOM     16  O   UNL     1      -0.585   9.848  17.462  0.00  0.00    +0.000 OA
ATOM     17  N   UNL     1      -1.202  11.142  19.284  0.00  0.00    +0.000 N 
ATOM     18  C   UNL     1      -2.523  11.207  18.932  0.00  0.00    +0.000 A 
ATOM     19  N   UNL     1      -3.193  10.481  18.074  0.00  0.00    +0.000 NA
ATOM     20  N   UNL     1      -4.493  10.917  17.935  0.00  0.00    +0.000 NA
ATOM     21  C   UNL     1      -4.742  11.966  18.687  0.00  0.00    +0.000 A 
ATOM     22  C   UNL     1      -6.008  12.738  18.651  0.00  0.00    +0.000 C 
ATOM     23  S   UNL     1      -3.433  12.424  19.708  0.00  0.00    +0.000 S 
ATOM     24  H   UNL     1      -0.883  11.751  20.021  0.00  0.00    +0.000 HD
ENDBRANCH  11  15
TORSDOF 1
ENDMDL
MODEL 7
REMARK VINA RESULT:      -6.6      5.488      9.007
REMARK  Name = 
REMARK  4 active torsions:
REMARK  status: ('A' for Active; 'I' for Inactive)
REMARK    1  A    between atoms: C_1  and  C_2
REMARK    2  A    between atoms: C_4  and  C_5
REMARK    3  A    between atoms: C_11  and  C_12
REMARK    4  A    between atoms: C_18  and  C_19
REMARK                            x       y       z     vdW  Elec       q    Type
REMARK                         _______ _______ _______ _____ _____    ______ ____
ROOT
ATOM      1  C   UNL     1       5.349   2.790  11.825  0.00  0.00    +0.000 C 
ATOM      2  C   UNL     1       6.111   3.745  12.693  0.00  0.00    +0.000 A 
ATOM      3  C   UNL     1       7.306   4.287  12.278  0.00  0.00    +0.000 A 
ATOM      4  C   UNL     1       7.926   5.131  13.173  0.00  0.00    +0.000 A 
ATOM      5  C   UNL     1       9.249   5.761  12.862  0.00  0.00    +0.000 C 
ATOM      6  N   UNL     1       7.404   5.410  14.382  0.00  0.00    +0.000 NA
ATOM      7  C   UNL     1       6.241   4.835  14.730  0.00  0.00    +0.000 A 
ATOM      8  N   UNL     1       5.771   5.008  16.026  0.00  0.00    +0.000 N 
ATOM      9  C   UNL     1       6.272   6.172  16.752  0.00  0.00    +0.000 C 
ATOM     10  C   UNL     1       6.109   5.923  18.257  0.00  0.00    +0.000 C 
ATOM     11  C   UNL     1       4.684   5.482  18.640  0.00  0.00    +0.000 C 
ATOM     12  C   UNL     1       4.225   4.321  17.748  0.00  0.00    +0.000 C 
ATOM     13  C   UNL     1       4.377   4.659  16.263  0.00  0.00    +0.000 C 
ATOM     14  N   UNL     1       5.576   4.014  13.901  0.00  0.00    +0.000 NA
ENDROOT
BRANCH  11  15
ATOM     15  C   UNL     1       3.708   6.655  18.574  0.00  0.00    +0.000 C 
ATOM     16  O   UNL     1       3.683   7.410  17.606  0.00  0.00    +0.000 OA
ATOM     17  N   UNL     1       2.930   6.783  19.706  0.00  0.00    +0.000 N 
ATOM     18  C   UNL     1       1.970   7.756  19.776  0.00  0.00    +0.000 A 
ATOM     19  N   UNL     1       1.469   8.501  18.823  0.00  0.00    +0.000 NA
ATOM     20  N   UNL     1       0.580   9.434  19.313  0.00  0.00    +0.000 NA
ATOM     21  C   UNL     1       0.463   9.360  20.621  0.00  0.00    +0.000 A 
ATOM     22  C   UNL     1      -0.314  10.318  21.444  0.00  0.00    +0.000 C 
ATOM     23  S   UNL     1       1.344   8.063  21.333  0.00  0.00    +0.000 S 
ATOM     24  H   UNL     1       3.137   6.269  20.549  0.00  0.00    +0.000 HD
ENDBRANCH  11  15
TORSDOF 1
ENDMDL
MODEL 8
REMARK VINA RESULT:      -6.2      8.979     12.258
REMARK  Name = 
REMARK  4 active torsions:
REMARK  status: ('A' for Active; 'I' for Inactive)
REMARK    1  A    between atoms: C_1  and  C_2
REMARK    2  A    between atoms: C_4  and  C_5
REMARK    3  A    between atoms: C_11  and  C_12
REMARK    4  A    between atoms: C_18  and  C_19
REMARK                            x       y       z     vdW  Elec       q    Type
REMARK                         _______ _______ _______ _____ _____    ______ ____
ROOT
ATOM      1  C   UNL     1       9.302  10.044  19.032  0.00  0.00    +0.000 C 
ATOM      2  C   UNL     1       9.726  11.440  18.690  0.00  0.00    +0.000 A 
ATOM      3  C   UNL     1      10.801  11.676  17.863  0.00  0.00    +0.000 A 
ATOM      4  C   UNL     1      11.110  13.001  17.642  0.00  0.00    +0.000 A 
ATOM      5  C   UNL     1      12.276  13.398  16.792  0.00  0.00    +0.000 C 
ATOM      6  N   UNL     1      10.410  14.007  18.200  0.00  0.00    +0.000 NA
ATOM      7  C   UNL     1       9.382  13.706  19.009  0.00  0.00    +0.000 A 
ATOM      8  N   UNL     1       8.748  14.735  19.696  0.00  0.00    +0.000 N 
ATOM      9  C   UNL     1       8.886  16.076  19.136  0.00  0.00    +0.000 C 
ATOM     10  C   UNL     1       8.625  17.104  20.245  0.00  0.00    +0.000 C 
ATOM     11  C   UNL     1       7.308  16.847  21.001  0.00  0.00    +0.000 C 
ATOM     12  C   UNL     1       7.228  15.384  21.455  0.00  0.00    +0.000 C 
ATOM     13  C   UNL     1       7.455  14.420  20.289  0.00  0.00    +0.000 C 
ATOM     14  N   UNL     1       9.017  12.438  19.256  0.00  0.00    +0.000 NA
ENDROOT
BRANCH  11  15
ATOM     15  C   UNL     1       6.100  17.233  20.149  0.00  0.00    +0.000 C 
ATOM     16  O   UNL     1       6.111  18.241  19.447  0.00  0.00    +0.000 OA
ATOM     17  N   UNL     1       5.030  16.375  20.297  0.00  0.00    +0.000 N 
ATOM     18  C   UNL     1       3.893  16.560  19.558  0.00  0.00    +0.000 A 
ATOM     19  N   UNL     1       3.694  17.317  18.509  0.00  0.00    +0.000 NA
ATOM     20  N   UNL     1       2.377  17.298  18.103  0.00  0.00    +0.000 NA
ATOM     21  C   UNL     1       1.636  16.536  18.876  0.00  0.00    +0.000 A 
ATOM     22  C   UNL     1       0.161  16.425  18.770  0.00  0.00    +0.000 C 
ATOM     23  S   UNL     1       2.521  15.693  20.089  0.00  0.00    +0.000 S 
ATOM     24  H   UNL     1       5.002  15.692  21.038  0.00  0.00    +0.000 HD
ENDBRANCH  11  15
TORSDOF 1
ENDMDL
MODEL 9
REMARK VINA RESULT:      -6.2      8.351     10.328
REMARK  Name = 
REMARK  4 active torsions:
REMARK  status: ('A' for Active; 'I' for Inactive)
REMARK    1  A    between atoms: C_1  and  C_2
REMARK    2  A    between atoms: C_4  and  C_5
REMARK    3  A    between atoms: C_11  and  C_12
REMARK    4  A    between atoms: C_18  and  C_19
REMARK                            x       y       z     vdW  Elec       q    Type
REMARK                         _______ _______ _______ _____ _____    ______ ____
ROOT
ATOM      1  C   UNL     1       9.616  17.869  18.110  0.00  0.00    +0.000 C 
ATOM      2  C   UNL     1       9.104  16.934  19.163  0.00  0.00    +0.000 A 
ATOM      3  C   UNL     1       8.411  17.403  20.256  0.00  0.00    +0.000 A 
ATOM      4  C   UNL     1       8.013  16.451  21.169  0.00  0.00    +0.000 A 
ATOM      5  C   UNL     1       7.283  16.828  22.421  0.00  0.00    +0.000 C 
ATOM      6  N   UNL     1       8.285  15.141  21.011  0.00  0.00    +0.000 NA
ATOM      7  C   UNL     1       8.978  14.754  19.928  0.00  0.00    +0.000 A 
ATOM      8  N   UNL     1       9.382  13.427  19.832  0.00  0.00    +0.000 N 
ATOM      9  C   UNL     1       8.627  12.457  20.618  0.00  0.00    +0.000 C 
ATOM     10  C   UNL     1       9.494  11.209  20.830  0.00  0.00    +0.000 C 
ATOM     11  C   UNL     1      10.087  10.663  19.517  0.00  0.00    +0.000 C 
ATOM     12  C   UNL     1      10.769  11.788  18.729  0.00  0.00    +0.000 C 
ATOM     13  C   UNL     1       9.829  12.978  18.520  0.00  0.00    +0.000 C 
ATOM     14  N   UNL     1       9.384  15.627  18.992  0.00  0.00    +0.000 NA
ENDROOT
BRANCH  11  15
ATOM     15  C   UNL     1       9.018   9.963  18.680  0.00  0.00    +0.000 C 
ATOM     16  O   UNL     1       8.294  10.594  17.913  0.00  0.00    +0.000 OA
ATOM     17  N   UNL     1       8.938   8.607  18.918  0.00  0.00    +0.000 N 
ATOM     18  C   UNL     1       8.063   7.833  18.205  0.00  0.00    +0.000 A 
ATOM     19  N   UNL     1       7.397   8.117  17.115  0.00  0.00    +0.000 NA
ATOM     20  N   UNL     1       6.544   7.097  16.752  0.00  0.00    +0.000 NA
ATOM     21  C   UNL     1       6.594   6.091  17.597  0.00  0.00    +0.000 A 
ATOM     22  C   UNL     1       5.697   4.912  17.545  0.00  0.00    +0.000 C 
ATOM     23  S   UNL     1       7.778   6.272  18.834  0.00  0.00    +0.000 S 
ATOM     24  H   UNL     1       9.407   8.182  19.703  0.00  0.00    +0.000 HD
ENDBRANCH  11  15
TORSDOF 1
ENDMDL
