MODEL 1
REMARK VINA RESULT:      -7.3      0.000      0.000
REMARK  Name = 
REMARK  10 active torsions:
REMARK  status: ('A' for Active; 'I' for Inactive)
REMARK    1  A    between atoms: C_1  and  C_2
REMARK    2  A    between atoms: N_4  and  C_5
REMARK    3  A    between atoms: C_8  and  S_9
REMARK    4  A    between atoms: S_9  and  N_12
REMARK    5  A    between atoms: N_12  and  C_13
REMARK    6  A    between atoms: N_12  and  C_14
REMARK    7  A    between atoms: C_14  and  C_15
REMARK    8  A    between atoms: C_15  and  O_17
REMARK    9  A    between atoms: O_17  and  C_18
REMARK   10  A    between atoms: C_18  and  C_19
REMARK                            x       y       z     vdW  Elec       q    Type
REMARK                         _______ _______ _______ _____ _____    ______ ____
ROOT
ATOM      1  N   UNL     1       5.085   4.695  18.872  0.00  0.00    +0.000 NA
ATOM      2  C   UNL     1       4.769   3.314  19.316  0.00  0.00    +0.000 C 
ENDROOT
BRANCH   1   3
ATOM      3  S   UNL     1       3.953   5.350  17.763  0.00  0.00    +0.000 S 
ATOM      4  O   UNL     1       3.227   4.239  17.185  0.00  0.00    +0.000 OA
ATOM      5  O   UNL     1       4.650   6.301  16.923  0.00  0.00    +0.000 OA
BRANCH   3   9
ATOM      6  C   UNL     1       1.186   7.752  20.520  0.00  0.00    +0.000 A 
ATOM      7  C   UNL     1       1.433   6.393  20.743  0.00  0.00    +0.000 A 
ATOM      8  C   UNL     1       2.254   5.658  19.884  0.00  0.00    +0.000 A 
ATOM      9  C   UNL     1       2.833   6.283  18.780  0.00  0.00    +0.000 A 
ATOM     10  C   UNL     1       2.591   7.639  18.529  0.00  0.00    +0.000 A 
ATOM     11  C   UNL     1       1.759   8.365  19.393  0.00  0.00    +0.000 A 
BRANCH   6  15
ATOM     12  C   UNL     1      -0.323   9.909  23.233  0.00  0.00    +0.000 C 
ATOM     13  C   UNL     1       0.807   9.279  22.459  0.00  0.00    +0.000 C 
ATOM     14  O   UNL     1       1.968   9.442  22.818  0.00  0.00    +0.000 OA
ATOM     15  N   UNL     1       0.373   8.539  21.370  0.00  0.00    +0.000 N 
ATOM     16  H   UNL     1      -0.599   8.631  21.108  0.00  0.00    +0.000 HD
ENDBRANCH   6  15
ENDBRANCH   3   9
ENDBRANCH   1   3
BRANCH   1  17
ATOM     17  C   UNL     1       6.485   4.809  18.355  0.00  0.00    +0.000 C 
BRANCH  17  18
ATOM     18  C   UNL     1       7.406   5.764  19.085  0.00  0.00    +0.000 C 
ATOM     19  O   UNL     1       7.786   5.597  20.238  0.00  0.00    +0.000 OA
BRANCH  18  20
ATOM     20  O   UNL     1       7.800   6.796  18.286  0.00  0.00    +0.000 OA
BRANCH  20  21
ATOM     21  C   UNL     1       8.426   7.884  18.977  0.00  0.00    +0.000 C 
BRANCH  21  22
ATOM     22  C   UNL     1       8.506   9.183  18.155  0.00  0.00    +0.000 C 
ATOM     23  O   UNL     1       8.195   9.193  16.962  0.00  0.00    +0.000 OA
ATOM     24  N   UNL     1       8.952  10.336  18.814  0.00  0.00    +0.000 N 
ATOM     25  C   UNL     1       8.859  11.610  18.101  0.00  0.00    +0.000 C 
ATOM     26  C   UNL     1      10.197  12.038  17.508  0.00  0.00    +0.000 C 
ATOM     27  C   UNL     1      11.158  12.652  18.522  0.00  0.00    +0.000 C 
ATOM     28  C   UNL     1      11.499  11.754  19.708  0.00  0.00    +0.000 C 
ATOM     29  C   UNL     1      10.307  11.504  20.633  0.00  0.00    +0.000 C 
ATOM     30  C   UNL     1       9.421  10.334  20.200  0.00  0.00    +0.000 C 
ENDBRANCH  21  22
ENDBRANCH  20  21
ENDBRANCH  18  20
ENDBRANCH  17  18
ENDBRANCH   1  17
TORSDOF 8
ENDMDL
MODEL 2
REMARK VINA RESULT:      -7.2      3.590      8.403
REMARK  Name = 
REMARK  10 active torsions:
REMARK  status: ('A' for Active; 'I' for Inactive)
REMARK    1  A    between atoms: C_1  and  C_2
REMARK    2  A    between atoms: N_4  and  C_5
REMARK    3  A    between atoms: C_8  and  S_9
REMARK    4  A    between atoms: S_9  and  N_12
REMARK    5  A    between atoms: N_12  and  C_13
REMARK    6  A    between atoms: N_12  and  C_14
REMARK    7  A    between atoms: C_14  and  C_15
REMARK    8  A    between atoms: C_15  and  O_17
REMARK    9  A    between atoms: O_17  and  C_18
REMARK   10  A    between atoms: C_18  and  C_19
REMARK                            x       y       z     vdW  Elec       q    Type
REMARK                         _______ _______ _______ _____ _____    ______ ____
ROOT
ATOM      1  N   UNL     1       6.526   5.600  18.499  0.00  0.00    +0.000 NA
ATOM      2  C   UNL     1       7.724   5.908  19.318  0.00  0.00    +0.000 C 
ENDROOT
BRANCH   1   3
ATOM      3  S   UNL     1       6.316   6.635  17.147  0.00  0.00    +0.000 S 
ATOM      4  O   UNL     1       7.500   7.463  17.055  0.00  0.00    +0.000 OA
ATOM      5  O   UNL     1       4.999   7.228  17.239  0.00  0.00    +0.000 OA
BRANCH   3   9
ATOM      6  C   UNL     1       6.387   3.704  13.622  0.00  0.00    +0.000 A 
ATOM      7  C   UNL     1       7.407   4.646  13.805  0.00  0.00    +0.000 A 
ATOM      8  C   UNL     1       7.366   5.556  14.864  0.00  0.00    +0.000 A 
ATOM      9  C   UNL     1       6.291   5.535  15.752  0.00  0.00    +0.000 A 
ATOM     10  C   UNL     1       5.254   4.610  15.582  0.00  0.00    +0.000 A 
ATOM     11  C   UNL     1       5.300   3.706  14.511  0.00  0.00    +0.000 A 
BRANCH   6  15
ATOM     12  C   UNL     1       5.636   1.379  10.737  0.00  0.00    +0.000 C 
ATOM     13  C   UNL     1       5.376   2.547  11.654  0.00  0.00    +0.000 C 
ATOM     14  O   UNL     1       4.342   3.199  11.545  0.00  0.00    +0.000 OA
ATOM     15  N   UNL     1       6.393   2.755  12.573  0.00  0.00    +0.000 N 
ATOM     16  H   UNL     1       7.251   2.239  12.434  0.00  0.00    +0.000 HD
ENDBRANCH   6  15
ENDBRANCH   3   9
ENDBRANCH   1   3
BRANCH   1  17
ATOM     17  C   UNL     1       5.283   5.529  19.331  0.00  0.00    +0.000 C 
BRANCH  17  18
ATOM     18  C   UNL     1       4.546   4.207  19.345  0.00  0.00    +0.000 C 
ATOM     19  O   UNL     1       5.097   3.118  19.224  0.00  0.00    +0.000 OA
BRANCH  18  20
ATOM     20  O   UNL     1       3.211   4.374  19.563  0.00  0.00    +0.000 OA
BRANCH  20  21
ATOM     21  C   UNL     1       2.663   5.584  19.026  0.00  0.00    +0.000 C 
BRANCH  21  22
ATOM     22  C   UNL     1       1.949   6.464  20.068  0.00  0.00    +0.000 C 
ATOM     23  O   UNL     1       1.486   5.969  21.098  0.00  0.00    +0.000 OA
ATOM     24  N   UNL     1       1.844   7.834  19.791  0.00  0.00    +0.000 N 
ATOM     25  C   UNL     1       1.337   8.708  20.849  0.00  0.00    +0.000 C 
ATOM     26  C   UNL     1      -0.133   9.065  20.646  0.00  0.00    +0.000 C 
ATOM     27  C   UNL     1      -0.369  10.153  19.603  0.00  0.00    +0.000 C 
ATOM     28  C   UNL     1       0.177   9.840  18.213  0.00  0.00    +0.000 C 
ATOM     29  C   UNL     1       1.705   9.794  18.165  0.00  0.00    +0.000 C 
ATOM     30  C   UNL     1       2.296   8.432  18.535  0.00  0.00    +0.000 C 
ENDBRANCH  21  22
ENDBRANCH  20  21
ENDBRANCH  18  20
ENDBRANCH  17  18
ENDBRANCH   1  17
TORSDOF 8
ENDMDL
MODEL 3
REMARK VINA RESULT:      -7.1      5.860      9.072
REMARK  Name = 
REMARK  10 active torsions:
REMARK  status: ('A' for Active; 'I' for Inactive)
REMARK    1  A    between atoms: C_1  and  C_2
REMARK    2  A    between atoms: N_4  and  C_5
REMARK    3  A    between atoms: C_8  and  S_9
REMARK    4  A    between atoms: S_9  and  N_12
REMARK    5  A    between atoms: N_12  and  C_13
REMARK    6  A    between atoms: N_12  and  C_14
REMARK    7  A    between atoms: C_14  and  C_15
REMARK    8  A    between atoms: C_15  and  O_17
REMARK    9  A    between atoms: O_17  and  C_18
REMARK   10  A    between atoms: C_18  and  C_19
REMARK                            x       y       z     vdW  Elec       q    Type
REMARK                         _______ _______ _______ _____ _____    ______ ____
ROOT
ATOM      1  N   UNL     1      -0.655  11.486  22.632  0.00  0.00    +0.000 NA
ATOM      2  C   UNL     1      -1.894  11.474  23.449  0.00  0.00    +0.000 C 
ENDROOT
BRANCH   1   3
ATOM      3  S   UNL     1      -0.419  12.932  21.740  0.00  0.00    +0.000 S 
ATOM      4  O   UNL     1       1.010  13.104  21.575  0.00  0.00    +0.000 OA
ATOM      5  O   UNL     1      -1.228  13.968  22.346  0.00  0.00    +0.000 OA
BRANCH   3   9
ATOM      6  C   UNL     1      -2.169  11.881  17.634  0.00  0.00    +0.000 A 
ATOM      7  C   UNL     1      -0.811  12.182  17.790  0.00  0.00    +0.000 A 
ATOM      8  C   UNL     1      -0.287  12.530  19.038  0.00  0.00    +0.000 A 
ATOM      9  C   UNL     1      -1.130  12.587  20.149  0.00  0.00    +0.000 A 
ATOM     10  C   UNL     1      -2.494  12.301  20.015  0.00  0.00    +0.000 A 
ATOM     11  C   UNL     1      -3.010  11.961  18.756  0.00  0.00    +0.000 A 
BRANCH   6  15
ATOM     12  C   UNL     1      -3.311  10.204  14.445  0.00  0.00    +0.000 C 
ATOM     13  C   UNL     1      -2.723  10.244  15.833  0.00  0.00    +0.000 C 
ATOM     14  O   UNL     1      -2.288   9.220  16.348  0.00  0.00    +0.000 OA
ATOM     15  N   UNL     1      -2.739  11.512  16.394  0.00  0.00    +0.000 N 
ATOM     16  H   UNL     1      -3.276  12.221  15.913  0.00  0.00    +0.000 HD
ENDBRANCH   6  15
ENDBRANCH   3   9
ENDBRANCH   1   3
BRANCH   1  17
ATOM     17  C   UNL     1      -0.554  10.279  21.752  0.00  0.00    +0.000 C 
BRANCH  17  18
ATOM     18  C   UNL     1       0.738   9.492  21.821  0.00  0.00    +0.000 C 
ATOM     19  O   UNL     1       1.575   9.632  22.705  0.00  0.00    +0.000 OA
BRANCH  18  20
ATOM     20  O   UNL     1       0.825   8.576  20.815  0.00  0.00    +0.000 OA
BRANCH  20  21
ATOM     21  C   UNL     1       1.835   7.577  21.000  0.00  0.00    +0.000 C 
BRANCH  21  22
ATOM     22  C   UNL     1       2.205   6.817  19.713  0.00  0.00    +0.000 C 
ATOM     23  O   UNL     1       2.362   7.420  18.650  0.00  0.00    +0.000 OA
ATOM     24  N   UNL     1       2.344   5.425  19.805  0.00  0.00    +0.000 N 
ATOM     25  C   UNL     1       2.874   4.714  18.641  0.00  0.00    +0.000 C 
ATOM     26  C   UNL     1       1.772   4.047  17.823  0.00  0.00    +0.000 C 
ATOM     27  C   UNL     1       1.261   2.738  18.418  0.00  0.00    +0.000 C 
ATOM     28  C   UNL     1       0.713   2.849  19.838  0.00  0.00    +0.000 C 
ATOM     29  C   UNL     1       1.791   3.176  20.873  0.00  0.00    +0.000 C 
ATOM     30  C   UNL     1       2.068   4.673  21.028  0.00  0.00    +0.000 C 
ENDBRANCH  21  22
ENDBRANCH  20  21
ENDBRANCH  18  20
ENDBRANCH  17  18
ENDBRANCH   1  17
TORSDOF 8
ENDMDL
MODEL 4
REMARK VINA RESULT:      -7.0      4.631      8.378
REMARK  Name = 
REMARK  10 active torsions:
REMARK  status: ('A' for Active; 'I' for Inactive)
REMARK    1  A    between atoms: C_1  and  C_2
REMARK    2  A    between atoms: N_4  and  C_5
REMARK    3  A    between atoms: C_8  and  S_9
REMARK    4  A    between atoms: S_9  and  N_12
REMARK    5  A    between atoms: N_12  and  C_13
REMARK    6  A    between atoms: N_12  and  C_14
REMARK    7  A    between atoms: C_14  and  C_15
REMARK    8  A    between atoms: C_15  and  O_17
REMARK    9  A    between atoms: O_17  and  C_18
REMARK   10  A    between atoms: C_18  and  C_19
REMARK                            x       y       z     vdW  Elec       q    Type
REMARK                         _______ _______ _______ _____ _____    ______ ____
ROOT
ATOM      1  N   UNL     1       2.813   4.251  19.925  0.00  0.00    +0.000 NA
ATOM      2  C   UNL     1       2.319   4.026  21.307  0.00  0.00    +0.000 C 
ENDROOT
BRANCH   1   3
ATOM      3  S   UNL     1       3.805   2.989  19.322  0.00  0.00    +0.000 S 
ATOM      4  O   UNL     1       2.929   2.010  18.713  0.00  0.00    +0.000 OA
ATOM      5  O   UNL     1       4.732   2.611  20.368  0.00  0.00    +0.000 OA
BRANCH   3   9
ATOM      6  C   UNL     1       6.385   4.833  16.010  0.00  0.00    +0.000 A 
ATOM      7  C   UNL     1       6.858   4.721  17.322  0.00  0.00    +0.000 A 
ATOM      8  C   UNL     1       6.058   4.185  18.334  0.00  0.00    +0.000 A 
ATOM      9  C   UNL     1       4.763   3.760  18.038  0.00  0.00    +0.000 A 
ATOM     10  C   UNL     1       4.263   3.873  16.735  0.00  0.00    +0.000 A 
ATOM     11  C   UNL     1       5.072   4.420  15.729  0.00  0.00    +0.000 A 
BRANCH   6  15
ATOM     12  C   UNL     1       8.256   5.559  12.806  0.00  0.00    +0.000 C 
ATOM     13  C   UNL     1       7.245   4.844  13.666  0.00  0.00    +0.000 C 
ATOM     14  O   UNL     1       6.599   3.907  13.209  0.00  0.00    +0.000 OA
ATOM     15  N   UNL     1       7.163   5.357  14.951  0.00  0.00    +0.000 N 
ATOM     16  H   UNL     1       7.640   6.231  15.129  0.00  0.00    +0.000 HD
ENDBRANCH   6  15
ENDBRANCH   3   9
ENDBRANCH   1   3
BRANCH   1  17
ATOM     17  C   UNL     1       3.477   5.585  19.780  0.00  0.00    +0.000 C 
BRANCH  17  18
ATOM     18  C   UNL     1       2.654   6.693  19.157  0.00  0.00    +0.000 C 
ATOM     19  O   UNL     1       2.487   6.820  17.949  0.00  0.00    +0.000 OA
BRANCH  18  20
ATOM     20  O   UNL     1       2.081   7.489  20.102  0.00  0.00    +0.000 OA
BRANCH  20  21
ATOM     21  C   UNL     1       1.466   8.678  19.592  0.00  0.00    +0.000 C 
BRANCH  21  22
ATOM     22  C   UNL     1       0.917   9.616  20.682  0.00  0.00    +0.000 C 
ATOM     23  O   UNL     1       0.967   9.295  21.871  0.00  0.00    +0.000 OA
ATOM     24  N   UNL     1       0.357  10.831  20.265  0.00  0.00    +0.000 N 
ATOM     25  C   UNL     1       0.002  11.808  21.294  0.00  0.00    +0.000 C 
ATOM     26  C   UNL     1      -1.492  11.802  21.604  0.00  0.00    +0.000 C 
ATOM     27  C   UNL     1      -2.343  12.543  20.576  0.00  0.00    +0.000 C 
ATOM     28  C   UNL     1      -2.214  12.027  19.145  0.00  0.00    +0.000 C 
ATOM     29  C   UNL     1      -0.833  12.282  18.538  0.00  0.00    +0.000 C 
ATOM     30  C   UNL     1       0.195  11.195  18.858  0.00  0.00    +0.000 C 
ENDBRANCH  21  22
ENDBRANCH  20  21
ENDBRANCH  18  20
ENDBRANCH  17  18
ENDBRANCH   1  17
TORSDOF 8
ENDMDL
MODEL 5
REMARK VINA RESULT:      -7.0      5.087      8.598
REMARK  Name = 
REMARK  10 active torsions:
REMARK  status: ('A' for Active; 'I' for Inactive)
REMARK    1  A    between atoms: C_1  and  C_2
REMARK    2  A    between atoms: N_4  and  C_5
REMARK    3  A    between atoms: C_8  and  S_9
REMARK    4  A    between atoms: S_9  and  N_12
REMARK    5  A    between atoms: N_12  and  C_13
REMARK    6  A    between atoms: N_12  and  C_14
REMARK    7  A    between atoms: C_14  and  C_15
REMARK    8  A    between atoms: C_15  and  O_17
REMARK    9  A    between atoms: O_17  and  C_18
REMARK   10  A    between atoms: C_18  and  C_19
REMARK                            x       y       z     vdW  Elec       q    Type
REMARK                         _______ _______ _______ _____ _____    ______ ____
ROOT
ATOM      1  N   UNL     1      -0.079  10.442  19.535  0.00  0.00    +0.000 NA
ATOM      2  C   UNL     1      -1.270  10.555  18.655  0.00  0.00    +0.000 C 
ENDROOT
BRANCH   1   3
ATOM      3  S   UNL     1       0.340  11.900  20.335  0.00  0.00    +0.000 S 
ATOM      4  O   UNL     1       0.507  12.915  19.316  0.00  0.00    +0.000 OA
ATOM      5  O   UNL     1       1.403  11.605  21.272  0.00  0.00    +0.000 OA
BRANCH   3   9
ATOM      6  C   UNL     1      -3.476  12.858  22.690  0.00  0.00    +0.000 A 
ATOM      7  C   UNL     1      -3.172  13.523  21.496  0.00  0.00    +0.000 A 
ATOM      8  C   UNL     1      -1.994  13.248  20.797  0.00  0.00    +0.000 A 
ATOM      9  C   UNL     1      -1.099  12.302  21.297  0.00  0.00    +0.000 A 
ATOM     10  C   UNL     1      -1.376  11.633  22.495  0.00  0.00    +0.000 A 
ATOM     11  C   UNL     1      -2.557  11.922  23.193  0.00  0.00    +0.000 A 
BRANCH   6  15
ATOM     12  C   UNL     1      -7.007  13.253  23.980  0.00  0.00    +0.000 C 
ATOM     13  C   UNL     1      -5.947  12.757  23.029  0.00  0.00    +0.000 C 
ATOM     14  O   UNL     1      -6.265  12.132  22.023  0.00  0.00    +0.000 OA
ATOM     15  N   UNL     1      -4.662  13.093  23.424  0.00  0.00    +0.000 N 
ATOM     16  H   UNL     1      -4.550  13.469  24.357  0.00  0.00    +0.000 HD
ENDBRANCH   6  15
ENDBRANCH   3   9
ENDBRANCH   1   3
BRANCH   1  17
ATOM     17  C   UNL     1       1.095   9.857  18.814  0.00  0.00    +0.000 C 
BRANCH  17  18
ATOM     18  C   UNL     1       1.648   8.556  19.355  0.00  0.00    +0.000 C 
ATOM     19  O   UNL     1       1.591   8.229  20.536  0.00  0.00    +0.000 OA
BRANCH  18  20
ATOM     20  O   UNL     1       2.163   7.775  18.364  0.00  0.00    +0.000 OA
BRANCH  20  21
ATOM     21  C   UNL     1       3.409   7.144  18.684  0.00  0.00    +0.000 C 
BRANCH  21  22
ATOM     22  C   UNL     1       3.547   5.715  18.128  0.00  0.00    +0.000 C 
ATOM     23  O   UNL     1       3.957   5.523  16.981  0.00  0.00    +0.000 OA
ATOM     24  N   UNL     1       3.180   4.658  18.971  0.00  0.00    +0.000 N 
ATOM     25  C   UNL     1       3.478   3.295  18.528  0.00  0.00    +0.000 C 
ATOM     26  C   UNL     1       2.252   2.597  17.948  0.00  0.00    +0.000 C 
ATOM     27  C   UNL     1       1.283   2.066  19.002  0.00  0.00    +0.000 C 
ATOM     28  C   UNL     1       0.743   3.119  19.966  0.00  0.00    +0.000 C 
ATOM     29  C   UNL     1       1.816   3.687  20.896  0.00  0.00    +0.000 C 
ATOM     30  C   UNL     1       2.598   4.859  20.298  0.00  0.00    +0.000 C 
ENDBRANCH  21  22
ENDBRANCH  20  21
ENDBRANCH  18  20
ENDBRANCH  17  18
ENDBRANCH   1  17
TORSDOF 8
ENDMDL
MODEL 6
REMARK VINA RESULT:      -7.0      5.682      9.168
REMARK  Name = 
REMARK  10 active torsions:
REMARK  status: ('A' for Active; 'I' for Inactive)
REMARK    1  A    between atoms: C_1  and  C_2
REMARK    2  A    between atoms: N_4  and  C_5
REMARK    3  A    between atoms: C_8  and  S_9
REMARK    4  A    between atoms: S_9  and  N_12
REMARK    5  A    between atoms: N_12  and  C_13
REMARK    6  A    between atoms: N_12  and  C_14
REMARK    7  A    between atoms: C_14  and  C_15
REMARK    8  A    between atoms: C_15  and  O_17
REMARK    9  A    between atoms: O_17  and  C_18
REMARK   10  A    between atoms: C_18  and  C_19
REMARK                            x       y       z     vdW  Elec       q    Type
REMARK                         _______ _______ _______ _____ _____    ______ ____
ROOT
ATOM      1  N   UNL     1      -0.357  10.416  19.599  0.00  0.00    +0.000 NA
ATOM      2  C   UNL     1       0.957  10.509  18.913  0.00  0.00    +0.000 C 
ENDROOT
BRANCH   1   3
ATOM      3  S   UNL     1      -1.425  11.709  19.244  0.00  0.00    +0.000 S 
ATOM      4  O   UNL     1      -0.613  12.835  18.833  0.00  0.00    +0.000 OA
ATOM      5  O   UNL     1      -2.362  11.829  20.341  0.00  0.00    +0.000 OA
BRANCH   3   9
ATOM      6  C   UNL     1      -3.776  10.400  15.531  0.00  0.00    +0.000 A 
ATOM      7  C   UNL     1      -4.278  11.372  16.404  0.00  0.00    +0.000 A 
ATOM      8  C   UNL     1      -3.572  11.747  17.550  0.00  0.00    +0.000 A 
ATOM      9  C   UNL     1      -2.349  11.140  17.836  0.00  0.00    +0.000 A 
ATOM     10  C   UNL     1      -1.832  10.157  16.984  0.00  0.00    +0.000 A 
ATOM     11  C   UNL     1      -2.553   9.782  15.842  0.00  0.00    +0.000 A 
BRANCH   6  15
ATOM     12  C   UNL     1      -4.878   9.492  12.031  0.00  0.00    +0.000 C 
ATOM     13  C   UNL     1      -3.871   9.797  13.110  0.00  0.00    +0.000 C 
ATOM     14  O   UNL     1      -2.676   9.852  12.841  0.00  0.00    +0.000 OA
ATOM     15  N   UNL     1      -4.449   9.999  14.354  0.00  0.00    +0.000 N 
ATOM     16  H   UNL     1      -5.428   9.761  14.451  0.00  0.00    +0.000 HD
ENDBRANCH   6  15
ENDBRANCH   3   9
ENDBRANCH   1   3
BRANCH   1  17
ATOM     17  C   UNL     1      -0.203  10.224  21.076  0.00  0.00    +0.000 C 
BRANCH  17  18
ATOM     18  C   UNL     1       0.808   9.192  21.529  0.00  0.00    +0.000 C 
ATOM     19  O   UNL     1       1.657   9.401  22.389  0.00  0.00    +0.000 OA
BRANCH  18  20
ATOM     20  O   UNL     1       0.622   7.995  20.904  0.00  0.00    +0.000 OA
BRANCH  20  21
ATOM     21  C   UNL     1       1.653   7.028  21.142  0.00  0.00    +0.000 C 
BRANCH  21  22
ATOM     22  C   UNL     1       2.316   6.494  19.860  0.00  0.00    +0.000 C 
ATOM     23  O   UNL     1       2.580   7.253  18.925  0.00  0.00    +0.000 OA
ATOM     24  N   UNL     1       2.595   5.122  19.803  0.00  0.00    +0.000 N 
ATOM     25  C   UNL     1       3.388   4.632  18.675  0.00  0.00    +0.000 C 
ATOM     26  C   UNL     1       2.521   3.992  17.595  0.00  0.00    +0.000 C 
ATOM     27  C   UNL     1       2.070   2.571  17.922  0.00  0.00    +0.000 C 
ATOM     28  C   UNL     1       1.283   2.431  19.222  0.00  0.00    +0.000 C 
ATOM     29  C   UNL     1       2.128   2.704  20.467  0.00  0.00    +0.000 C 
ATOM     30  C   UNL     1       2.205   4.183  20.854  0.00  0.00    +0.000 C 
ENDBRANCH  21  22
ENDBRANCH  20  21
ENDBRANCH  18  20
ENDBRANCH  17  18
ENDBRANCH   1  17
TORSDOF 8
ENDMDL
MODEL 7
REMARK VINA RESULT:      -6.8      4.618      8.326
REMARK  Name = 
REMARK  10 active torsions:
REMARK  status: ('A' for Active; 'I' for Inactive)
REMARK    1  A    between atoms: C_1  and  C_2
REMARK    2  A    between atoms: N_4  and  C_5
REMARK    3  A    between atoms: C_8  and  S_9
REMARK    4  A    between atoms: S_9  and  N_12
REMARK    5  A    between atoms: N_12  and  C_13
REMARK    6  A    between atoms: N_12  and  C_14
REMARK    7  A    between atoms: C_14  and  C_15
REMARK    8  A    between atoms: C_15  and  O_17
REMARK    9  A    between atoms: O_17  and  C_18
REMARK   10  A    between atoms: C_18  and  C_19
REMARK                            x       y       z     vdW  Elec       q    Type
REMARK                         _______ _______ _______ _____ _____    ______ ____
ROOT
ATOM      1  N   UNL     1       2.667   4.203  19.389  0.00  0.00    +0.000 NA
ATOM      2  C   UNL     1       1.613   3.835  20.367  0.00  0.00    +0.000 C 
ENDROOT
BRANCH   1   3
ATOM      3  S   UNL     1       3.867   2.998  19.165  0.00  0.00    +0.000 S 
ATOM      4  O   UNL     1       3.199   1.817  18.658  0.00  0.00    +0.000 OA
ATOM      5  O   UNL     1       4.670   2.939  20.368  0.00  0.00    +0.000 OA
BRANCH   3   9
ATOM      6  C   UNL     1       6.444   4.821  15.840  0.00  0.00    +0.000 A 
ATOM      7  C   UNL     1       5.173   4.301  15.572  0.00  0.00    +0.000 A 
ATOM      8  C   UNL     1       4.403   3.720  16.583  0.00  0.00    +0.000 A 
ATOM      9  C   UNL     1       4.908   3.649  17.881  0.00  0.00    +0.000 A 
ATOM     10  C   UNL     1       6.182   4.152  18.171  0.00  0.00    +0.000 A 
ATOM     11  C   UNL     1       6.950   4.725  17.147  0.00  0.00    +0.000 A 
BRANCH   6  15
ATOM     12  C   UNL     1       8.426   5.797  12.772  0.00  0.00    +0.000 C 
ATOM     13  C   UNL     1       7.396   5.008  13.539  0.00  0.00    +0.000 C 
ATOM     14  O   UNL     1       6.788   4.093  12.994  0.00  0.00    +0.000 OA
ATOM     15  N   UNL     1       7.253   5.430  14.852  0.00  0.00    +0.000 N 
ATOM     16  H   UNL     1       7.705   6.297  15.108  0.00  0.00    +0.000 HD
ENDBRANCH   6  15
ENDBRANCH   3   9
ENDBRANCH   1   3
BRANCH   1  17
ATOM     17  C   UNL     1       3.280   5.533  19.701  0.00  0.00    +0.000 C 
BRANCH  17  18
ATOM     18  C   UNL     1       2.579   6.754  19.145  0.00  0.00    +0.000 C 
ATOM     19  O   UNL     1       2.079   6.804  18.027  0.00  0.00    +0.000 OA
BRANCH  18  20
ATOM     20  O   UNL     1       2.524   7.764  20.058  0.00  0.00    +0.000 OA
BRANCH  20  21
ATOM     21  C   UNL     1       1.289   7.854  20.780  0.00  0.00    +0.000 C 
BRANCH  21  22
ATOM     22  C   UNL     1       1.040   9.231  21.423  0.00  0.00    +0.000 C 
ATOM     23  O   UNL     1       1.211   9.400  22.632  0.00  0.00    +0.000 OA
ATOM     24  N   UNL     1       0.607  10.265  20.583  0.00  0.00    +0.000 N 
ATOM     25  C   UNL     1       0.544  11.617  21.141  0.00  0.00    +0.000 C 
ATOM     26  C   UNL     1      -0.876  12.014  21.531  0.00  0.00    +0.000 C 
ATOM     27  C   UNL     1      -1.749  12.436  20.352  0.00  0.00    +0.000 C 
ATOM     28  C   UNL     1      -1.899  11.386  19.255  0.00  0.00    +0.000 C 
ATOM     29  C   UNL     1      -0.596  11.116  18.501  0.00  0.00    +0.000 C 
ATOM     30  C   UNL     1       0.301  10.070  19.167  0.00  0.00    +0.000 C 
ENDBRANCH  21  22
ENDBRANCH  20  21
ENDBRANCH  18  20
ENDBRANCH  17  18
ENDBRANCH   1  17
TORSDOF 8
ENDMDL
MODEL 8
REMARK VINA RESULT:      -6.8      4.627      8.068
REMARK  Name = 
REMARK  10 active torsions:
REMARK  status: ('A' for Active; 'I' for Inactive)
REMARK    1  A    between atoms: C_1  and  C_2
REMARK    2  A    between atoms: N_4  and  C_5
REMARK    3  A    between atoms: C_8  and  S_9
REMARK    4  A    between atoms: S_9  and  N_12
REMARK    5  A    between atoms: N_12  and  C_13
REMARK    6  A    between atoms: N_12  and  C_14
REMARK    7  A    between atoms: C_14  and  C_15
REMARK    8  A    between atoms: C_15  and  O_17
REMARK    9  A    between atoms: O_17  and  C_18
REMARK   10  A    between atoms: C_18  and  C_19
REMARK                            x       y       z     vdW  Elec       q    Type
REMARK                         _______ _______ _______ _____ _____    ______ ____
ROOT
ATOM      1  N   UNL     1       2.846   4.320  19.854  0.00  0.00    +0.000 NA
ATOM      2  C   UNL     1       2.231   4.159  21.195  0.00  0.00    +0.000 C 
ENDROOT
BRANCH   1   3
ATOM      3  S   UNL     1       3.785   2.976  19.349  0.00  0.00    +0.000 S 
ATOM      4  O   UNL     1       2.872   2.005  18.782  0.00  0.00    +0.000 OA
ATOM      5  O   UNL     1       4.672   2.618  20.434  0.00  0.00    +0.000 OA
BRANCH   3   9
ATOM      6  C   UNL     1       6.301   4.779  15.965  0.00  0.00    +0.000 A 
ATOM      7  C   UNL     1       5.025   4.256  15.723  0.00  0.00    +0.000 A 
ATOM      8  C   UNL     1       4.274   3.682  16.752  0.00  0.00    +0.000 A 
ATOM      9  C   UNL     1       4.802   3.619  18.041  0.00  0.00    +0.000 A 
ATOM     10  C   UNL     1       6.081   4.125  18.305  0.00  0.00    +0.000 A 
ATOM     11  C   UNL     1       6.829   4.692  17.264  0.00  0.00    +0.000 A 
BRANCH   6  15
ATOM     12  C   UNL     1       8.272   5.710  12.878  0.00  0.00    +0.000 C 
ATOM     13  C   UNL     1       7.274   4.906  13.670  0.00  0.00    +0.000 C 
ATOM     14  O   UNL     1       6.721   3.935  13.161  0.00  0.00    +0.000 OA
ATOM     15  N   UNL     1       7.091   5.381  14.959  0.00  0.00    +0.000 N 
ATOM     16  H   UNL     1       7.494   6.282  15.179  0.00  0.00    +0.000 HD
ENDBRANCH   6  15
ENDBRANCH   3   9
ENDBRANCH   1   3
BRANCH   1  17
ATOM     17  C   UNL     1       3.618   5.598  19.743  0.00  0.00    +0.000 C 
BRANCH  17  18
ATOM     18  C   UNL     1       2.950   6.735  18.998  0.00  0.00    +0.000 C 
ATOM     19  O   UNL     1       3.132   6.970  17.808  0.00  0.00    +0.000 OA
BRANCH  18  20
ATOM     20  O   UNL     1       2.086   7.423  19.796  0.00  0.00    +0.000 OA
BRANCH  20  21
ATOM     21  C   UNL     1       1.738   8.728  19.317  0.00  0.00    +0.000 C 
BRANCH  21  22
ATOM     22  C   UNL     1       0.844   9.530  20.282  0.00  0.00    +0.000 C 
ATOM     23  O   UNL     1       0.208   8.959  21.170  0.00  0.00    +0.000 OA
ATOM     24  N   UNL     1       0.782  10.917  20.098  0.00  0.00    +0.000 N 
ATOM     25  C   UNL     1       0.089  11.710  21.113  0.00  0.00    +0.000 C 
ATOM     26  C   UNL     1      -1.323  12.093  20.681  0.00  0.00    +0.000 C 
ATOM     27  C   UNL     1      -1.377  13.262  19.701  0.00  0.00    +0.000 C 
ATOM     28  C   UNL     1      -0.591  13.053  18.410  0.00  0.00    +0.000 C 
ATOM     29  C   UNL     1       0.922  12.999  18.631  0.00  0.00    +0.000 C 
ATOM     30  C   UNL     1       1.446  11.608  18.993  0.00  0.00    +0.000 C 
ENDBRANCH  21  22
ENDBRANCH  20  21
ENDBRANCH  18  20
ENDBRANCH  17  18
ENDBRANCH   1  17
TORSDOF 8
ENDMDL
MODEL 9
REMARK VINA RESULT:      -6.8      4.075      5.942
REMARK  Name = 
REMARK  10 active torsions:
REMARK  status: ('A' for Active; 'I' for Inactive)
REMARK    1  A    between atoms: C_1  and  C_2
REMARK    2  A    between atoms: N_4  and  C_5
REMARK    3  A    between atoms: C_8  and  S_9
REMARK    4  A    between atoms: S_9  and  N_12
REMARK    5  A    between atoms: N_12  and  C_13
REMARK    6  A    between atoms: N_12  and  C_14
REMARK    7  A    between atoms: C_14  and  C_15
REMARK    8  A    between atoms: C_15  and  O_17
REMARK    9  A    between atoms: O_17  and  C_18
REMARK   10  A    between atoms: C_18  and  C_19
REMARK                            x       y       z     vdW  Elec       q    Type
REMARK                         _______ _______ _______ _____ _____    ______ ____
ROOT
ATOM      1  N   UNL     1       1.242   5.090  19.186  0.00  0.00    +0.000 NA
ATOM      2  C   UNL     1       1.547   4.892  17.747  0.00  0.00    +0.000 C 
ENDROOT
BRANCH   1   3
ATOM      3  S   UNL     1       2.396   6.043  20.022  0.00  0.00    +0.000 S 
ATOM      4  O   UNL     1       3.584   6.099  19.197  0.00  0.00    +0.000 OA
ATOM      5  O   UNL     1       2.460   5.570  21.389  0.00  0.00    +0.000 OA
BRANCH   3   9
ATOM      6  C   UNL     1       0.658  10.280  20.261  0.00  0.00    +0.000 A 
ATOM      7  C   UNL     1       0.601   9.408  21.355  0.00  0.00    +0.000 A 
ATOM      8  C   UNL     1       1.106   8.108  21.268  0.00  0.00    +0.000 A 
ATOM      9  C   UNL     1       1.671   7.665  20.072  0.00  0.00    +0.000 A 
ATOM     10  C   UNL     1       1.729   8.515  18.962  0.00  0.00    +0.000 A 
ATOM     11  C   UNL     1       1.212   9.815  19.057  0.00  0.00    +0.000 A 
BRANCH   6  15
ATOM     12  C   UNL     1      -1.200  13.551  19.887  0.00  0.00    +0.000 C 
ATOM     13  C   UNL     1      -1.029  12.057  19.782  0.00  0.00    +0.000 C 
ATOM     14  O   UNL     1      -1.905  11.370  19.266  0.00  0.00    +0.000 OA
ATOM     15  N   UNL     1       0.173  11.608  20.307  0.00  0.00    +0.000 N 
ATOM     16  H   UNL     1       0.718  12.271  20.842  0.00  0.00    +0.000 HD
ENDBRANCH   6  15
ENDBRANCH   3   9
ENDBRANCH   1   3
BRANCH   1  17
ATOM     17  C   UNL     1       0.994   3.791  19.888  0.00  0.00    +0.000 C 
BRANCH  17  18
ATOM     18  C   UNL     1       1.260   2.527  19.098  0.00  0.00    +0.000 C 
ATOM     19  O   UNL     1       0.437   1.999  18.358  0.00  0.00    +0.000 OA
BRANCH  18  20
ATOM     20  O   UNL     1       2.537   2.084  19.269  0.00  0.00    +0.000 OA
BRANCH  20  21
ATOM     21  C   UNL     1       3.422   2.372  18.180  0.00  0.00    +0.000 C 
BRANCH  21  22
ATOM     22  C   UNL     1       4.703   3.120  18.595  0.00  0.00    +0.000 C 
ATOM     23  O   UNL     1       5.117   3.061  19.755  0.00  0.00    +0.000 OA
ATOM     24  N   UNL     1       5.360   3.867  17.610  0.00  0.00    +0.000 N 
ATOM     25  C   UNL     1       6.671   4.430  17.939  0.00  0.00    +0.000 C 
ATOM     26  C   UNL     1       6.589   5.910  18.299  0.00  0.00    +0.000 C 
ATOM     27  C   UNL     1       6.471   6.837  17.092  0.00  0.00    +0.000 C 
ATOM     28  C   UNL     1       5.273   6.563  16.187  0.00  0.00    +0.000 C 
ATOM     29  C   UNL     1       5.370   5.226  15.451  0.00  0.00    +0.000 C 
ATOM     30  C   UNL     1       4.840   4.036  16.253  0.00  0.00    +0.000 C 
ENDBRANCH  21  22
ENDBRANCH  20  21
ENDBRANCH  18  20
ENDBRANCH  17  18
ENDBRANCH   1  17
TORSDOF 8
ENDMDL
