MODEL 1
REMARK VINA RESULT:      -7.0      0.000      0.000
REMARK  Name = 
REMARK  10 active torsions:
REMARK  status: ('A' for Active; 'I' for Inactive)
REMARK    1  A    between atoms: C_1  and  O_2
REMARK    2  A    between atoms: O_2  and  C_3
REMARK    3  A    between atoms: C_5  and  N_6
REMARK    4  A    between atoms: C_10  and  C_11
REMARK    5  A    between atoms: C_11  and  O_13
REMARK    6  A    between atoms: O_13  and  C_14
REMARK    7  A    between atoms: C_14  and  C_15
REMARK    8  A    between atoms: C_15  and  N_16
REMARK    9  A    between atoms: C_18  and  C_19
REMARK   10  A    between atoms: C_21  and  C_22
REMARK                            x       y       z     vdW  Elec       q    Type
REMARK                         _______ _______ _______ _____ _____    ______ ____
ROOT
ATOM      1  C   UNL     1       1.272   3.018  18.301  0.00  0.00    +0.000 C 
ATOM      2  O   UNL     1       0.256   2.362  18.462  0.00  0.00    +0.000 OA
ENDROOT
BRANCH   1   9
ATOM      3  C   UNL     1       1.428   4.451  20.440  0.00  0.00    +0.000 A 
ATOM      4  C   UNL     1       1.620   5.725  20.998  0.00  0.00    +0.000 A 
ATOM      5  C   UNL     1       1.952   6.831  20.213  0.00  0.00    +0.000 A 
ATOM      6  C   UNL     1       2.005   6.666  18.823  0.00  0.00    +0.000 A 
ATOM      7 CL   UNL     1       2.350   8.010  17.791  0.00  0.00    +0.000 Cl
ATOM      8  C   UNL     1       1.818   5.412  18.243  0.00  0.00    +0.000 A 
ATOM      9  C   UNL     1       1.545   4.286  19.042  0.00  0.00    +0.000 A 
BRANCH   5  10
ATOM     10  N   UNL     1       2.002   8.098  20.824  0.00  0.00    +0.000 N 
ATOM     11  H   UNL     1       2.737   8.204  21.516  0.00  0.00    +0.000 HD
ATOM     12  H   UNL     1       1.988   8.860  20.148  0.00  0.00    +0.000 HD
ENDBRANCH   5  10
BRANCH   3  14
ATOM     13  C   UNL     1       2.258   2.739  21.879  0.00  0.00    +0.000 C 
ATOM     14  O   UNL     1       1.157   3.361  21.223  0.00  0.00    +0.000 OA
ENDBRANCH   3  14
ENDBRANCH   1   9
BRANCH   1  15
ATOM     15  O   UNL     1       2.337   2.617  17.571  0.00  0.00    +0.000 OA
BRANCH  15  16
ATOM     16  C   UNL     1       3.457   2.191  18.363  0.00  0.00    +0.000 C 
BRANCH  16  17
ATOM     17  C   UNL     1       4.732   2.767  17.714  0.00  0.00    +0.000 C 
BRANCH  17  18
ATOM     18  N   UNL     1       4.684   4.183  17.316  0.00  0.00    +0.000 NA
ATOM     19  C   UNL     1       5.586   5.006  18.147  0.00  0.00    +0.000 C 
ATOM     20  C   UNL     1       7.088   4.791  17.858  0.00  0.00    +0.000 C 
ATOM     21  C   UNL     1       7.948   5.758  18.671  0.00  0.00    +0.000 C 
ATOM     22  C   UNL     1       7.384   4.936  16.357  0.00  0.00    +0.000 C 
ATOM     23  C   UNL     1       6.435   4.062  15.526  0.00  0.00    +0.000 C 
ATOM     24  C   UNL     1       6.674   4.240  14.031  0.00  0.00    +0.000 C 
ATOM     25  C   UNL     1       4.981   4.399  15.893  0.00  0.00    +0.000 C 
ENDBRANCH  17  18
ENDBRANCH  16  17
ENDBRANCH  15  16
ENDBRANCH   1  15
TORSDOF 7
ENDMDL
MODEL 2
REMARK VINA RESULT:      -6.8      1.052      2.080
REMARK  Name = 
REMARK  10 active torsions:
REMARK  status: ('A' for Active; 'I' for Inactive)
REMARK    1  A    between atoms: C_1  and  O_2
REMARK    2  A    between atoms: O_2  and  C_3
REMARK    3  A    between atoms: C_5  and  N_6
REMARK    4  A    between atoms: C_10  and  C_11
REMARK    5  A    between atoms: C_11  and  O_13
REMARK    6  A    between atoms: O_13  and  C_14
REMARK    7  A    between atoms: C_14  and  C_15
REMARK    8  A    between atoms: C_15  and  N_16
REMARK    9  A    between atoms: C_18  and  C_19
REMARK   10  A    between atoms: C_21  and  C_22
REMARK                            x       y       z     vdW  Elec       q    Type
REMARK                         _______ _______ _______ _____ _____    ______ ____
ROOT
ATOM      1  C   UNL     1       1.755   3.372  18.021  0.00  0.00    +0.000 C 
ATOM      2  O   UNL     1       0.856   2.557  18.142  0.00  0.00    +0.000 OA
ENDROOT
BRANCH   1   9
ATOM      3  C   UNL     1       1.537   4.671  20.239  0.00  0.00    +0.000 A 
ATOM      4  C   UNL     1       1.582   5.913  20.891  0.00  0.00    +0.000 A 
ATOM      5  C   UNL     1       1.960   7.082  20.225  0.00  0.00    +0.000 A 
ATOM      6  C   UNL     1       2.213   7.009  18.849  0.00  0.00    +0.000 A 
ATOM      7 CL   UNL     1       2.624   8.430  17.955  0.00  0.00    +0.000 Cl
ATOM      8  C   UNL     1       2.175   5.787  18.177  0.00  0.00    +0.000 A 
ATOM      9  C   UNL     1       1.854   4.601  18.864  0.00  0.00    +0.000 A 
BRANCH   5  10
ATOM     10  N   UNL     1       1.857   8.308  20.908  0.00  0.00    +0.000 N 
ATOM     11  H   UNL     1       1.057   8.873  20.642  0.00  0.00    +0.000 HD
ATOM     12  H   UNL     1       1.942   8.202  21.918  0.00  0.00    +0.000 HD
ENDBRANCH   5  10
BRANCH   3  14
ATOM     13  C   UNL     1       2.252   2.908  21.678  0.00  0.00    +0.000 C 
ATOM     14  O   UNL     1       1.219   3.522  20.912  0.00  0.00    +0.000 OA
ENDBRANCH   3  14
ENDBRANCH   1   9
BRANCH   1  15
ATOM     15  O   UNL     1       2.845   3.203  17.240  0.00  0.00    +0.000 OA
BRANCH  15  16
ATOM     16  C   UNL     1       3.955   2.590  17.917  0.00  0.00    +0.000 C 
BRANCH  16  17
ATOM     17  C   UNL     1       4.971   3.703  18.245  0.00  0.00    +0.000 C 
BRANCH  17  18
ATOM     18  N   UNL     1       6.022   3.950  17.244  0.00  0.00    +0.000 NA
ATOM     19  C   UNL     1       5.506   4.736  16.105  0.00  0.00    +0.000 C 
ATOM     20  C   UNL     1       5.224   6.218  16.434  0.00  0.00    +0.000 C 
ATOM     21  C   UNL     1       4.806   6.989  15.181  0.00  0.00    +0.000 C 
ATOM     22  C   UNL     1       6.445   6.877  17.091  0.00  0.00    +0.000 C 
ATOM     23  C   UNL     1       6.948   6.039  18.273  0.00  0.00    +0.000 C 
ATOM     24  C   UNL     1       8.199   6.646  18.900  0.00  0.00    +0.000 C 
ATOM     25  C   UNL     1       7.216   4.601  17.800  0.00  0.00    +0.000 C 
ENDBRANCH  17  18
ENDBRANCH  16  17
ENDBRANCH  15  16
ENDBRANCH   1  15
TORSDOF 7
ENDMDL
MODEL 3
REMARK VINA RESULT:      -6.5      1.693      2.771
REMARK  Name = 
REMARK  10 active torsions:
REMARK  status: ('A' for Active; 'I' for Inactive)
REMARK    1  A    between atoms: C_1  and  O_2
REMARK    2  A    between atoms: O_2  and  C_3
REMARK    3  A    between atoms: C_5  and  N_6
REMARK    4  A    between atoms: C_10  and  C_11
REMARK    5  A    between atoms: C_11  and  O_13
REMARK    6  A    between atoms: O_13  and  C_14
REMARK    7  A    between atoms: C_14  and  C_15
REMARK    8  A    between atoms: C_15  and  N_16
REMARK    9  A    between atoms: C_18  and  C_19
REMARK   10  A    between atoms: C_21  and  C_22
REMARK                            x       y       z     vdW  Elec       q    Type
REMARK                         _______ _______ _______ _____ _____    ______ ____
ROOT
ATOM      1  C   UNL     1       3.060   4.637  18.445  0.00  0.00    +0.000 C 
ATOM      2  O   UNL     1       2.691   4.274  17.340  0.00  0.00    +0.000 OA
ENDROOT
BRANCH   1   9
ATOM      3  C   UNL     1       1.951   5.930  20.382  0.00  0.00    +0.000 A 
ATOM      4  C   UNL     1       1.426   7.148  20.842  0.00  0.00    +0.000 A 
ATOM      5  C   UNL     1       1.504   8.318  20.084  0.00  0.00    +0.000 A 
ATOM      6  C   UNL     1       2.046   8.238  18.794  0.00  0.00    +0.000 A 
ATOM      7 CL   UNL     1       2.114   9.637  17.782  0.00  0.00    +0.000 Cl
ATOM      8  C   UNL     1       2.574   7.040  18.312  0.00  0.00    +0.000 A 
ATOM      9  C   UNL     1       2.550   5.876  19.104  0.00  0.00    +0.000 A 
BRANCH   5  10
ATOM     10  N   UNL     1       0.842   9.468  20.553  0.00  0.00    +0.000 N 
ATOM     11  H   UNL     1       0.998   9.673  21.535  0.00  0.00    +0.000 HD
ATOM     12  H   UNL     1       0.994  10.279  19.955  0.00  0.00    +0.000 HD
ENDBRANCH   5  10
BRANCH   3  14
ATOM     13  C   UNL     1       0.987   3.786  20.789  0.00  0.00    +0.000 C 
ATOM     14  O   UNL     1       1.919   4.800  21.155  0.00  0.00    +0.000 OA
ENDBRANCH   3  14
ENDBRANCH   1   9
BRANCH   1  15
ATOM     15  O   UNL     1       3.837   3.903  19.274  0.00  0.00    +0.000 OA
BRANCH  15  16
ATOM     16  C   UNL     1       5.171   3.690  18.784  0.00  0.00    +0.000 C 
BRANCH  16  17
ATOM     17  C   UNL     1       6.001   4.941  19.138  0.00  0.00    +0.000 C 
BRANCH  17  18
ATOM     18  N   UNL     1       7.375   4.988  18.612  0.00  0.00    +0.000 NA
ATOM     19  C   UNL     1       7.442   4.459  17.235  0.00  0.00    +0.000 C 
ATOM     20  C   UNL     1       6.814   5.385  16.170  0.00  0.00    +0.000 C 
ATOM     21  C   UNL     1       7.027   4.826  14.763  0.00  0.00    +0.000 C 
ATOM     22  C   UNL     1       7.380   6.809  16.276  0.00  0.00    +0.000 C 
ATOM     23  C   UNL     1       7.287   7.327  17.717  0.00  0.00    +0.000 C 
ATOM     24  C   UNL     1       7.901   8.716  17.855  0.00  0.00    +0.000 C 
ATOM     25  C   UNL     1       7.974   6.329  18.662  0.00  0.00    +0.000 C 
ENDBRANCH  17  18
ENDBRANCH  16  17
ENDBRANCH  15  16
ENDBRANCH   1  15
TORSDOF 7
ENDMDL
MODEL 4
REMARK VINA RESULT:      -6.3      3.624      6.913
REMARK  Name = 
REMARK  10 active torsions:
REMARK  status: ('A' for Active; 'I' for Inactive)
REMARK    1  A    between atoms: C_1  and  O_2
REMARK    2  A    between atoms: O_2  and  C_3
REMARK    3  A    between atoms: C_5  and  N_6
REMARK    4  A    between atoms: C_10  and  C_11
REMARK    5  A    between atoms: C_11  and  O_13
REMARK    6  A    between atoms: O_13  and  C_14
REMARK    7  A    between atoms: C_14  and  C_15
REMARK    8  A    between atoms: C_15  and  N_16
REMARK    9  A    between atoms: C_18  and  C_19
REMARK   10  A    between atoms: C_21  and  C_22
REMARK                            x       y       z     vdW  Elec       q    Type
REMARK                         _______ _______ _______ _____ _____    ______ ____
ROOT
ATOM      1  C   UNL     1       2.303   5.973  20.045  0.00  0.00    +0.000 C 
ATOM      2  O   UNL     1       1.801   5.323  20.947  0.00  0.00    +0.000 OA
ENDROOT
BRANCH   1   9
ATOM      3  C   UNL     1       2.675   4.370  18.058  0.00  0.00    +0.000 A 
ATOM      4  C   UNL     1       3.584   3.802  17.151  0.00  0.00    +0.000 A 
ATOM      5  C   UNL     1       4.921   4.206  17.097  0.00  0.00    +0.000 A 
ATOM      6  C   UNL     1       5.370   5.140  18.040  0.00  0.00    +0.000 A 
ATOM      7 CL   UNL     1       7.027   5.633  18.066  0.00  0.00    +0.000 Cl
ATOM      8  C   UNL     1       4.488   5.718  18.953  0.00  0.00    +0.000 A 
ATOM      9  C   UNL     1       3.128   5.355  18.963  0.00  0.00    +0.000 A 
BRANCH   5  10
ATOM     10  N   UNL     1       5.801   3.503  16.254  0.00  0.00    +0.000 N 
ATOM     11  H   UNL     1       5.790   3.808  15.286  0.00  0.00    +0.000 HD
ATOM     12  H   UNL     1       6.744   3.443  16.634  0.00  0.00    +0.000 HD
ENDBRANCH   5  10
BRANCH   3  14
ATOM     13  C   UNL     1       1.031   2.735  18.620  0.00  0.00    +0.000 C 
ATOM     14  O   UNL     1       1.355   4.008  18.067  0.00  0.00    +0.000 OA
ENDBRANCH   3  14
ENDBRANCH   1   9
BRANCH   1  15
ATOM     15  O   UNL     1       2.056   7.281  19.811  0.00  0.00    +0.000 OA
BRANCH  15  16
ATOM     16  C   UNL     1       1.308   7.927  20.854  0.00  0.00    +0.000 C 
BRANCH  16  17
ATOM     17  C   UNL     1       1.098   9.396  20.435  0.00  0.00    +0.000 C 
BRANCH  17  18
ATOM     18  N   UNL     1       0.745   9.633  19.025  0.00  0.00    +0.000 NA
ATOM     19  C   UNL     1      -0.646  10.110  18.892  0.00  0.00    +0.000 C 
ATOM     20  C   UNL     1      -0.868  11.560  19.376  0.00  0.00    +0.000 C 
ATOM     21  C   UNL     1      -2.299  12.019  19.098  0.00  0.00    +0.000 C 
ATOM     22  C   UNL     1       0.142  12.517  18.725  0.00  0.00    +0.000 C 
ATOM     23  C   UNL     1       1.575  11.994  18.889  0.00  0.00    +0.000 C 
ATOM     24  C   UNL     1       2.586  12.900  18.195  0.00  0.00    +0.000 C 
ATOM     25  C   UNL     1       1.659  10.560  18.343  0.00  0.00    +0.000 C 
ENDBRANCH  17  18
ENDBRANCH  16  17
ENDBRANCH  15  16
ENDBRANCH   1  15
TORSDOF 7
ENDMDL
MODEL 5
REMARK VINA RESULT:      -6.3      4.186      7.274
REMARK  Name = 
REMARK  10 active torsions:
REMARK  status: ('A' for Active; 'I' for Inactive)
REMARK    1  A    between atoms: C_1  and  O_2
REMARK    2  A    between atoms: O_2  and  C_3
REMARK    3  A    between atoms: C_5  and  N_6
REMARK    4  A    between atoms: C_10  and  C_11
REMARK    5  A    between atoms: C_11  and  O_13
REMARK    6  A    between atoms: O_13  and  C_14
REMARK    7  A    between atoms: C_14  and  C_15
REMARK    8  A    between atoms: C_15  and  N_16
REMARK    9  A    between atoms: C_18  and  C_19
REMARK   10  A    between atoms: C_21  and  C_22
REMARK                            x       y       z     vdW  Elec       q    Type
REMARK                         _______ _______ _______ _____ _____    ______ ____
ROOT
ATOM      1  C   UNL     1       2.395   6.844  19.293  0.00  0.00    +0.000 C 
ATOM      2  O   UNL     1       2.203   7.372  20.376  0.00  0.00    +0.000 OA
ENDROOT
BRANCH   1   9
ATOM      3  C   UNL     1       4.128   4.954  19.007  0.00  0.00    +0.000 A 
ATOM      4  C   UNL     1       4.361   3.588  18.783  0.00  0.00    +0.000 A 
ATOM      5  C   UNL     1       3.318   2.662  18.726  0.00  0.00    +0.000 A 
ATOM      6  C   UNL     1       2.003   3.138  18.809  0.00  0.00    +0.000 A 
ATOM      7 CL   UNL     1       0.665   2.050  18.683  0.00  0.00    +0.000 Cl
ATOM      8  C   UNL     1       1.743   4.491  19.031  0.00  0.00    +0.000 A 
ATOM      9  C   UNL     1       2.800   5.413  19.150  0.00  0.00    +0.000 A 
BRANCH   5  10
ATOM     10  N   UNL     1       3.617   1.334  18.370  0.00  0.00    +0.000 N 
ATOM     11  H   UNL     1       4.132   0.814  19.074  0.00  0.00    +0.000 HD
ATOM     12  H   UNL     1       2.803   0.826  18.028  0.00  0.00    +0.000 HD
ENDBRANCH   5  10
BRANCH   3  14
ATOM     13  C   UNL     1       6.483   5.318  19.112  0.00  0.00    +0.000 C 
ATOM     14  O   UNL     1       5.160   5.848  19.115  0.00  0.00    +0.000 OA
ENDBRANCH   3  14
ENDBRANCH   1   9
BRANCH   1  15
ATOM     15  O   UNL     1       2.117   7.415  18.100  0.00  0.00    +0.000 OA
BRANCH  15  16
ATOM     16  C   UNL     1       2.461   8.808  18.028  0.00  0.00    +0.000 C 
BRANCH  16  17
ATOM     17  C   UNL     1       1.146   9.606  17.906  0.00  0.00    +0.000 C 
BRANCH  17  18
ATOM     18  N   UNL     1       0.585  10.143  19.156  0.00  0.00    +0.000 NA
ATOM     19  C   UNL     1       1.179  11.453  19.492  0.00  0.00    +0.000 C 
ATOM     20  C   UNL     1       0.719  12.611  18.579  0.00  0.00    +0.000 C 
ATOM     21  C   UNL     1       1.282  13.947  19.061  0.00  0.00    +0.000 C 
ATOM     22  C   UNL     1      -0.814  12.669  18.497  0.00  0.00    +0.000 C 
ATOM     23  C   UNL     1      -1.394  11.296  18.138  0.00  0.00    +0.000 C 
ATOM     24  C   UNL     1      -2.919  11.320  18.112  0.00  0.00    +0.000 C 
ATOM     25  C   UNL     1      -0.880  10.249  19.140  0.00  0.00    +0.000 C 
ENDBRANCH  17  18
ENDBRANCH  16  17
ENDBRANCH  15  16
ENDBRANCH   1  15
TORSDOF 7
ENDMDL
MODEL 6
REMARK VINA RESULT:      -6.2      4.631      6.147
REMARK  Name = 
REMARK  10 active torsions:
REMARK  status: ('A' for Active; 'I' for Inactive)
REMARK    1  A    between atoms: C_1  and  O_2
REMARK    2  A    between atoms: O_2  and  C_3
REMARK    3  A    between atoms: C_5  and  N_6
REMARK    4  A    between atoms: C_10  and  C_11
REMARK    5  A    between atoms: C_11  and  O_13
REMARK    6  A    between atoms: O_13  and  C_14
REMARK    7  A    between atoms: C_14  and  C_15
REMARK    8  A    between atoms: C_15  and  N_16
REMARK    9  A    between atoms: C_18  and  C_19
REMARK   10  A    between atoms: C_21  and  C_22
REMARK                            x       y       z     vdW  Elec       q    Type
REMARK                         _______ _______ _______ _____ _____    ______ ____
ROOT
ATOM      1  C   UNL     1       1.432   9.551  18.351  0.00  0.00    +0.000 C 
ATOM      2  O   UNL     1       2.122   9.636  17.348  0.00  0.00    +0.000 OA
ENDROOT
BRANCH   1   9
ATOM      3  C   UNL     1       0.121  11.437  19.525  0.00  0.00    +0.000 A 
ATOM      4  C   UNL     1      -1.110  12.090  19.700  0.00  0.00    +0.000 A 
ATOM      5  C   UNL     1      -2.234  11.759  18.940  0.00  0.00    +0.000 A 
ATOM      6  C   UNL     1      -2.137  10.686  18.044  0.00  0.00    +0.000 A 
ATOM      7 CL   UNL     1      -3.510  10.187  17.119  0.00  0.00    +0.000 Cl
ATOM      8  C   UNL     1      -0.926  10.020  17.852  0.00  0.00    +0.000 A 
ATOM      9  C   UNL     1       0.221  10.397  18.575  0.00  0.00    +0.000 A 
BRANCH   5  10
ATOM     10  N   UNL     1      -3.463  12.365  19.259  0.00  0.00    +0.000 N 
ATOM     11  H   UNL     1      -3.636  13.244  18.782  0.00  0.00    +0.000 HD
ATOM     12  H   UNL     1      -4.249  11.721  19.188  0.00  0.00    +0.000 HD
ENDBRANCH   5  10
BRANCH   3  14
ATOM     13  C   UNL     1       1.925  12.973  19.805  0.00  0.00    +0.000 C 
ATOM     14  O   UNL     1       1.232  11.805  20.236  0.00  0.00    +0.000 OA
ENDBRANCH   3  14
ENDBRANCH   1   9
BRANCH   1  15
ATOM     15  O   UNL     1       1.566   8.596  19.297  0.00  0.00    +0.000 OA
BRANCH  15  16
ATOM     16  C   UNL     1       2.583   7.624  19.002  0.00  0.00    +0.000 C 
BRANCH  16  17
ATOM     17  C   UNL     1       2.176   6.303  19.686  0.00  0.00    +0.000 C 
BRANCH  17  18
ATOM     18  N   UNL     1       3.250   5.323  19.914  0.00  0.00    +0.000 NA
ATOM     19  C   UNL     1       2.706   3.960  20.091  0.00  0.00    +0.000 C 
ATOM     20  C   UNL     1       2.157   3.323  18.796  0.00  0.00    +0.000 C 
ATOM     21  C   UNL     1       1.723   1.878  19.037  0.00  0.00    +0.000 C 
ATOM     22  C   UNL     1       3.195   3.394  17.666  0.00  0.00    +0.000 C 
ATOM     23  C   UNL     1       3.731   4.822  17.505  0.00  0.00    +0.000 C 
ATOM     24  C   UNL     1       4.808   4.900  16.429  0.00  0.00    +0.000 C 
ATOM     25  C   UNL     1       4.270   5.318  18.856  0.00  0.00    +0.000 C 
ENDBRANCH  17  18
ENDBRANCH  16  17
ENDBRANCH  15  16
ENDBRANCH   1  15
TORSDOF 7
ENDMDL
MODEL 7
REMARK VINA RESULT:      -6.2      4.025      7.487
REMARK  Name = 
REMARK  10 active torsions:
REMARK  status: ('A' for Active; 'I' for Inactive)
REMARK    1  A    between atoms: C_1  and  O_2
REMARK    2  A    between atoms: O_2  and  C_3
REMARK    3  A    between atoms: C_5  and  N_6
REMARK    4  A    between atoms: C_10  and  C_11
REMARK    5  A    between atoms: C_11  and  O_13
REMARK    6  A    between atoms: O_13  and  C_14
REMARK    7  A    between atoms: C_14  and  C_15
REMARK    8  A    between atoms: C_15  and  N_16
REMARK    9  A    between atoms: C_18  and  C_19
REMARK   10  A    between atoms: C_21  and  C_22
REMARK                            x       y       z     vdW  Elec       q    Type
REMARK                         _______ _______ _______ _____ _____    ______ ____
ROOT
ATOM      1  C   UNL     1       2.423   7.345  18.724  0.00  0.00    +0.000 C 
ATOM      2  O   UNL     1       2.248   7.341  19.932  0.00  0.00    +0.000 OA
ENDROOT
BRANCH   1   9
ATOM      3  C   UNL     1       2.766   4.964  17.794  0.00  0.00    +0.000 A 
ATOM      4  C   UNL     1       3.642   4.043  17.198  0.00  0.00    +0.000 A 
ATOM      5  C   UNL     1       4.927   4.406  16.788  0.00  0.00    +0.000 A 
ATOM      6  C   UNL     1       5.370   5.706  17.067  0.00  0.00    +0.000 A 
ATOM      7 CL   UNL     1       6.971   6.198  16.641  0.00  0.00    +0.000 Cl
ATOM      8  C   UNL     1       4.520   6.640  17.659  0.00  0.00    +0.000 A 
ATOM      9  C   UNL     1       3.204   6.289  18.014  0.00  0.00    +0.000 A 
BRANCH   5  10
ATOM     10  N   UNL     1       5.792   3.400  16.318  0.00  0.00    +0.000 N 
ATOM     11  H   UNL     1       6.752   3.488  16.634  0.00  0.00    +0.000 HD
ATOM     12  H   UNL     1       5.418   2.463  16.461  0.00  0.00    +0.000 HD
ENDBRANCH   5  10
BRANCH   3  14
ATOM     13  C   UNL     1       1.331   3.780  19.287  0.00  0.00    +0.000 C 
ATOM     14  O   UNL     1       1.489   4.614  18.143  0.00  0.00    +0.000 OA
ENDBRANCH   3  14
ENDBRANCH   1   9
BRANCH   1  15
ATOM     15  O   UNL     1       1.814   8.192  17.863  0.00  0.00    +0.000 OA
BRANCH  15  16
ATOM     16  C   UNL     1       2.261   9.553  17.972  0.00  0.00    +0.000 C 
BRANCH  16  17
ATOM     17  C   UNL     1       1.022  10.428  18.251  0.00  0.00    +0.000 C 
BRANCH  17  18
ATOM     18  N   UNL     1      -0.052   9.812  19.046  0.00  0.00    +0.000 NA
ATOM     19  C   UNL     1      -0.041  10.304  20.439  0.00  0.00    +0.000 C 
ATOM     20  C   UNL     1      -0.518  11.765  20.599  0.00  0.00    +0.000 C 
ATOM     21  C   UNL     1      -0.589  12.161  22.073  0.00  0.00    +0.000 C 
ATOM     22  C   UNL     1      -1.877  11.977  19.917  0.00  0.00    +0.000 C 
ATOM     23  C   UNL     1      -1.850  11.462  18.472  0.00  0.00    +0.000 C 
ATOM     24  C   UNL     1      -3.210  11.607  17.798  0.00  0.00    +0.000 C 
ATOM     25  C   UNL     1      -1.389   9.995  18.463  0.00  0.00    +0.000 C 
ENDBRANCH  17  18
ENDBRANCH  16  17
ENDBRANCH  15  16
ENDBRANCH   1  15
TORSDOF 7
ENDMDL
MODEL 8
REMARK VINA RESULT:      -6.1      4.201      7.447
REMARK  Name = 
REMARK  10 active torsions:
REMARK  status: ('A' for Active; 'I' for Inactive)
REMARK    1  A    between atoms: C_1  and  O_2
REMARK    2  A    between atoms: O_2  and  C_3
REMARK    3  A    between atoms: C_5  and  N_6
REMARK    4  A    between atoms: C_10  and  C_11
REMARK    5  A    between atoms: C_11  and  O_13
REMARK    6  A    between atoms: O_13  and  C_14
REMARK    7  A    between atoms: C_14  and  C_15
REMARK    8  A    between atoms: C_15  and  N_16
REMARK    9  A    between atoms: C_18  and  C_19
REMARK   10  A    between atoms: C_21  and  C_22
REMARK                            x       y       z     vdW  Elec       q    Type
REMARK                         _______ _______ _______ _____ _____    ______ ____
ROOT
ATOM      1  C   UNL     1       3.243   7.144  17.977  0.00  0.00    +0.000 C 
ATOM      2  O   UNL     1       4.153   7.679  17.366  0.00  0.00    +0.000 OA
ENDROOT
BRANCH   1   9
ATOM      3  C   UNL     1       3.901   4.706  17.452  0.00  0.00    +0.000 A 
ATOM      4  C   UNL     1       3.652   3.341  17.668  0.00  0.00    +0.000 A 
ATOM      5  C   UNL     1       2.708   2.903  18.600  0.00  0.00    +0.000 A 
ATOM      6  C   UNL     1       1.936   3.865  19.265  0.00  0.00    +0.000 A 
ATOM      7 CL   UNL     1       0.709   3.385  20.385  0.00  0.00    +0.000 Cl
ATOM      8  C   UNL     1       2.163   5.227  19.068  0.00  0.00    +0.000 A 
ATOM      9  C   UNL     1       3.158   5.666  18.173  0.00  0.00    +0.000 A 
BRANCH   5  10
ATOM     10  N   UNL     1       2.422   1.527  18.670  0.00  0.00    +0.000 N 
ATOM     11  H   UNL     1       2.932   0.956  18.004  0.00  0.00    +0.000 HD
ATOM     12  H   UNL     1       2.477   1.162  19.620  0.00  0.00    +0.000 HD
ENDBRANCH   5  10
BRANCH   3  14
ATOM     13  C   UNL     1       6.170   4.573  16.728  0.00  0.00    +0.000 C 
ATOM     14  O   UNL     1       4.866   5.126  16.576  0.00  0.00    +0.000 OA
ENDBRANCH   3  14
ENDBRANCH   1   9
BRANCH   1  15
ATOM     15  O   UNL     1       2.299   7.805  18.683  0.00  0.00    +0.000 OA
BRANCH  15  16
ATOM     16  C   UNL     1       1.501   8.700  17.891  0.00  0.00    +0.000 C 
BRANCH  16  17
ATOM     17  C   UNL     1       1.659  10.114  18.485  0.00  0.00    +0.000 C 
BRANCH  17  18
ATOM     18  N   UNL     1       0.705  10.495  19.538  0.00  0.00    +0.000 NA
ATOM     19  C   UNL     1       0.671  11.960  19.729  0.00  0.00    +0.000 C 
ATOM     20  C   UNL     1      -0.015  12.733  18.582  0.00  0.00    +0.000 C 
ATOM     21  C   UNL     1      -0.115  14.223  18.906  0.00  0.00    +0.000 C 
ATOM     22  C   UNL     1      -1.405  12.151  18.281  0.00  0.00    +0.000 C 
ATOM     23  C   UNL     1      -1.330  10.632  18.081  0.00  0.00    +0.000 C 
ATOM     24  C   UNL     1      -2.709  10.028  17.843  0.00  0.00    +0.000 C 
ATOM     25  C   UNL     1      -0.655   9.991  19.304  0.00  0.00    +0.000 C 
ENDBRANCH  17  18
ENDBRANCH  16  17
ENDBRANCH  15  16
ENDBRANCH   1  15
TORSDOF 7
ENDMDL
MODEL 9
REMARK VINA RESULT:      -6.1      3.930      7.314
REMARK  Name = 
REMARK  10 active torsions:
REMARK  status: ('A' for Active; 'I' for Inactive)
REMARK    1  A    between atoms: C_1  and  O_2
REMARK    2  A    between atoms: O_2  and  C_3
REMARK    3  A    between atoms: C_5  and  N_6
REMARK    4  A    between atoms: C_10  and  C_11
REMARK    5  A    between atoms: C_11  and  O_13
REMARK    6  A    between atoms: O_13  and  C_14
REMARK    7  A    between atoms: C_14  and  C_15
REMARK    8  A    between atoms: C_15  and  N_16
REMARK    9  A    between atoms: C_18  and  C_19
REMARK   10  A    between atoms: C_21  and  C_22
REMARK                            x       y       z     vdW  Elec       q    Type
REMARK                         _______ _______ _______ _____ _____    ______ ____
ROOT
ATOM      1  C   UNL     1       2.805   6.166  18.812  0.00  0.00    +0.000 C 
ATOM      2  O   UNL     1       2.346   5.440  19.678  0.00  0.00    +0.000 OA
ENDROOT
BRANCH   1   9
ATOM      3  C   UNL     1       3.980   4.565  17.165  0.00  0.00    +0.000 A 
ATOM      4  C   UNL     1       5.147   4.253  16.449  0.00  0.00    +0.000 A 
ATOM      5  C   UNL     1       6.256   5.101  16.441  0.00  0.00    +0.000 A 
ATOM      6  C   UNL     1       6.220   6.248  17.246  0.00  0.00    +0.000 A 
ATOM      7 CL   UNL     1       7.585   7.305  17.329  0.00  0.00    +0.000 Cl
ATOM      8  C   UNL     1       5.074   6.580  17.969  0.00  0.00    +0.000 A 
ATOM      9  C   UNL     1       3.935   5.755  17.925  0.00  0.00    +0.000 A 
BRANCH   5  10
ATOM     10  N   UNL     1       7.433   4.662  15.807  0.00  0.00    +0.000 N 
ATOM     11  H   UNL     1       8.271   4.736  16.376  0.00  0.00    +0.000 HD
ATOM     12  H   UNL     1       7.330   3.743  15.381  0.00  0.00    +0.000 HD
ENDBRANCH   5  10
BRANCH   3  14
ATOM     13  C   UNL     1       2.993   2.465  17.718  0.00  0.00    +0.000 C 
ATOM     14  O   UNL     1       2.877   3.755  17.123  0.00  0.00    +0.000 OA
ENDBRANCH   3  14
ENDBRANCH   1   9
BRANCH   1  15
ATOM     15  O   UNL     1       2.266   7.346  18.433  0.00  0.00    +0.000 OA
BRANCH  15  16
ATOM     16  C   UNL     1       1.890   8.192  19.532  0.00  0.00    +0.000 C 
BRANCH  16  17
ATOM     17  C   UNL     1       1.238   9.459  18.941  0.00  0.00    +0.000 C 
BRANCH  17  18
ATOM     18  N   UNL     1       0.493  10.314  19.880  0.00  0.00    +0.000 NA
ATOM     19  C   UNL     1       1.077  11.669  19.953  0.00  0.00    +0.000 C 
ATOM     20  C   UNL     1       0.834  12.533  18.697  0.00  0.00    +0.000 C 
ATOM     21  C   UNL     1       1.364  13.952  18.895  0.00  0.00    +0.000 C 
ATOM     22  C   UNL     1      -0.657  12.559  18.328  0.00  0.00    +0.000 C 
ATOM     23  C   UNL     1      -1.227  11.137  18.253  0.00  0.00    +0.000 C 
ATOM     24  C   UNL     1      -2.721  11.146  17.950  0.00  0.00    +0.000 C 
ATOM     25  C   UNL     1      -0.942  10.405  19.574  0.00  0.00    +0.000 C 
ENDBRANCH  17  18
ENDBRANCH  16  17
ENDBRANCH  15  16
ENDBRANCH   1  15
TORSDOF 7
ENDMDL
