MODEL 1
REMARK VINA RESULT:      -7.5      0.000      0.000
REMARK  Name = 
REMARK  12 active torsions:
REMARK  status: ('A' for Active; 'I' for Inactive)
REMARK    1  A    between atoms: C_1  and  N_2
REMARK    2  A    between atoms: N_2  and  C_3
REMARK    3  A    between atoms: C_3  and  C_4
REMARK    4  A    between atoms: C_3  and  C_16
REMARK    5  A    between atoms: C_4  and  C_5
REMARK    6  A    between atoms: C_5  and  C_6
REMARK    7  A    between atoms: C_6  and  C_7
REMARK    8  A    between atoms: C_7  and  C_8
REMARK    9  A    between atoms: C_8  and  C_9
REMARK   10  A    between atoms: C_9  and  C_10
REMARK   11  A    between atoms: C_16  and  C_17
REMARK   12  A    between atoms: C_17  and  C_18
REMARK                            x       y       z     vdW  Elec       q    Type
REMARK                         _______ _______ _______ _____ _____    ______ ____
ROOT
ATOM      1  C   UNL     1       5.909   4.709  16.391  0.00  0.00    +0.000 C 
ENDROOT
BRANCH   1   3
ATOM      2  C   UNL     1       6.785   4.645  14.096  0.00  0.00    +0.000 C 
ATOM      3  N   UNL     1       5.619   4.518  14.959  0.00  0.00    +0.000 NA
ATOM      4  H   UNL     1       5.228   3.588  14.819  0.00  0.00    +0.000 HD
ENDBRANCH   1   3
BRANCH   1   5
ATOM      5  C   UNL     1       6.954   5.815  16.668  0.00  0.00    +0.000 C 
BRANCH   5   6
ATOM      6  C   UNL     1       7.570   5.738  18.067  0.00  0.00    +0.000 C 
BRANCH   6   7
ATOM      7  C   UNL     1       8.070   7.098  18.533  0.00  0.00    +0.000 C 
BRANCH   7   8
ATOM      8  C   UNL     1       7.654   8.180  17.536  0.00  0.00    +0.000 C 
BRANCH   8   9
ATOM      9  C   UNL     1       8.242   9.549  17.866  0.00  0.00    +0.000 C 
BRANCH   9  10
ATOM     10  C   UNL     1       9.062   9.541  19.158  0.00  0.00    +0.000 C 
BRANCH  10  11
ATOM     11  C   UNL     1       9.772  10.850  19.353  0.00  0.00    +0.000 A 
ATOM     12  C   UNL     1      10.484  11.426  18.295  0.00  0.00    +0.000 A 
ATOM     13  C   UNL     1      11.169  12.624  18.480  0.00  0.00    +0.000 A 
ATOM     14  C   UNL     1      11.151  13.251  19.725  0.00  0.00    +0.000 A 
ATOM     15  C   UNL     1      10.449  12.682  20.785  0.00  0.00    +0.000 A 
ATOM     16  C   UNL     1       9.762  11.484  20.604  0.00  0.00    +0.000 A 
ENDBRANCH  10  11
ENDBRANCH   9  10
ENDBRANCH   8   9
ENDBRANCH   7   8
ENDBRANCH   6   7
ENDBRANCH   5   6
ENDBRANCH   1   5
BRANCH   1  17
ATOM     17  C   UNL     1       4.596   5.029  17.146  0.00  0.00    +0.000 C 
BRANCH  17  18
ATOM     18  C   UNL     1       3.538   3.928  17.051  0.00  0.00    +0.000 C 
BRANCH  18  19
ATOM     19  C   UNL     1       2.631   3.932  18.256  0.00  0.00    +0.000 A 
ATOM     20  C   UNL     1       1.688   2.910  18.432  0.00  0.00    +0.000 A 
ATOM     21  C   UNL     1       0.848   2.906  19.545  0.00  0.00    +0.000 A 
ATOM     22  C   UNL     1       0.937   3.929  20.486  0.00  0.00    +0.000 A 
ATOM     23  C   UNL     1       1.860   4.959  20.310  0.00  0.00    +0.000 A 
ATOM     24  C   UNL     1       2.701   4.964  19.198  0.00  0.00    +0.000 A 
ENDBRANCH  18  19
ENDBRANCH  17  18
ENDBRANCH   1  17
TORSDOF 11
ENDMDL
MODEL 2
REMARK VINA RESULT:      -7.4      3.598      6.488
REMARK  Name = 
REMARK  12 active torsions:
REMARK  status: ('A' for Active; 'I' for Inactive)
REMARK    1  A    between atoms: C_1  and  N_2
REMARK    2  A    between atoms: N_2  and  C_3
REMARK    3  A    between atoms: C_3  and  C_4
REMARK    4  A    between atoms: C_3  and  C_16
REMARK    5  A    between atoms: C_4  and  C_5
REMARK    6  A    between atoms: C_5  and  C_6
REMARK    7  A    between atoms: C_6  and  C_7
REMARK    8  A    between atoms: C_7  and  C_8
REMARK    9  A    between atoms: C_8  and  C_9
REMARK   10  A    between atoms: C_9  and  C_10
REMARK   11  A    between atoms: C_16  and  C_17
REMARK   12  A    between atoms: C_17  and  C_18
REMARK                            x       y       z     vdW  Elec       q    Type
REMARK                         _______ _______ _______ _____ _____    ______ ____
ROOT
ATOM      1  C   UNL     1       2.030   4.071  20.544  0.00  0.00    +0.000 C 
ENDROOT
BRANCH   1   3
ATOM      2  C   UNL     1       1.576   2.241  22.120  0.00  0.00    +0.000 C 
ATOM      3  N   UNL     1       2.222   3.527  21.900  0.00  0.00    +0.000 NA
ATOM      4  H   UNL     1       3.219   3.408  22.074  0.00  0.00    +0.000 HD
ENDBRANCH   1   3
BRANCH   1   5
ATOM      5  C   UNL     1       0.828   3.451  19.793  0.00  0.00    +0.000 C 
BRANCH   5   6
ATOM      6  C   UNL     1       1.054   3.310  18.287  0.00  0.00    +0.000 C 
BRANCH   6   7
ATOM      7  C   UNL     1       2.431   2.735  17.979  0.00  0.00    +0.000 C 
BRANCH   7   8
ATOM      8  C   UNL     1       3.193   3.673  17.043  0.00  0.00    +0.000 C 
BRANCH   8   9
ATOM      9  C   UNL     1       4.707   3.584  17.220  0.00  0.00    +0.000 C 
BRANCH   9  10
ATOM     10  C   UNL     1       5.181   4.176  18.549  0.00  0.00    +0.000 C 
BRANCH  10  11
ATOM     11  C   UNL     1       6.060   5.372  18.322  0.00  0.00    +0.000 A 
ATOM     12  C   UNL     1       5.700   6.338  17.376  0.00  0.00    +0.000 A 
ATOM     13  C   UNL     1       6.527   7.433  17.139  0.00  0.00    +0.000 A 
ATOM     14  C   UNL     1       7.723   7.565  17.843  0.00  0.00    +0.000 A 
ATOM     15  C   UNL     1       8.092   6.606  18.783  0.00  0.00    +0.000 A 
ATOM     16  C   UNL     1       7.267   5.509  19.023  0.00  0.00    +0.000 A 
ENDBRANCH  10  11
ENDBRANCH   9  10
ENDBRANCH   8   9
ENDBRANCH   7   8
ENDBRANCH   6   7
ENDBRANCH   5   6
ENDBRANCH   1   5
BRANCH   1  17
ATOM     17  C   UNL     1       1.863   5.608  20.623  0.00  0.00    +0.000 C 
BRANCH  17  18
ATOM     18  C   UNL     1       2.701   6.380  19.603  0.00  0.00    +0.000 C 
BRANCH  18  19
ATOM     19  C   UNL     1       2.109   7.738  19.319  0.00  0.00    +0.000 A 
ATOM     20  C   UNL     1       2.277   8.331  18.061  0.00  0.00    +0.000 A 
ATOM     21  C   UNL     1       1.730   9.586  17.791  0.00  0.00    +0.000 A 
ATOM     22  C   UNL     1       1.019  10.260  18.781  0.00  0.00    +0.000 A 
ATOM     23  C   UNL     1       0.861   9.685  20.041  0.00  0.00    +0.000 A 
ATOM     24  C   UNL     1       1.407   8.431  20.312  0.00  0.00    +0.000 A 
ENDBRANCH  18  19
ENDBRANCH  17  18
ENDBRANCH   1  17
TORSDOF 11
ENDMDL
MODEL 3
REMARK VINA RESULT:      -7.4      4.718      8.432
REMARK  Name = 
REMARK  12 active torsions:
REMARK  status: ('A' for Active; 'I' for Inactive)
REMARK    1  A    between atoms: C_1  and  N_2
REMARK    2  A    between atoms: N_2  and  C_3
REMARK    3  A    between atoms: C_3  and  C_4
REMARK    4  A    between atoms: C_3  and  C_16
REMARK    5  A    between atoms: C_4  and  C_5
REMARK    6  A    between atoms: C_5  and  C_6
REMARK    7  A    between atoms: C_6  and  C_7
REMARK    8  A    between atoms: C_7  and  C_8
REMARK    9  A    between atoms: C_8  and  C_9
REMARK   10  A    between atoms: C_9  and  C_10
REMARK   11  A    between atoms: C_16  and  C_17
REMARK   12  A    between atoms: C_17  and  C_18
REMARK                            x       y       z     vdW  Elec       q    Type
REMARK                         _______ _______ _______ _____ _____    ______ ____
ROOT
ATOM      1  C   UNL     1       5.535   5.043  17.866  0.00  0.00    +0.000 C 
ENDROOT
BRANCH   1   3
ATOM      2  C   UNL     1       7.939   4.537  17.816  0.00  0.00    +0.000 C 
ATOM      3  N   UNL     1       6.905   5.506  18.152  0.00  0.00    +0.000 NA
ATOM      4  H   UNL     1       7.088   6.354  17.619  0.00  0.00    +0.000 HD
ENDBRANCH   1   3
BRANCH   1   5
ATOM      5  C   UNL     1       4.462   5.694  18.770  0.00  0.00    +0.000 C 
BRANCH   5   6
ATOM      6  C   UNL     1       3.530   6.651  18.023  0.00  0.00    +0.000 C 
BRANCH   6   7
ATOM      7  C   UNL     1       2.308   7.006  18.858  0.00  0.00    +0.000 C 
BRANCH   7   8
ATOM      8  C   UNL     1       2.345   6.254  20.189  0.00  0.00    +0.000 C 
BRANCH   8   9
ATOM      9  C   UNL     1       1.085   5.431  20.440  0.00  0.00    +0.000 C 
BRANCH   9  10
ATOM     10  C   UNL     1       1.395   4.020  20.946  0.00  0.00    +0.000 C 
BRANCH  10  11
ATOM     11  C   UNL     1       2.139   3.227  19.909  0.00  0.00    +0.000 A 
ATOM     12  C   UNL     1       3.358   2.620  20.231  0.00  0.00    +0.000 A 
ATOM     13  C   UNL     1       4.066   1.911  19.265  0.00  0.00    +0.000 A 
ATOM     14  C   UNL     1       3.563   1.809  17.969  0.00  0.00    +0.000 A 
ATOM     15  C   UNL     1       2.353   2.414  17.638  0.00  0.00    +0.000 A 
ATOM     16  C   UNL     1       1.640   3.124  18.602  0.00  0.00    +0.000 A 
ENDBRANCH  10  11
ENDBRANCH   9  10
ENDBRANCH   8   9
ENDBRANCH   7   8
ENDBRANCH   6   7
ENDBRANCH   5   6
ENDBRANCH   1   5
BRANCH   1  17
ATOM     17  C   UNL     1       5.199   5.311  16.379  0.00  0.00    +0.000 C 
BRANCH  17  18
ATOM     18  C   UNL     1       5.093   4.046  15.526  0.00  0.00    +0.000 C 
BRANCH  18  19
ATOM     19  C   UNL     1       5.903   4.168  14.259  0.00  0.00    +0.000 A 
ATOM     20  C   UNL     1       5.559   3.416  13.127  0.00  0.00    +0.000 A 
ATOM     21  C   UNL     1       6.302   3.526  11.952  0.00  0.00    +0.000 A 
ATOM     22  C   UNL     1       7.401   4.379  11.903  0.00  0.00    +0.000 A 
ATOM     23  C   UNL     1       7.762   5.117  13.029  0.00  0.00    +0.000 A 
ATOM     24  C   UNL     1       7.019   5.010  14.205  0.00  0.00    +0.000 A 
ENDBRANCH  18  19
ENDBRANCH  17  18
ENDBRANCH   1  17
TORSDOF 11
ENDMDL
MODEL 4
REMARK VINA RESULT:      -7.3      0.833      1.064
REMARK  Name = 
REMARK  12 active torsions:
REMARK  status: ('A' for Active; 'I' for Inactive)
REMARK    1  A    between atoms: C_1  and  N_2
REMARK    2  A    between atoms: N_2  and  C_3
REMARK    3  A    between atoms: C_3  and  C_4
REMARK    4  A    between atoms: C_3  and  C_16
REMARK    5  A    between atoms: C_4  and  C_5
REMARK    6  A    between atoms: C_5  and  C_6
REMARK    7  A    between atoms: C_6  and  C_7
REMARK    8  A    between atoms: C_7  and  C_8
REMARK    9  A    between atoms: C_8  and  C_9
REMARK   10  A    between atoms: C_9  and  C_10
REMARK   11  A    between atoms: C_16  and  C_17
REMARK   12  A    between atoms: C_17  and  C_18
REMARK                            x       y       z     vdW  Elec       q    Type
REMARK                         _______ _______ _______ _____ _____    ______ ____
ROOT
ATOM      1  C   UNL     1       6.208   4.388  16.436  0.00  0.00    +0.000 C 
ENDROOT
BRANCH   1   3
ATOM      2  C   UNL     1       6.171   3.798  14.051  0.00  0.00    +0.000 C 
ATOM      3  N   UNL     1       6.138   3.318  15.425  0.00  0.00    +0.000 NA
ATOM      4  H   UNL     1       6.926   2.686  15.554  0.00  0.00    +0.000 HD
ENDBRANCH   1   3
BRANCH   1   5
ATOM      5  C   UNL     1       5.893   5.793  15.872  0.00  0.00    +0.000 C 
BRANCH   5   6
ATOM      6  C   UNL     1       5.676   6.853  16.955  0.00  0.00    +0.000 C 
BRANCH   6   7
ATOM      7  C   UNL     1       6.894   7.753  17.108  0.00  0.00    +0.000 C 
BRANCH   7   8
ATOM      8  C   UNL     1       7.831   7.188  18.176  0.00  0.00    +0.000 C 
BRANCH   8   9
ATOM      9  C   UNL     1       8.688   8.262  18.841  0.00  0.00    +0.000 C 
BRANCH   9  10
ATOM     10  C   UNL     1       8.504   9.641  18.201  0.00  0.00    +0.000 C 
BRANCH  10  11
ATOM     11  C   UNL     1       9.453  10.641  18.797  0.00  0.00    +0.000 A 
ATOM     12  C   UNL     1      10.374  11.307  17.981  0.00  0.00    +0.000 A 
ATOM     13  C   UNL     1      11.277  12.212  18.533  0.00  0.00    +0.000 A 
ATOM     14  C   UNL     1      11.269  12.452  19.906  0.00  0.00    +0.000 A 
ATOM     15  C   UNL     1      10.359  11.789  20.727  0.00  0.00    +0.000 A 
ATOM     16  C   UNL     1       9.454  10.883  20.179  0.00  0.00    +0.000 A 
ENDBRANCH  10  11
ENDBRANCH   9  10
ENDBRANCH   8   9
ENDBRANCH   7   8
ENDBRANCH   6   7
ENDBRANCH   5   6
ENDBRANCH   1   5
BRANCH   1  17
ATOM     17  C   UNL     1       5.243   4.063  17.601  0.00  0.00    +0.000 C 
BRANCH  17  18
ATOM     18  C   UNL     1       3.908   3.463  17.157  0.00  0.00    +0.000 C 
BRANCH  18  19
ATOM     19  C   UNL     1       2.866   3.576  18.242  0.00  0.00    +0.000 A 
ATOM     20  C   UNL     1       1.741   2.739  18.229  0.00  0.00    +0.000 A 
ATOM     21  C   UNL     1       0.776   2.837  19.230  0.00  0.00    +0.000 A 
ATOM     22  C   UNL     1       0.921   3.779  20.246  0.00  0.00    +0.000 A 
ATOM     23  C   UNL     1       2.027   4.628  20.257  0.00  0.00    +0.000 A 
ATOM     24  C   UNL     1       2.995   4.530  19.257  0.00  0.00    +0.000 A 
ENDBRANCH  18  19
ENDBRANCH  17  18
ENDBRANCH   1  17
TORSDOF 11
ENDMDL
MODEL 5
REMARK VINA RESULT:      -7.2      3.548      6.130
REMARK  Name = 
REMARK  12 active torsions:
REMARK  status: ('A' for Active; 'I' for Inactive)
REMARK    1  A    between atoms: C_1  and  N_2
REMARK    2  A    between atoms: N_2  and  C_3
REMARK    3  A    between atoms: C_3  and  C_4
REMARK    4  A    between atoms: C_3  and  C_16
REMARK    5  A    between atoms: C_4  and  C_5
REMARK    6  A    between atoms: C_5  and  C_6
REMARK    7  A    between atoms: C_6  and  C_7
REMARK    8  A    between atoms: C_7  and  C_8
REMARK    9  A    between atoms: C_8  and  C_9
REMARK   10  A    between atoms: C_9  and  C_10
REMARK   11  A    between atoms: C_16  and  C_17
REMARK   12  A    between atoms: C_17  and  C_18
REMARK                            x       y       z     vdW  Elec       q    Type
REMARK                         _______ _______ _______ _____ _____    ______ ____
ROOT
ATOM      1  C   UNL     1       2.976   4.740  19.448  0.00  0.00    +0.000 C 
ENDROOT
BRANCH   1   3
ATOM      2  C   UNL     1       1.458   3.438  20.875  0.00  0.00    +0.000 C 
ATOM      3  N   UNL     1       2.311   4.612  20.756  0.00  0.00    +0.000 NA
ATOM      4  H   UNL     1       3.019   4.558  21.486  0.00  0.00    +0.000 HD
ENDBRANCH   1   3
BRANCH   1   5
ATOM      5  C   UNL     1       2.050   4.427  18.249  0.00  0.00    +0.000 C 
BRANCH   5   6
ATOM      6  C   UNL     1       2.587   3.327  17.331  0.00  0.00    +0.000 C 
BRANCH   6   7
ATOM      7  C   UNL     1       4.108   3.348  17.264  0.00  0.00    +0.000 C 
BRANCH   7   8
ATOM      8  C   UNL     1       4.569   4.198  16.080  0.00  0.00    +0.000 C 
BRANCH   8   9
ATOM      9  C   UNL     1       5.804   3.628  15.388  0.00  0.00    +0.000 C 
BRANCH   9  10
ATOM     10  C   UNL     1       6.899   4.677  15.178  0.00  0.00    +0.000 C 
BRANCH  10  11
ATOM     11  C   UNL     1       7.267   5.337  16.477  0.00  0.00    +0.000 A 
ATOM     12  C   UNL     1       7.602   4.557  17.589  0.00  0.00    +0.000 A 
ATOM     13  C   UNL     1       7.913   5.163  18.804  0.00  0.00    +0.000 A 
ATOM     14  C   UNL     1       7.886   6.552  18.914  0.00  0.00    +0.000 A 
ATOM     15  C   UNL     1       7.549   7.336  17.813  0.00  0.00    +0.000 A 
ATOM     16  C   UNL     1       7.237   6.734  16.596  0.00  0.00    +0.000 A 
ENDBRANCH  10  11
ENDBRANCH   9  10
ENDBRANCH   8   9
ENDBRANCH   7   8
ENDBRANCH   6   7
ENDBRANCH   5   6
ENDBRANCH   1   5
BRANCH   1  17
ATOM     17  C   UNL     1       3.559   6.167  19.301  0.00  0.00    +0.000 C 
BRANCH  17  18
ATOM     18  C   UNL     1       2.931   6.984  18.172  0.00  0.00    +0.000 C 
BRANCH  18  19
ATOM     19  C   UNL     1       2.142   8.152  18.710  0.00  0.00    +0.000 A 
ATOM     20  C   UNL     1       1.635   8.117  20.017  0.00  0.00    +0.000 A 
ATOM     21  C   UNL     1       0.908   9.195  20.522  0.00  0.00    +0.000 A 
ATOM     22  C   UNL     1       0.673  10.310  19.721  0.00  0.00    +0.000 A 
ATOM     23  C   UNL     1       1.158  10.346  18.415  0.00  0.00    +0.000 A 
ATOM     24  C   UNL     1       1.887   9.270  17.909  0.00  0.00    +0.000 A 
ENDBRANCH  18  19
ENDBRANCH  17  18
ENDBRANCH   1  17
TORSDOF 11
ENDMDL
MODEL 6
REMARK VINA RESULT:      -7.2      4.156      8.001
REMARK  Name = 
REMARK  12 active torsions:
REMARK  status: ('A' for Active; 'I' for Inactive)
REMARK    1  A    between atoms: C_1  and  N_2
REMARK    2  A    between atoms: N_2  and  C_3
REMARK    3  A    between atoms: C_3  and  C_4
REMARK    4  A    between atoms: C_3  and  C_16
REMARK    5  A    between atoms: C_4  and  C_5
REMARK    6  A    between atoms: C_5  and  C_6
REMARK    7  A    between atoms: C_6  and  C_7
REMARK    8  A    between atoms: C_7  and  C_8
REMARK    9  A    between atoms: C_8  and  C_9
REMARK   10  A    between atoms: C_9  and  C_10
REMARK   11  A    between atoms: C_16  and  C_17
REMARK   12  A    between atoms: C_17  and  C_18
REMARK                            x       y       z     vdW  Elec       q    Type
REMARK                         _______ _______ _______ _____ _____    ______ ____
ROOT
ATOM      1  C   UNL     1       6.394   4.361  17.915  0.00  0.00    +0.000 C 
ENDROOT
BRANCH   1   3
ATOM      2  C   UNL     1       7.572   5.626  19.661  0.00  0.00    +0.000 C 
ATOM      3  N   UNL     1       7.674   4.907  18.400  0.00  0.00    +0.000 NA
ATOM      4  H   UNL     1       8.334   4.142  18.530  0.00  0.00    +0.000 HD
ENDBRANCH   1   3
BRANCH   1   5
ATOM      5  C   UNL     1       5.326   4.211  19.023  0.00  0.00    +0.000 C 
BRANCH   5   6
ATOM      6  C   UNL     1       4.455   2.963  18.868  0.00  0.00    +0.000 C 
BRANCH   6   7
ATOM      7  C   UNL     1       4.319   2.209  20.184  0.00  0.00    +0.000 C 
BRANCH   7   8
ATOM      8  C   UNL     1       3.203   2.825  21.028  0.00  0.00    +0.000 C 
BRANCH   8   9
ATOM      9  C   UNL     1       1.810   2.404  20.566  0.00  0.00    +0.000 C 
BRANCH   9  10
ATOM     10  C   UNL     1       0.830   3.577  20.507  0.00  0.00    +0.000 C 
BRANCH  10  11
ATOM     11  C   UNL     1       1.424   4.738  19.760  0.00  0.00    +0.000 A 
ATOM     12  C   UNL     1       1.604   4.661  18.375  0.00  0.00    +0.000 A 
ATOM     13  C   UNL     1       2.183   5.721  17.682  0.00  0.00    +0.000 A 
ATOM     14  C   UNL     1       2.590   6.862  18.372  0.00  0.00    +0.000 A 
ATOM     15  C   UNL     1       2.419   6.945  19.751  0.00  0.00    +0.000 A 
ATOM     16  C   UNL     1       1.840   5.887  20.448  0.00  0.00    +0.000 A 
ENDBRANCH  10  11
ENDBRANCH   9  10
ENDBRANCH   8   9
ENDBRANCH   7   8
ENDBRANCH   6   7
ENDBRANCH   5   6
ENDBRANCH   1   5
BRANCH   1  17
ATOM     17  C   UNL     1       5.847   5.260  16.779  0.00  0.00    +0.000 C 
BRANCH  17  18
ATOM     18  C   UNL     1       5.051   4.504  15.714  0.00  0.00    +0.000 C 
BRANCH  18  19
ATOM     19  C   UNL     1       5.825   4.396  14.423  0.00  0.00    +0.000 A 
ATOM     20  C   UNL     1       6.994   5.147  14.237  0.00  0.00    +0.000 A 
ATOM     21  C   UNL     1       7.715   5.050  13.047  0.00  0.00    +0.000 A 
ATOM     22  C   UNL     1       7.268   4.209  12.031  0.00  0.00    +0.000 A 
ATOM     23  C   UNL     1       6.097   3.472  12.200  0.00  0.00    +0.000 A 
ATOM     24  C   UNL     1       5.375   3.567  13.390  0.00  0.00    +0.000 A 
ENDBRANCH  18  19
ENDBRANCH  17  18
ENDBRANCH   1  17
TORSDOF 11
ENDMDL
MODEL 7
REMARK VINA RESULT:      -7.2      2.920      7.604
REMARK  Name = 
REMARK  12 active torsions:
REMARK  status: ('A' for Active; 'I' for Inactive)
REMARK    1  A    between atoms: C_1  and  N_2
REMARK    2  A    between atoms: N_2  and  C_3
REMARK    3  A    between atoms: C_3  and  C_4
REMARK    4  A    between atoms: C_3  and  C_16
REMARK    5  A    between atoms: C_4  and  C_5
REMARK    6  A    between atoms: C_5  and  C_6
REMARK    7  A    between atoms: C_6  and  C_7
REMARK    8  A    between atoms: C_7  and  C_8
REMARK    9  A    between atoms: C_8  and  C_9
REMARK   10  A    between atoms: C_9  and  C_10
REMARK   11  A    between atoms: C_16  and  C_17
REMARK   12  A    between atoms: C_17  and  C_18
REMARK                            x       y       z     vdW  Elec       q    Type
REMARK                         _______ _______ _______ _____ _____    ______ ____
ROOT
ATOM      1  C   UNL     1       6.814   6.499  16.696  0.00  0.00    +0.000 C 
ENDROOT
BRANCH   1   3
ATOM      2  C   UNL     1       7.707   8.563  17.687  0.00  0.00    +0.000 C 
ATOM      3  N   UNL     1       8.005   7.309  17.010  0.00  0.00    +0.000 NA
ATOM      4  H   UNL     1       8.626   6.771  17.611  0.00  0.00    +0.000 HD
ENDBRANCH   1   3
BRANCH   1   5
ATOM      5  C   UNL     1       7.098   4.980  16.638  0.00  0.00    +0.000 C 
BRANCH   5   6
ATOM      6  C   UNL     1       6.761   4.346  15.286  0.00  0.00    +0.000 C 
BRANCH   6   7
ATOM      7  C   UNL     1       5.296   3.942  15.208  0.00  0.00    +0.000 C 
BRANCH   7   8
ATOM      8  C   UNL     1       4.830   3.393  16.557  0.00  0.00    +0.000 C 
BRANCH   8   9
ATOM      9  C   UNL     1       3.360   3.686  16.840  0.00  0.00    +0.000 C 
BRANCH   9  10
ATOM     10  C   UNL     1       2.624   2.485  17.439  0.00  0.00    +0.000 C 
BRANCH  10  11
ATOM     11  C   UNL     1       2.340   2.700  18.898  0.00  0.00    +0.000 A 
ATOM     12  C   UNL     1       3.357   2.528  19.844  0.00  0.00    +0.000 A 
ATOM     13  C   UNL     1       3.090   2.696  21.200  0.00  0.00    +0.000 A 
ATOM     14  C   UNL     1       1.804   3.032  21.619  0.00  0.00    +0.000 A 
ATOM     15  C   UNL     1       0.785   3.201  20.685  0.00  0.00    +0.000 A 
ATOM     16  C   UNL     1       1.047   3.034  19.327  0.00  0.00    +0.000 A 
ENDBRANCH  10  11
ENDBRANCH   9  10
ENDBRANCH   8   9
ENDBRANCH   7   8
ENDBRANCH   6   7
ENDBRANCH   5   6
ENDBRANCH   1   5
BRANCH   1  17
ATOM     17  C   UNL     1       5.706   6.786  17.739  0.00  0.00    +0.000 C 
BRANCH  17  18
ATOM     18  C   UNL     1       4.314   6.973  17.134  0.00  0.00    +0.000 C 
BRANCH  18  19
ATOM     19  C   UNL     1       3.287   7.271  18.199  0.00  0.00    +0.000 A 
ATOM     20  C   UNL     1       3.077   6.366  19.248  0.00  0.00    +0.000 A 
ATOM     21  C   UNL     1       2.132   6.637  20.237  0.00  0.00    +0.000 A 
ATOM     22  C   UNL     1       1.382   7.809  20.178  0.00  0.00    +0.000 A 
ATOM     23  C   UNL     1       1.572   8.707  19.129  0.00  0.00    +0.000 A 
ATOM     24  C   UNL     1       2.518   8.438  18.140  0.00  0.00    +0.000 A 
ENDBRANCH  18  19
ENDBRANCH  17  18
ENDBRANCH   1  17
TORSDOF 11
ENDMDL
MODEL 8
REMARK VINA RESULT:      -7.1      2.940      8.206
REMARK  Name = 
REMARK  12 active torsions:
REMARK  status: ('A' for Active; 'I' for Inactive)
REMARK    1  A    between atoms: C_1  and  N_2
REMARK    2  A    between atoms: N_2  and  C_3
REMARK    3  A    between atoms: C_3  and  C_4
REMARK    4  A    between atoms: C_3  and  C_16
REMARK    5  A    between atoms: C_4  and  C_5
REMARK    6  A    between atoms: C_5  and  C_6
REMARK    7  A    between atoms: C_6  and  C_7
REMARK    8  A    between atoms: C_7  and  C_8
REMARK    9  A    between atoms: C_8  and  C_9
REMARK   10  A    between atoms: C_9  and  C_10
REMARK   11  A    between atoms: C_16  and  C_17
REMARK   12  A    between atoms: C_17  and  C_18
REMARK                            x       y       z     vdW  Elec       q    Type
REMARK                         _______ _______ _______ _____ _____    ______ ____
ROOT
ATOM      1  C   UNL     1       5.998   6.681  17.645  0.00  0.00    +0.000 C 
ENDROOT
BRANCH   1   3
ATOM      2  C   UNL     1       7.856   8.287  17.726  0.00  0.00    +0.000 C 
ATOM      3  N   UNL     1       7.078   7.365  16.911  0.00  0.00    +0.000 NA
ATOM      4  H   UNL     1       7.718   6.668  16.534  0.00  0.00    +0.000 HD
ENDBRANCH   1   3
BRANCH   1   5
ATOM      5  C   UNL     1       4.610   6.827  16.979  0.00  0.00    +0.000 C 
BRANCH   5   6
ATOM      6  C   UNL     1       3.546   5.900  17.572  0.00  0.00    +0.000 C 
BRANCH   6   7
ATOM      7  C   UNL     1       2.622   6.647  18.524  0.00  0.00    +0.000 C 
BRANCH   7   8
ATOM      8  C   UNL     1       2.703   6.033  19.922  0.00  0.00    +0.000 C 
BRANCH   8   9
ATOM      9  C   UNL     1       1.348   5.552  20.436  0.00  0.00    +0.000 C 
BRANCH   9  10
ATOM     10  C   UNL     1       1.365   4.078  20.848  0.00  0.00    +0.000 C 
BRANCH  10  11
ATOM     11  C   UNL     1       2.152   3.255  19.868  0.00  0.00    +0.000 A 
ATOM     12  C   UNL     1       3.431   2.798  20.204  0.00  0.00    +0.000 A 
ATOM     13  C   UNL     1       4.177   2.061  19.288  0.00  0.00    +0.000 A 
ATOM     14  C   UNL     1       3.650   1.781  18.028  0.00  0.00    +0.000 A 
ATOM     15  C   UNL     1       2.380   2.236  17.683  0.00  0.00    +0.000 A 
ATOM     16  C   UNL     1       1.630   2.973  18.597  0.00  0.00    +0.000 A 
ENDBRANCH  10  11
ENDBRANCH   9  10
ENDBRANCH   8   9
ENDBRANCH   7   8
ENDBRANCH   6   7
ENDBRANCH   5   6
ENDBRANCH   1   5
BRANCH   1  17
ATOM     17  C   UNL     1       6.349   5.182  17.802  0.00  0.00    +0.000 C 
BRANCH  17  18
ATOM     18  C   UNL     1       7.445   4.695  16.853  0.00  0.00    +0.000 C 
BRANCH  18  19
ATOM     19  C   UNL     1       6.896   4.413  15.477  0.00  0.00    +0.000 A 
ATOM     20  C   UNL     1       5.699   3.698  15.328  0.00  0.00    +0.000 A 
ATOM     21  C   UNL     1       5.184   3.436  14.059  0.00  0.00    +0.000 A 
ATOM     22  C   UNL     1       5.867   3.878  12.928  0.00  0.00    +0.000 A 
ATOM     23  C   UNL     1       7.067   4.573  13.066  0.00  0.00    +0.000 A 
ATOM     24  C   UNL     1       7.583   4.837  14.334  0.00  0.00    +0.000 A 
ENDBRANCH  18  19
ENDBRANCH  17  18
ENDBRANCH   1  17
TORSDOF 11
ENDMDL
MODEL 9
REMARK VINA RESULT:      -7.0      4.720      6.386
REMARK  Name = 
REMARK  12 active torsions:
REMARK  status: ('A' for Active; 'I' for Inactive)
REMARK    1  A    between atoms: C_1  and  N_2
REMARK    2  A    between atoms: N_2  and  C_3
REMARK    3  A    between atoms: C_3  and  C_4
REMARK    4  A    between atoms: C_3  and  C_16
REMARK    5  A    between atoms: C_4  and  C_5
REMARK    6  A    between atoms: C_5  and  C_6
REMARK    7  A    between atoms: C_6  and  C_7
REMARK    8  A    between atoms: C_7  and  C_8
REMARK    9  A    between atoms: C_8  and  C_9
REMARK   10  A    between atoms: C_9  and  C_10
REMARK   11  A    between atoms: C_16  and  C_17
REMARK   12  A    between atoms: C_17  and  C_18
REMARK                            x       y       z     vdW  Elec       q    Type
REMARK                         _______ _______ _______ _____ _____    ______ ____
ROOT
ATOM      1  C   UNL     1       5.155   4.543  17.539  0.00  0.00    +0.000 C 
ENDROOT
BRANCH   1   3
ATOM      2  C   UNL     1       7.608   4.608  17.677  0.00  0.00    +0.000 C 
ATOM      3  N   UNL     1       6.369   4.103  18.250  0.00  0.00    +0.000 NA
ATOM      4  H   UNL     1       6.322   4.419  19.217  0.00  0.00    +0.000 HD
ENDBRANCH   1   3
BRANCH   1   5
ATOM      5  C   UNL     1       5.446   5.469  16.335  0.00  0.00    +0.000 C 
BRANCH   5   6
ATOM      6  C   UNL     1       4.704   6.806  16.398  0.00  0.00    +0.000 C 
BRANCH   6   7
ATOM      7  C   UNL     1       4.133   7.064  17.786  0.00  0.00    +0.000 C 
BRANCH   7   8
ATOM      8  C   UNL     1       2.642   7.391  17.687  0.00  0.00    +0.000 C 
BRANCH   8   9
ATOM      9  C   UNL     1       2.300   8.768  18.247  0.00  0.00    +0.000 C 
BRANCH   9  10
ATOM     10  C   UNL     1       0.937   9.275  17.770  0.00  0.00    +0.000 C 
BRANCH  10  11
ATOM     11  C   UNL     1       0.240  10.046  18.855  0.00  0.00    +0.000 A 
ATOM     12  C   UNL     1      -0.868  10.844  18.548  0.00  0.00    +0.000 A 
ATOM     13  C   UNL     1      -1.498  11.585  19.545  0.00  0.00    +0.000 A 
ATOM     14  C   UNL     1      -1.020  11.537  20.853  0.00  0.00    +0.000 A 
ATOM     15  C   UNL     1       0.085  10.750  21.167  0.00  0.00    +0.000 A 
ATOM     16  C   UNL     1       0.718  10.006  20.173  0.00  0.00    +0.000 A 
ENDBRANCH  10  11
ENDBRANCH   9  10
ENDBRANCH   8   9
ENDBRANCH   7   8
ENDBRANCH   6   7
ENDBRANCH   5   6
ENDBRANCH   1   5
BRANCH   1  17
ATOM     17  C   UNL     1       4.355   3.305  17.067  0.00  0.00    +0.000 C 
BRANCH  17  18
ATOM     18  C   UNL     1       2.844   3.425  17.269  0.00  0.00    +0.000 C 
BRANCH  18  19
ATOM     19  C   UNL     1       2.484   3.444  18.734  0.00  0.00    +0.000 A 
ATOM     20  C   UNL     1       3.136   2.585  19.630  0.00  0.00    +0.000 A 
ATOM     21  C   UNL     1       2.810   2.598  20.986  0.00  0.00    +0.000 A 
ATOM     22  C   UNL     1       1.824   3.463  21.455  0.00  0.00    +0.000 A 
ATOM     23  C   UNL     1       1.159   4.309  20.568  0.00  0.00    +0.000 A 
ATOM     24  C   UNL     1       1.484   4.297  19.212  0.00  0.00    +0.000 A 
ENDBRANCH  18  19
ENDBRANCH  17  18
ENDBRANCH   1  17
TORSDOF 11
ENDMDL
