MODEL 1
REMARK VINA RESULT:      -7.2      0.000      0.000
REMARK  Name = 
REMARK  2 active torsions:
REMARK  status: ('A' for Active; 'I' for Inactive)
REMARK    1  A    between atoms: C_1  and  N_2
REMARK    2  A    between atoms: C_6  and  C_7
REMARK                            x       y       z     vdW  Elec       q    Type
REMARK                         _______ _______ _______ _____ _____    ______ ____
ROOT
ATOM      1  C   UNL     1       7.358   5.088  14.489  0.00  0.00    +0.000 C 
ATOM      2  N   UNL     1       6.430   4.728  15.527  0.00  0.00    +0.000 N 
ATOM      3  C   UNL     1       5.223   4.111  15.356  0.00  0.00    +0.000 A 
ATOM      4  N   UNL     1       4.598   3.940  16.500  0.00  0.00    +0.000 NA
ATOM      5  C   UNL     1       5.442   4.470  17.458  0.00  0.00    +0.000 A 
ATOM      6  C   UNL     1       5.354   4.610  18.853  0.00  0.00    +0.000 A 
ATOM      7  N   UNL     1       6.388   5.216  19.512  0.00  0.00    +0.000 NA
ATOM      8  C   UNL     1       7.452   5.631  18.795  0.00  0.00    +0.000 A 
ATOM      9  N   UNL     1       7.642   5.549  17.465  0.00  0.00    +0.000 NA
ATOM     10  C   UNL     1       6.595   4.962  16.863  0.00  0.00    +0.000 A 
ENDROOT
BRANCH   6  11
ATOM     11  C   UNL     1       4.191   4.165  19.634  0.00  0.00    +0.000 A 
ATOM     12  C   UNL     1       3.161   5.049  20.012  0.00  0.00    +0.000 A 
ATOM     13  C   UNL     1       2.071   4.618  20.774  0.00  0.00    +0.000 A 
ATOM     14  C   UNL     1       1.994   3.290  21.166  0.00  0.00    +0.000 A 
ATOM     15  F   UNL     1       0.955   2.877  21.904  0.00  0.00    +0.000 F 
ATOM     16  C   UNL     1       2.981   2.385  20.803  0.00  0.00    +0.000 A 
ATOM     17  C   UNL     1       4.068   2.820  20.038  0.00  0.00    +0.000 A 
ENDBRANCH   6  11
TORSDOF 1
ENDMDL
MODEL 2
REMARK VINA RESULT:      -7.2      2.073      2.483
REMARK  Name = 
REMARK  2 active torsions:
REMARK  status: ('A' for Active; 'I' for Inactive)
REMARK    1  A    between atoms: C_1  and  N_2
REMARK    2  A    between atoms: C_6  and  C_7
REMARK                            x       y       z     vdW  Elec       q    Type
REMARK                         _______ _______ _______ _____ _____    ______ ____
ROOT
ATOM      1  C   UNL     1       8.113   5.328  13.177  0.00  0.00    +0.000 C 
ATOM      2  N   UNL     1       7.030   4.834  13.984  0.00  0.00    +0.000 N 
ATOM      3  C   UNL     1       6.082   3.928  13.602  0.00  0.00    +0.000 A 
ATOM      4  N   UNL     1       5.212   3.700  14.561  0.00  0.00    +0.000 NA
ATOM      5  C   UNL     1       5.617   4.496  15.617  0.00  0.00    +0.000 A 
ATOM      6  C   UNL     1       5.111   4.722  16.907  0.00  0.00    +0.000 A 
ATOM      7  N   UNL     1       5.762   5.614  17.714  0.00  0.00    +0.000 NA
ATOM      8  C   UNL     1       6.870   6.220  17.240  0.00  0.00    +0.000 A 
ATOM      9  N   UNL     1       7.440   6.082  16.028  0.00  0.00    +0.000 NA
ATOM     10  C   UNL     1       6.757   5.208  15.270  0.00  0.00    +0.000 A 
ENDROOT
BRANCH   6  11
ATOM     11  C   UNL     1       3.899   4.068  17.422  0.00  0.00    +0.000 A 
ATOM     12  C   UNL     1       3.829   2.675  17.624  0.00  0.00    +0.000 A 
ATOM     13  C   UNL     1       2.664   2.062  18.093  0.00  0.00    +0.000 A 
ATOM     14  C   UNL     1       1.549   2.838  18.371  0.00  0.00    +0.000 A 
ATOM     15  F   UNL     1       0.428   2.252  18.813  0.00  0.00    +0.000 F 
ATOM     16  C   UNL     1       1.582   4.215  18.198  0.00  0.00    +0.000 A 
ATOM     17  C   UNL     1       2.751   4.823  17.732  0.00  0.00    +0.000 A 
ENDBRANCH   6  11
TORSDOF 1
ENDMDL
MODEL 3
REMARK VINA RESULT:      -7.2      2.103      2.236
REMARK  Name = 
REMARK  2 active torsions:
REMARK  status: ('A' for Active; 'I' for Inactive)
REMARK    1  A    between atoms: C_1  and  N_2
REMARK    2  A    between atoms: C_6  and  C_7
REMARK                            x       y       z     vdW  Elec       q    Type
REMARK                         _______ _______ _______ _____ _____    ______ ____
ROOT
ATOM      1  C   UNL     1       8.136   5.319  13.110  0.00  0.00    +0.000 C 
ATOM      2  N   UNL     1       7.045   4.835  13.913  0.00  0.00    +0.000 N 
ATOM      3  C   UNL     1       6.078   3.953  13.520  0.00  0.00    +0.000 A 
ATOM      4  N   UNL     1       5.206   3.728  14.477  0.00  0.00    +0.000 NA
ATOM      5  C   UNL     1       5.629   4.501  15.544  0.00  0.00    +0.000 A 
ATOM      6  C   UNL     1       5.130   4.717  16.838  0.00  0.00    +0.000 A 
ATOM      7  N   UNL     1       5.800   5.585  17.657  0.00  0.00    +0.000 NA
ATOM      8  C   UNL     1       6.919   6.176  17.189  0.00  0.00    +0.000 A 
ATOM      9  N   UNL     1       7.484   6.044  15.974  0.00  0.00    +0.000 NA
ATOM     10  C   UNL     1       6.782   5.195  15.205  0.00  0.00    +0.000 A 
ENDROOT
BRANCH   6  11
ATOM     11  C   UNL     1       3.907   4.080  17.346  0.00  0.00    +0.000 A 
ATOM     12  C   UNL     1       2.718   4.806  17.558  0.00  0.00    +0.000 A 
ATOM     13  C   UNL     1       1.567   4.192  18.062  0.00  0.00    +0.000 A 
ATOM     14  C   UNL     1       1.590   2.838  18.359  0.00  0.00    +0.000 A 
ATOM     15  F   UNL     1       0.491   2.250  18.850  0.00  0.00    +0.000 F 
ATOM     16  C   UNL     1       2.737   2.085  18.152  0.00  0.00    +0.000 A 
ATOM     17  C   UNL     1       3.884   2.702  17.644  0.00  0.00    +0.000 A 
ENDBRANCH   6  11
TORSDOF 1
ENDMDL
MODEL 4
REMARK VINA RESULT:      -7.2      0.160      1.179
REMARK  Name = 
REMARK  2 active torsions:
REMARK  status: ('A' for Active; 'I' for Inactive)
REMARK    1  A    between atoms: C_1  and  N_2
REMARK    2  A    between atoms: C_6  and  C_7
REMARK                            x       y       z     vdW  Elec       q    Type
REMARK                         _______ _______ _______ _____ _____    ______ ____
ROOT
ATOM      1  C   UNL     1       7.367   5.051  14.330  0.00  0.00    +0.000 C 
ATOM      2  N   UNL     1       6.448   4.705  15.381  0.00  0.00    +0.000 N 
ATOM      3  C   UNL     1       5.228   4.110  15.227  0.00  0.00    +0.000 A 
ATOM      4  N   UNL     1       4.617   3.947  16.380  0.00  0.00    +0.000 NA
ATOM      5  C   UNL     1       5.484   4.461  17.327  0.00  0.00    +0.000 A 
ATOM      6  C   UNL     1       5.419   4.601  18.722  0.00  0.00    +0.000 A 
ATOM      7  N   UNL     1       6.473   5.187  19.367  0.00  0.00    +0.000 NA
ATOM      8  C   UNL     1       7.533   5.585  18.635  0.00  0.00    +0.000 A 
ATOM      9  N   UNL     1       7.702   5.503  17.302  0.00  0.00    +0.000 NA
ATOM     10  C   UNL     1       6.636   4.935  16.715  0.00  0.00    +0.000 A 
ENDROOT
BRANCH   6  11
ATOM     11  C   UNL     1       4.260   4.174  19.520  0.00  0.00    +0.000 A 
ATOM     12  C   UNL     1       4.078   2.835  19.918  0.00  0.00    +0.000 A 
ATOM     13  C   UNL     1       2.960   2.437  20.658  0.00  0.00    +0.000 A 
ATOM     14  C   UNL     1       2.007   3.380  21.015  0.00  0.00    +0.000 A 
ATOM     15  F   UNL     1       0.931   3.000  21.716  0.00  0.00    +0.000 F 
ATOM     16  C   UNL     1       2.157   4.711  20.654  0.00  0.00    +0.000 A 
ATOM     17  C   UNL     1       3.278   5.105  19.917  0.00  0.00    +0.000 A 
ENDBRANCH   6  11
TORSDOF 1
ENDMDL
MODEL 5
REMARK VINA RESULT:      -6.8      3.409      5.491
REMARK  Name = 
REMARK  2 active torsions:
REMARK  status: ('A' for Active; 'I' for Inactive)
REMARK    1  A    between atoms: C_1  and  N_2
REMARK    2  A    between atoms: C_6  and  C_7
REMARK                            x       y       z     vdW  Elec       q    Type
REMARK                         _______ _______ _______ _____ _____    ______ ____
ROOT
ATOM      1  C   UNL     1       0.363   2.399  18.736  0.00  0.00    +0.000 C 
ATOM      2  N   UNL     1       1.472   3.292  18.536  0.00  0.00    +0.000 N 
ATOM      3  C   UNL     1       1.466   4.438  17.792  0.00  0.00    +0.000 A 
ATOM      4  N   UNL     1       2.644   5.021  17.786  0.00  0.00    +0.000 NA
ATOM      5  C   UNL     1       3.453   4.214  18.566  0.00  0.00    +0.000 A 
ATOM      6  C   UNL     1       4.806   4.271  18.935  0.00  0.00    +0.000 A 
ATOM      7  N   UNL     1       5.308   3.272  19.723  0.00  0.00    +0.000 NA
ATOM      8  C   UNL     1       4.475   2.289  20.123  0.00  0.00    +0.000 A 
ATOM      9  N   UNL     1       3.170   2.134  19.831  0.00  0.00    +0.000 NA
ATOM     10  C   UNL     1       2.730   3.131  19.045  0.00  0.00    +0.000 A 
ENDROOT
BRANCH   6  11
ATOM     11  C   UNL     1       5.717   5.338  18.493  0.00  0.00    +0.000 A 
ATOM     12  C   UNL     1       5.381   6.223  17.450  0.00  0.00    +0.000 A 
ATOM     13  C   UNL     1       6.265   7.219  17.024  0.00  0.00    +0.000 A 
ATOM     14  C   UNL     1       7.500   7.346  17.642  0.00  0.00    +0.000 A 
ATOM     15  F   UNL     1       8.351   8.294  17.230  0.00  0.00    +0.000 F 
ATOM     16  C   UNL     1       7.862   6.503  18.682  0.00  0.00    +0.000 A 
ATOM     17  C   UNL     1       6.974   5.510  19.107  0.00  0.00    +0.000 A 
ENDBRANCH   6  11
TORSDOF 1
ENDMDL
MODEL 6
REMARK VINA RESULT:      -6.7      3.397      5.558
REMARK  Name = 
REMARK  2 active torsions:
REMARK  status: ('A' for Active; 'I' for Inactive)
REMARK    1  A    between atoms: C_1  and  N_2
REMARK    2  A    between atoms: C_6  and  C_7
REMARK                            x       y       z     vdW  Elec       q    Type
REMARK                         _______ _______ _______ _____ _____    ______ ____
ROOT
ATOM      1  C   UNL     1       0.395   2.494  18.769  0.00  0.00    +0.000 C 
ATOM      2  N   UNL     1       1.518   3.368  18.564  0.00  0.00    +0.000 N 
ATOM      3  C   UNL     1       1.526   4.519  17.827  0.00  0.00    +0.000 A 
ATOM      4  N   UNL     1       2.715   5.080  17.813  0.00  0.00    +0.000 NA
ATOM      5  C   UNL     1       3.516   4.253  18.580  0.00  0.00    +0.000 A 
ATOM      6  C   UNL     1       4.874   4.283  18.937  0.00  0.00    +0.000 A 
ATOM      7  N   UNL     1       5.365   3.270  19.714  0.00  0.00    +0.000 NA
ATOM      8  C   UNL     1       4.518   2.300  20.116  0.00  0.00    +0.000 A 
ATOM      9  N   UNL     1       3.207   2.171  19.835  0.00  0.00    +0.000 NA
ATOM     10  C   UNL     1       2.778   3.180  19.059  0.00  0.00    +0.000 A 
ENDROOT
BRANCH   6  11
ATOM     11  C   UNL     1       5.800   5.335  18.493  0.00  0.00    +0.000 A 
ATOM     12  C   UNL     1       7.043   5.552  19.121  0.00  0.00    +0.000 A 
ATOM     13  C   UNL     1       7.905   6.570  18.702  0.00  0.00    +0.000 A 
ATOM     14  C   UNL     1       7.535   7.386  17.644  0.00  0.00    +0.000 A 
ATOM     15  F   UNL     1       8.356   8.368  17.248  0.00  0.00    +0.000 F 
ATOM     16  C   UNL     1       6.325   7.196  16.991  0.00  0.00    +0.000 A 
ATOM     17  C   UNL     1       5.468   6.174  17.410  0.00  0.00    +0.000 A 
ENDBRANCH   6  11
TORSDOF 1
ENDMDL
MODEL 7
REMARK VINA RESULT:      -6.6      3.315      5.918
REMARK  Name = 
REMARK  2 active torsions:
REMARK  status: ('A' for Active; 'I' for Inactive)
REMARK    1  A    between atoms: C_1  and  N_2
REMARK    2  A    between atoms: C_6  and  C_7
REMARK                            x       y       z     vdW  Elec       q    Type
REMARK                         _______ _______ _______ _____ _____    ______ ____
ROOT
ATOM      1  C   UNL     1       1.828   2.777  21.867  0.00  0.00    +0.000 C 
ATOM      2  N   UNL     1       2.664   3.064  20.732  0.00  0.00    +0.000 N 
ATOM      3  C   UNL     1       3.514   2.193  20.111  0.00  0.00    +0.000 A 
ATOM      4  N   UNL     1       4.157   2.765  19.118  0.00  0.00    +0.000 NA
ATOM      5  C   UNL     1       3.701   4.071  19.093  0.00  0.00    +0.000 A 
ATOM      6  C   UNL     1       4.002   5.185  18.294  0.00  0.00    +0.000 A 
ATOM      7  N   UNL     1       3.365   6.366  18.558  0.00  0.00    +0.000 NA
ATOM      8  C   UNL     1       2.464   6.400  19.561  0.00  0.00    +0.000 A 
ATOM      9  N   UNL     1       2.100   5.401  20.387  0.00  0.00    +0.000 NA
ATOM     10  C   UNL     1       2.762   4.269  20.096  0.00  0.00    +0.000 A 
ENDROOT
BRANCH   6  11
ATOM     11  C   UNL     1       4.990   5.151  17.206  0.00  0.00    +0.000 A 
ATOM     12  C   UNL     1       6.220   5.833  17.291  0.00  0.00    +0.000 A 
ATOM     13  C   UNL     1       7.143   5.811  16.240  0.00  0.00    +0.000 A 
ATOM     14  C   UNL     1       6.847   5.100  15.087  0.00  0.00    +0.000 A 
ATOM     15  F   UNL     1       7.725   5.084  14.076  0.00  0.00    +0.000 F 
ATOM     16  C   UNL     1       5.652   4.404  14.970  0.00  0.00    +0.000 A 
ATOM     17  C   UNL     1       4.734   4.426  16.025  0.00  0.00    +0.000 A 
ENDBRANCH   6  11
TORSDOF 1
ENDMDL
MODEL 8
REMARK VINA RESULT:      -6.6      3.312      5.962
REMARK  Name = 
REMARK  2 active torsions:
REMARK  status: ('A' for Active; 'I' for Inactive)
REMARK    1  A    between atoms: C_1  and  N_2
REMARK    2  A    between atoms: C_6  and  C_7
REMARK                            x       y       z     vdW  Elec       q    Type
REMARK                         _______ _______ _______ _____ _____    ______ ____
ROOT
ATOM      1  C   UNL     1       1.867   2.997  21.893  0.00  0.00    +0.000 C 
ATOM      2  N   UNL     1       2.687   3.243  20.738  0.00  0.00    +0.000 N 
ATOM      3  C   UNL     1       3.525   2.349  20.133  0.00  0.00    +0.000 A 
ATOM      4  N   UNL     1       4.155   2.887  19.112  0.00  0.00    +0.000 NA
ATOM      5  C   UNL     1       3.702   4.192  19.051  0.00  0.00    +0.000 A 
ATOM      6  C   UNL     1       3.994   5.278  18.211  0.00  0.00    +0.000 A 
ATOM      7  N   UNL     1       3.364   6.470  18.445  0.00  0.00    +0.000 NA
ATOM      8  C   UNL     1       2.478   6.539  19.459  0.00  0.00    +0.000 A 
ATOM      9  N   UNL     1       2.123   5.569  20.323  0.00  0.00    +0.000 NA
ATOM     10  C   UNL     1       2.778   4.427  20.061  0.00  0.00    +0.000 A 
ENDROOT
BRANCH   6  11
ATOM     11  C   UNL     1       4.966   5.205  17.110  0.00  0.00    +0.000 A 
ATOM     12  C   UNL     1       4.735   4.425  15.959  0.00  0.00    +0.000 A 
ATOM     13  C   UNL     1       5.677   4.347  14.929  0.00  0.00    +0.000 A 
ATOM     14  C   UNL     1       6.865   5.054  15.035  0.00  0.00    +0.000 A 
ATOM     15  F   UNL     1       7.773   4.973  14.053  0.00  0.00    +0.000 F 
ATOM     16  C   UNL     1       7.124   5.844  16.146  0.00  0.00    +0.000 A 
ATOM     17  C   UNL     1       6.178   5.922  17.172  0.00  0.00    +0.000 A 
ENDBRANCH   6  11
TORSDOF 1
ENDMDL
MODEL 9
REMARK VINA RESULT:      -6.6      1.801      2.079
REMARK  Name = 
REMARK  2 active torsions:
REMARK  status: ('A' for Active; 'I' for Inactive)
REMARK    1  A    between atoms: C_1  and  N_2
REMARK    2  A    between atoms: C_6  and  C_7
REMARK                            x       y       z     vdW  Elec       q    Type
REMARK                         _______ _______ _______ _____ _____    ______ ____
ROOT
ATOM      1  C   UNL     1       7.010   5.046  14.175  0.00  0.00    +0.000 C 
ATOM      2  N   UNL     1       6.127   4.674  15.247  0.00  0.00    +0.000 N 
ATOM      3  C   UNL     1       5.894   3.407  15.703  0.00  0.00    +0.000 A 
ATOM      4  N   UNL     1       5.015   3.395  16.680  0.00  0.00    +0.000 NA
ATOM      5  C   UNL     1       4.662   4.719  16.868  0.00  0.00    +0.000 A 
ATOM      6  C   UNL     1       3.768   5.367  17.735  0.00  0.00    +0.000 A 
ATOM      7  N   UNL     1       3.641   6.726  17.643  0.00  0.00    +0.000 NA
ATOM      8  C   UNL     1       4.395   7.381  16.737  0.00  0.00    +0.000 A 
ATOM      9  N   UNL     1       5.278   6.866  15.860  0.00  0.00    +0.000 NA
ATOM     10  C   UNL     1       5.354   5.530  15.980  0.00  0.00    +0.000 A 
ENDROOT
BRANCH   6  11
ATOM     11  C   UNL     1       2.940   4.652  18.718  0.00  0.00    +0.000 A 
ATOM     12  C   UNL     1       1.911   3.770  18.330  0.00  0.00    +0.000 A 
ATOM     13  C   UNL     1       1.117   3.114  19.274  0.00  0.00    +0.000 A 
ATOM     14  C   UNL     1       1.343   3.329  20.625  0.00  0.00    +0.000 A 
ATOM     15  F   UNL     1       0.577   2.707  21.531  0.00  0.00    +0.000 F 
ATOM     16  C   UNL     1       2.354   4.179  21.048  0.00  0.00    +0.000 A 
ATOM     17  C   UNL     1       3.149   4.831  20.100  0.00  0.00    +0.000 A 
ENDBRANCH   6  11
TORSDOF 1
ENDMDL
