MODEL 1
REMARK VINA RESULT:      -8.1      0.000      0.000
REMARK  Name = 
REMARK  10 active torsions:
REMARK  status: ('A' for Active; 'I' for Inactive)
REMARK    1  A    between atoms: C_1  and  C_2
REMARK    2  A    between atoms: C_2  and  C_3
REMARK    3  A    between atoms: C_4  and  N_5
REMARK    4  A    between atoms: N_5  and  C_6
REMARK    5  A    between atoms: C_7  and  C_8
REMARK    6  A    between atoms: C_15  and  N_16
REMARK    7  A    between atoms: N_16  and  S_17
REMARK    8  A    between atoms: S_17  and  C_18
REMARK    9  A    between atoms: C_25  and  C_26
REMARK   10  A    between atoms: C_25  and  O_27
REMARK                            x       y       z     vdW  Elec       q    Type
REMARK                         _______ _______ _______ _____ _____    ______ ____
ROOT
ATOM      1  C   UNL     1       3.961   4.218  19.570  0.00  0.00    +0.000 A 
ATOM      2  C   UNL     1       3.683   3.015  20.152  0.00  0.00    +0.000 A 
ATOM      3  C   UNL     1       2.345   2.874  20.800  0.00  0.00    +0.000 A 
ATOM      4  N   UNL     1       1.461   3.795  21.003  0.00  0.00    +0.000 NA
ATOM      5  N   UNL     1       1.860   4.995  20.552  0.00  0.00    +0.000 N 
ATOM      6  C   UNL     1       1.158   6.145  20.801  0.00  0.00    +0.000 A 
ATOM      7  C   UNL     1       1.823   7.191  20.225  0.00  0.00    +0.000 A 
ATOM      8  C   UNL     1       2.980   6.655  19.596  0.00  0.00    +0.000 A 
ATOM      9  C   UNL     1       3.017   5.282  19.838  0.00  0.00    +0.000 A 
ENDROOT
BRANCH   2  10
ATOM     10  C   UNL     1       4.550   1.802  20.262  0.00  0.00    +0.000 C 
ATOM     11  N   UNL     1       4.556   0.918  19.236  0.00  0.00    +0.000 N 
ATOM     12  O   UNL     1       5.264   1.606  21.234  0.00  0.00    +0.000 OA
ATOM     13  H   UNL     1       4.046   1.123  18.378  0.00  0.00    +0.000 HD
ATOM     14  H   UNL     1       5.165   0.117  19.301  0.00  0.00    +0.000 HD
ENDBRANCH   2  10
BRANCH   1  15
ATOM     15  N   UNL     1       5.161   4.512  18.851  0.00  0.00    +0.000 N 
ATOM     16  H   UNL     1       5.582   5.316  19.326  0.00  0.00    +0.000 HD
BRANCH  15  20
ATOM     17  C   UNL     1       6.807   6.844  17.233  0.00  0.00    +0.000 C 
ATOM     18  C   UNL     1       6.451   5.410  16.801  0.00  0.00    +0.000 C 
ATOM     19  C   UNL     1       7.655   4.520  17.196  0.00  0.00    +0.000 C 
ATOM     20  C   UNL     1       5.106   4.884  17.408  0.00  0.00    +0.000 C 
ATOM     21  C   UNL     1       4.812   3.683  16.505  0.00  0.00    +0.000 C 
ATOM     22  C   UNL     1       5.112   4.184  15.092  0.00  0.00    +0.000 C 
ATOM     23  C   UNL     1       6.124   5.341  15.259  0.00  0.00    +0.000 C 
ATOM     24  C   UNL     1       7.335   5.184  14.337  0.00  0.00    +0.000 C 
BRANCH  23  25
ATOM     25  O   UNL     1       5.502   6.564  14.833  0.00  0.00    +0.000 OA
ATOM     26  H   UNL     1       5.977   7.336  15.181  0.00  0.00    +0.000 HD
ENDBRANCH  23  25
ENDBRANCH  15  20
ENDBRANCH   1  15
BRANCH   7  27
ATOM     27  N   UNL     1       1.530   8.548  20.339  0.00  0.00    +0.000 N 
ATOM     28  H   UNL     1       2.215   9.205  19.959  0.00  0.00    +0.000 HD
BRANCH  27  29
ATOM     29  S   UNL     1       0.746   9.217  21.677  0.00  0.00    +0.000 S 
ATOM     30  C   UNL     1       0.329  10.885  21.178  0.00  0.00    +0.000 C 
ATOM     31  O   UNL     1      -0.501   8.479  21.795  0.00  0.00    +0.000 OA
ATOM     32  O   UNL     1       1.690   9.287  22.761  0.00  0.00    +0.000 OA
ENDBRANCH  27  29
ENDBRANCH   7  27
TORSDOF 6
ENDMDL
MODEL 2
REMARK VINA RESULT:      -8.0      1.101      1.794
REMARK  Name = 
REMARK  10 active torsions:
REMARK  status: ('A' for Active; 'I' for Inactive)
REMARK    1  A    between atoms: C_1  and  C_2
REMARK    2  A    between atoms: C_2  and  C_3
REMARK    3  A    between atoms: C_4  and  N_5
REMARK    4  A    between atoms: N_5  and  C_6
REMARK    5  A    between atoms: C_7  and  C_8
REMARK    6  A    between atoms: C_15  and  N_16
REMARK    7  A    between atoms: N_16  and  S_17
REMARK    8  A    between atoms: S_17  and  C_18
REMARK    9  A    between atoms: C_25  and  C_26
REMARK   10  A    between atoms: C_25  and  O_27
REMARK                            x       y       z     vdW  Elec       q    Type
REMARK                         _______ _______ _______ _____ _____    ______ ____
ROOT
ATOM      1  C   UNL     1       3.224   4.040  18.936  0.00  0.00    +0.000 A 
ATOM      2  C   UNL     1       3.342   2.937  19.732  0.00  0.00    +0.000 A 
ATOM      3  C   UNL     1       2.566   2.943  21.008  0.00  0.00    +0.000 A 
ATOM      4  N   UNL     1       1.900   3.922  21.527  0.00  0.00    +0.000 NA
ATOM      5  N   UNL     1       1.956   5.034  20.776  0.00  0.00    +0.000 N 
ATOM      6  C   UNL     1       1.461   6.237  21.206  0.00  0.00    +0.000 A 
ATOM      7  C   UNL     1       1.678   7.167  20.229  0.00  0.00    +0.000 A 
ATOM      8  C   UNL     1       2.334   6.502  19.156  0.00  0.00    +0.000 A 
ATOM      9  C   UNL     1       2.538   5.172  19.522  0.00  0.00    +0.000 A 
ENDROOT
BRANCH   2  10
ATOM     10  C   UNL     1       4.170   1.711  19.521  0.00  0.00    +0.000 C 
ATOM     11  N   UNL     1       3.875   0.905  18.475  0.00  0.00    +0.000 N 
ATOM     12  O   UNL     1       5.113   1.438  20.250  0.00  0.00    +0.000 OA
ATOM     13  H   UNL     1       3.160   1.177  17.801  0.00  0.00    +0.000 HD
ATOM     14  H   UNL     1       4.454   0.095  18.318  0.00  0.00    +0.000 HD
ENDBRANCH   2  10
BRANCH   1  15
ATOM     15  N   UNL     1       3.840   4.183  17.654  0.00  0.00    +0.000 N 
ATOM     16  H   UNL     1       3.743   3.274  17.193  0.00  0.00    +0.000 HD
BRANCH  15  20
ATOM     17  C   UNL     1       5.452   5.651  15.202  0.00  0.00    +0.000 C 
ATOM     18  C   UNL     1       5.601   5.829  16.724  0.00  0.00    +0.000 C 
ATOM     19  C   UNL     1       4.677   7.007  17.121  0.00  0.00    +0.000 C 
ATOM     20  C   UNL     1       5.286   4.533  17.544  0.00  0.00    +0.000 C 
ATOM     21  C   UNL     1       5.911   4.870  18.901  0.00  0.00    +0.000 C 
ATOM     22  C   UNL     1       7.261   5.498  18.554  0.00  0.00    +0.000 C 
ATOM     23  C   UNL     1       7.106   6.075  17.128  0.00  0.00    +0.000 C 
ATOM     24  C   UNL     1       7.583   7.525  17.038  0.00  0.00    +0.000 C 
BRANCH  23  25
ATOM     25  O   UNL     1       7.977   5.353  16.242  0.00  0.00    +0.000 OA
ATOM     26  H   UNL     1       7.684   4.432  16.141  0.00  0.00    +0.000 HD
ENDBRANCH  23  25
ENDBRANCH  15  20
ENDBRANCH   1  15
BRANCH   7  27
ATOM     27  N   UNL     1       1.449   8.540  20.299  0.00  0.00    +0.000 N 
ATOM     28  H   UNL     1       2.146   9.150  19.867  0.00  0.00    +0.000 HD
BRANCH  27  29
ATOM     29  S   UNL     1       0.748   9.295  21.637  0.00  0.00    +0.000 S 
ATOM     30  C   UNL     1       0.391  10.961  21.089  0.00  0.00    +0.000 C 
ATOM     31  O   UNL     1      -0.527   8.622  21.828  0.00  0.00    +0.000 OA
ATOM     32  O   UNL     1       1.733   9.359  22.683  0.00  0.00    +0.000 OA
ENDBRANCH  27  29
ENDBRANCH   7  27
TORSDOF 6
ENDMDL
MODEL 3
REMARK VINA RESULT:      -7.9      1.125      1.272
REMARK  Name = 
REMARK  10 active torsions:
REMARK  status: ('A' for Active; 'I' for Inactive)
REMARK    1  A    between atoms: C_1  and  C_2
REMARK    2  A    between atoms: C_2  and  C_3
REMARK    3  A    between atoms: C_4  and  N_5
REMARK    4  A    between atoms: N_5  and  C_6
REMARK    5  A    between atoms: C_7  and  C_8
REMARK    6  A    between atoms: C_15  and  N_16
REMARK    7  A    between atoms: N_16  and  S_17
REMARK    8  A    between atoms: S_17  and  C_18
REMARK    9  A    between atoms: C_25  and  C_26
REMARK   10  A    between atoms: C_25  and  O_27
REMARK                            x       y       z     vdW  Elec       q    Type
REMARK                         _______ _______ _______ _____ _____    ______ ____
ROOT
ATOM      1  C   UNL     1       3.807   4.515  19.577  0.00  0.00    +0.000 A 
ATOM      2  C   UNL     1       3.494   3.293  20.099  0.00  0.00    +0.000 A 
ATOM      3  C   UNL     1       2.141   3.152  20.716  0.00  0.00    +0.000 A 
ATOM      4  N   UNL     1       1.273   4.083  20.945  0.00  0.00    +0.000 NA
ATOM      5  N   UNL     1       1.706   5.293  20.556  0.00  0.00    +0.000 N 
ATOM      6  C   UNL     1       1.022   6.445  20.845  0.00  0.00    +0.000 A 
ATOM      7  C   UNL     1       1.719   7.501  20.329  0.00  0.00    +0.000 A 
ATOM      8  C   UNL     1       2.877   6.969  19.696  0.00  0.00    +0.000 A 
ATOM      9  C   UNL     1       2.881   5.586  19.876  0.00  0.00    +0.000 A 
ENDROOT
BRANCH   2  10
ATOM     10  C   UNL     1       4.333   2.058  20.168  0.00  0.00    +0.000 C 
ATOM     11  N   UNL     1       4.363   1.237  19.093  0.00  0.00    +0.000 N 
ATOM     12  O   UNL     1       5.005   1.790  21.154  0.00  0.00    +0.000 OA
ATOM     13  H   UNL     1       3.890   1.503  18.229  0.00  0.00    +0.000 HD
ATOM     14  H   UNL     1       4.953   0.421  19.132  0.00  0.00    +0.000 HD
ENDBRANCH   2  10
BRANCH   1  15
ATOM     15  N   UNL     1       5.026   4.815  18.893  0.00  0.00    +0.000 N 
ATOM     16  H   UNL     1       5.379   5.678  19.316  0.00  0.00    +0.000 HD
BRANCH  15  20
ATOM     17  C   UNL     1       6.796   6.947  17.136  0.00  0.00    +0.000 C 
ATOM     18  C   UNL     1       6.406   5.493  16.816  0.00  0.00    +0.000 C 
ATOM     19  C   UNL     1       7.567   4.604  17.325  0.00  0.00    +0.000 C 
ATOM     20  C   UNL     1       5.027   5.063  17.422  0.00  0.00    +0.000 C 
ATOM     21  C   UNL     1       4.720   3.798  16.616  0.00  0.00    +0.000 C 
ATOM     22  C   UNL     1       5.079   4.165  15.176  0.00  0.00    +0.000 C 
ATOM     23  C   UNL     1       6.124   5.300  15.276  0.00  0.00    +0.000 C 
ATOM     24  C   UNL     1       7.355   5.027  14.411  0.00  0.00    +0.000 C 
BRANCH  23  25
ATOM     25  O   UNL     1       5.555   6.500  14.727  0.00  0.00    +0.000 OA
ATOM     26  H   UNL     1       5.632   6.510  13.759  0.00  0.00    +0.000 HD
ENDBRANCH  23  25
ENDBRANCH  15  20
ENDBRANCH   1  15
BRANCH   7  27
ATOM     27  N   UNL     1       1.453   8.858  20.499  0.00  0.00    +0.000 N 
ATOM     28  H   UNL     1       1.251   9.177  21.449  0.00  0.00    +0.000 HD
BRANCH  27  29
ATOM     29  S   UNL     1       0.601   9.783  19.371  0.00  0.00    +0.000 S 
ATOM     30  C   UNL     1       1.222  11.448  19.580  0.00  0.00    +0.000 C 
ATOM     31  O   UNL     1       1.059   9.314  18.072  0.00  0.00    +0.000 OA
ATOM     32  O   UNL     1      -0.790   9.764  19.734  0.00  0.00    +0.000 OA
ENDBRANCH  27  29
ENDBRANCH   7  27
TORSDOF 6
ENDMDL
MODEL 4
REMARK VINA RESULT:      -7.6      1.053      1.623
REMARK  Name = 
REMARK  10 active torsions:
REMARK  status: ('A' for Active; 'I' for Inactive)
REMARK    1  A    between atoms: C_1  and  C_2
REMARK    2  A    between atoms: C_2  and  C_3
REMARK    3  A    between atoms: C_4  and  N_5
REMARK    4  A    between atoms: N_5  and  C_6
REMARK    5  A    between atoms: C_7  and  C_8
REMARK    6  A    between atoms: C_15  and  N_16
REMARK    7  A    between atoms: N_16  and  S_17
REMARK    8  A    between atoms: S_17  and  C_18
REMARK    9  A    between atoms: C_25  and  C_26
REMARK   10  A    between atoms: C_25  and  O_27
REMARK                            x       y       z     vdW  Elec       q    Type
REMARK                         _______ _______ _______ _____ _____    ______ ____
ROOT
ATOM      1  C   UNL     1       3.861   4.592  19.761  0.00  0.00    +0.000 A 
ATOM      2  C   UNL     1       3.526   3.313  20.099  0.00  0.00    +0.000 A 
ATOM      3  C   UNL     1       2.092   3.057  20.427  0.00  0.00    +0.000 A 
ATOM      4  N   UNL     1       1.143   3.925  20.566  0.00  0.00    +0.000 NA
ATOM      5  N   UNL     1       1.570   5.184  20.379  0.00  0.00    +0.000 N 
ATOM      6  C   UNL     1       0.779   6.273  20.633  0.00  0.00    +0.000 A 
ATOM      7  C   UNL     1       1.498   7.403  20.359  0.00  0.00    +0.000 A 
ATOM      8  C   UNL     1       2.784   6.983  19.919  0.00  0.00    +0.000 A 
ATOM      9  C   UNL     1       2.834   5.591  19.970  0.00  0.00    +0.000 A 
ENDROOT
BRANCH   2  10
ATOM     10  C   UNL     1       4.407   2.111  20.219  0.00  0.00    +0.000 C 
ATOM     11  N   UNL     1       4.497   1.270  19.162  0.00  0.00    +0.000 N 
ATOM     12  O   UNL     1       5.061   1.890  21.228  0.00  0.00    +0.000 OA
ATOM     13  H   UNL     1       4.040   1.500  18.281  0.00  0.00    +0.000 HD
ATOM     14  H   UNL     1       5.115   0.477  19.236  0.00  0.00    +0.000 HD
ENDBRANCH   2  10
BRANCH   1  15
ATOM     15  N   UNL     1       5.168   5.008  19.357  0.00  0.00    +0.000 N 
ATOM     16  H   UNL     1       5.098   6.013  19.172  0.00  0.00    +0.000 HD
BRANCH  15  20
ATOM     17  C   UNL     1       3.789   3.977  16.563  0.00  0.00    +0.000 C 
ATOM     18  C   UNL     1       5.098   4.756  16.786  0.00  0.00    +0.000 C 
ATOM     19  C   UNL     1       4.741   6.259  16.671  0.00  0.00    +0.000 C 
ATOM     20  C   UNL     1       5.806   4.423  18.143  0.00  0.00    +0.000 C 
ATOM     21  C   UNL     1       7.213   4.976  17.898  0.00  0.00    +0.000 C 
ATOM     22  C   UNL     1       7.562   4.522  16.480  0.00  0.00    +0.000 C 
ATOM     23  C   UNL     1       6.210   4.316  15.757  0.00  0.00    +0.000 C 
ATOM     24  C   UNL     1       6.169   5.023  14.402  0.00  0.00    +0.000 C 
BRANCH  23  25
ATOM     25  O   UNL     1       6.064   2.922  15.443  0.00  0.00    +0.000 OA
ATOM     26  H   UNL     1       5.512   2.799  14.653  0.00  0.00    +0.000 HD
ENDBRANCH  23  25
ENDBRANCH  15  20
ENDBRANCH   1  15
BRANCH   7  27
ATOM     27  N   UNL     1       1.125   8.724  20.596  0.00  0.00    +0.000 N 
ATOM     28  H   UNL     1       1.698   9.453  20.166  0.00  0.00    +0.000 HD
BRANCH  27  29
ATOM     29  S   UNL     1       0.496   9.258  22.069  0.00  0.00    +0.000 S 
ATOM     30  C   UNL     1      -0.071  10.926  21.749  0.00  0.00    +0.000 C 
ATOM     31  O   UNL     1      -0.685   8.440  22.297  0.00  0.00    +0.000 OA
ATOM     32  O   UNL     1       1.571   9.316  23.023  0.00  0.00    +0.000 OA
ENDBRANCH  27  29
ENDBRANCH   7  27
TORSDOF 6
ENDMDL
MODEL 5
REMARK VINA RESULT:      -7.6      1.477      2.078
REMARK  Name = 
REMARK  10 active torsions:
REMARK  status: ('A' for Active; 'I' for Inactive)
REMARK    1  A    between atoms: C_1  and  C_2
REMARK    2  A    between atoms: C_2  and  C_3
REMARK    3  A    between atoms: C_4  and  N_5
REMARK    4  A    between atoms: N_5  and  C_6
REMARK    5  A    between atoms: C_7  and  C_8
REMARK    6  A    between atoms: C_15  and  N_16
REMARK    7  A    between atoms: N_16  and  S_17
REMARK    8  A    between atoms: S_17  and  C_18
REMARK    9  A    between atoms: C_25  and  C_26
REMARK   10  A    between atoms: C_25  and  O_27
REMARK                            x       y       z     vdW  Elec       q    Type
REMARK                         _______ _______ _______ _____ _____    ______ ____
ROOT
ATOM      1  C   UNL     1       3.151   4.036  18.888  0.00  0.00    +0.000 A 
ATOM      2  C   UNL     1       3.287   2.900  19.631  0.00  0.00    +0.000 A 
ATOM      3  C   UNL     1       2.537   2.847  20.922  0.00  0.00    +0.000 A 
ATOM      4  N   UNL     1       1.881   3.801  21.498  0.00  0.00    +0.000 NA
ATOM      5  N   UNL     1       1.919   4.944  20.796  0.00  0.00    +0.000 N 
ATOM      6  C   UNL     1       1.431   6.126  21.288  0.00  0.00    +0.000 A 
ATOM      7  C   UNL     1       1.627   7.099  20.349  0.00  0.00    +0.000 A 
ATOM      8  C   UNL     1       2.261   6.483  19.235  0.00  0.00    +0.000 A 
ATOM      9  C   UNL     1       2.476   5.139  19.537  0.00  0.00    +0.000 A 
ENDROOT
BRANCH   2  10
ATOM     10  C   UNL     1       4.112   1.686  19.350  0.00  0.00    +0.000 C 
ATOM     11  N   UNL     1       5.143   1.400  20.180  0.00  0.00    +0.000 N 
ATOM     12  O   UNL     1       3.863   0.939  18.415  0.00  0.00    +0.000 OA
ATOM     13  H   UNL     1       5.295   1.955  21.021  0.00  0.00    +0.000 HD
ATOM     14  H   UNL     1       5.679   0.565  20.005  0.00  0.00    +0.000 HD
ENDBRANCH   2  10
BRANCH   1  15
ATOM     15  N   UNL     1       3.741   4.237  17.602  0.00  0.00    +0.000 N 
ATOM     16  H   UNL     1       3.610   3.358  17.093  0.00  0.00    +0.000 HD
BRANCH  15  20
ATOM     17  C   UNL     1       5.336   5.774  15.181  0.00  0.00    +0.000 C 
ATOM     18  C   UNL     1       5.520   5.883  16.706  0.00  0.00    +0.000 C 
ATOM     19  C   UNL     1       4.632   7.063  17.173  0.00  0.00    +0.000 C 
ATOM     20  C   UNL     1       5.192   4.559  17.476  0.00  0.00    +0.000 C 
ATOM     21  C   UNL     1       5.852   4.822  18.832  0.00  0.00    +0.000 C 
ATOM     22  C   UNL     1       7.208   5.435  18.485  0.00  0.00    +0.000 C 
ATOM     23  C   UNL     1       7.038   6.077  17.088  0.00  0.00    +0.000 C 
ATOM     24  C   UNL     1       7.547   7.519  17.051  0.00  0.00    +0.000 C 
BRANCH  23  25
ATOM     25  O   UNL     1       7.874   5.375  16.153  0.00  0.00    +0.000 OA
ATOM     26  H   UNL     1       7.338   4.900  15.496  0.00  0.00    +0.000 HD
ENDBRANCH  23  25
ENDBRANCH  15  20
ENDBRANCH   1  15
BRANCH   7  27
ATOM     27  N   UNL     1       1.397   8.467  20.484  0.00  0.00    +0.000 N 
ATOM     28  H   UNL     1       2.217   9.070  20.572  0.00  0.00    +0.000 HD
BRANCH  27  29
ATOM     29  S   UNL     1       0.097   9.106  21.352  0.00  0.00    +0.000 S 
ATOM     30  C   UNL     1       0.767   9.492  22.966  0.00  0.00    +0.000 C 
ATOM     31  O   UNL     1      -0.210  10.370  20.700  0.00  0.00    +0.000 OA
ATOM     32  O   UNL     1      -0.893   8.073  21.503  0.00  0.00    +0.000 OA
ENDBRANCH  27  29
ENDBRANCH   7  27
TORSDOF 6
ENDMDL
MODEL 6
REMARK VINA RESULT:      -7.5      1.924      2.454
REMARK  Name = 
REMARK  10 active torsions:
REMARK  status: ('A' for Active; 'I' for Inactive)
REMARK    1  A    between atoms: C_1  and  C_2
REMARK    2  A    between atoms: C_2  and  C_3
REMARK    3  A    between atoms: C_4  and  N_5
REMARK    4  A    between atoms: N_5  and  C_6
REMARK    5  A    between atoms: C_7  and  C_8
REMARK    6  A    between atoms: C_15  and  N_16
REMARK    7  A    between atoms: N_16  and  S_17
REMARK    8  A    between atoms: S_17  and  C_18
REMARK    9  A    between atoms: C_25  and  C_26
REMARK   10  A    between atoms: C_25  and  O_27
REMARK                            x       y       z     vdW  Elec       q    Type
REMARK                         _______ _______ _______ _____ _____    ______ ____
ROOT
ATOM      1  C   UNL     1       3.073   4.356  18.754  0.00  0.00    +0.000 A 
ATOM      2  C   UNL     1       3.126   3.277  19.588  0.00  0.00    +0.000 A 
ATOM      3  C   UNL     1       2.349   3.370  20.860  0.00  0.00    +0.000 A 
ATOM      4  N   UNL     1       1.738   4.403  21.342  0.00  0.00    +0.000 NA
ATOM      5  N   UNL     1       1.858   5.483  20.553  0.00  0.00    +0.000 N 
ATOM      6  C   UNL     1       1.430   6.726  20.939  0.00  0.00    +0.000 A 
ATOM      7  C   UNL     1       1.702   7.608  19.931  0.00  0.00    +0.000 A 
ATOM      8  C   UNL     1       2.321   6.870  18.885  0.00  0.00    +0.000 A 
ATOM      9  C   UNL     1       2.450   5.544  19.297  0.00  0.00    +0.000 A 
ENDROOT
BRANCH   2  10
ATOM     10  C   UNL     1       3.884   1.999  19.424  0.00  0.00    +0.000 C 
ATOM     11  N   UNL     1       4.932   1.760  20.247  0.00  0.00    +0.000 N 
ATOM     12  O   UNL     1       3.565   1.163  18.591  0.00  0.00    +0.000 OA
ATOM     13  H   UNL     1       5.141   2.401  21.012  0.00  0.00    +0.000 HD
ATOM     14  H   UNL     1       5.422   0.885  20.154  0.00  0.00    +0.000 HD
ENDBRANCH   2  10
BRANCH   1  15
ATOM     15  N   UNL     1       3.699   4.419  17.471  0.00  0.00    +0.000 N 
ATOM     16  H   UNL     1       3.537   3.506  17.034  0.00  0.00    +0.000 HD
BRANCH  15  20
ATOM     17  C   UNL     1       5.394   5.865  15.062  0.00  0.00    +0.000 C 
ATOM     18  C   UNL     1       5.572   5.964  16.588  0.00  0.00    +0.000 C 
ATOM     19  C   UNL     1       4.747   7.191  17.049  0.00  0.00    +0.000 C 
ATOM     20  C   UNL     1       5.166   4.661  17.355  0.00  0.00    +0.000 C 
ATOM     21  C   UNL     1       5.830   4.887  18.716  0.00  0.00    +0.000 C 
ATOM     22  C   UNL     1       7.220   5.425  18.379  0.00  0.00    +0.000 C 
ATOM     23  C   UNL     1       7.096   6.075  16.981  0.00  0.00    +0.000 C 
ATOM     24  C   UNL     1       7.683   7.487  16.948  0.00  0.00    +0.000 C 
BRANCH  23  25
ATOM     25  O   UNL     1       7.898   5.327  16.053  0.00  0.00    +0.000 OA
ATOM     26  H   UNL     1       8.829   5.600  16.100  0.00  0.00    +0.000 HD
ENDBRANCH  23  25
ENDBRANCH  15  20
ENDBRANCH   1  15
BRANCH   7  27
ATOM     27  N   UNL     1       1.550   8.993  19.951  0.00  0.00    +0.000 N 
ATOM     28  H   UNL     1       1.161   9.406  20.802  0.00  0.00    +0.000 HD
BRANCH  27  29
ATOM     29  S   UNL     1       1.101   9.896  18.596  0.00  0.00    +0.000 S 
ATOM     30  C   UNL     1       1.247  11.603  19.113  0.00  0.00    +0.000 C 
ATOM     31  O   UNL     1       2.147   9.653  17.615  0.00  0.00    +0.000 OA
ATOM     32  O   UNL     1      -0.282   9.620  18.312  0.00  0.00    +0.000 OA
ENDBRANCH  27  29
ENDBRANCH   7  27
TORSDOF 6
ENDMDL
MODEL 7
REMARK VINA RESULT:      -7.5      1.486      2.016
REMARK  Name = 
REMARK  10 active torsions:
REMARK  status: ('A' for Active; 'I' for Inactive)
REMARK    1  A    between atoms: C_1  and  C_2
REMARK    2  A    between atoms: C_2  and  C_3
REMARK    3  A    between atoms: C_4  and  N_5
REMARK    4  A    between atoms: N_5  and  C_6
REMARK    5  A    between atoms: C_7  and  C_8
REMARK    6  A    between atoms: C_15  and  N_16
REMARK    7  A    between atoms: N_16  and  S_17
REMARK    8  A    between atoms: S_17  and  C_18
REMARK    9  A    between atoms: C_25  and  C_26
REMARK   10  A    between atoms: C_25  and  O_27
REMARK                            x       y       z     vdW  Elec       q    Type
REMARK                         _______ _______ _______ _____ _____    ______ ____
ROOT
ATOM      1  C   UNL     1       3.793   4.704  19.757  0.00  0.00    +0.000 A 
ATOM      2  C   UNL     1       3.436   3.415  20.030  0.00  0.00    +0.000 A 
ATOM      3  C   UNL     1       2.001   3.171  20.365  0.00  0.00    +0.000 A 
ATOM      4  N   UNL     1       1.074   4.049  20.567  0.00  0.00    +0.000 NA
ATOM      5  N   UNL     1       1.525   5.308  20.443  0.00  0.00    +0.000 N 
ATOM      6  C   UNL     1       0.761   6.398  20.770  0.00  0.00    +0.000 A 
ATOM      7  C   UNL     1       1.501   7.525  20.548  0.00  0.00    +0.000 A 
ATOM      8  C   UNL     1       2.771   7.104  20.064  0.00  0.00    +0.000 A 
ATOM      9  C   UNL     1       2.792   5.710  20.038  0.00  0.00    +0.000 A 
ENDROOT
BRANCH   2  10
ATOM     10  C   UNL     1       4.292   2.190  20.068  0.00  0.00    +0.000 C 
ATOM     11  N   UNL     1       4.286   1.364  18.996  0.00  0.00    +0.000 N 
ATOM     12  O   UNL     1       5.010   1.936  21.025  0.00  0.00    +0.000 OA
ATOM     13  H   UNL     1       3.773   1.620  18.153  0.00  0.00    +0.000 HD
ATOM     14  H   UNL     1       4.887   0.555  19.013  0.00  0.00    +0.000 HD
ENDBRANCH   2  10
BRANCH   1  15
ATOM     15  N   UNL     1       5.103   5.113  19.357  0.00  0.00    +0.000 N 
ATOM     16  H   UNL     1       5.028   6.110  19.131  0.00  0.00    +0.000 HD
BRANCH  15  20
ATOM     17  C   UNL     1       3.788   4.068  16.538  0.00  0.00    +0.000 C 
ATOM     18  C   UNL     1       5.111   4.814  16.790  0.00  0.00    +0.000 C 
ATOM     19  C   UNL     1       4.802   6.323  16.635  0.00  0.00    +0.000 C 
ATOM     20  C   UNL     1       5.764   4.487  18.176  0.00  0.00    +0.000 C 
ATOM     21  C   UNL     1       7.193   4.995  17.968  0.00  0.00    +0.000 C 
ATOM     22  C   UNL     1       7.575   4.504  16.572  0.00  0.00    +0.000 C 
ATOM     23  C   UNL     1       6.243   4.322  15.808  0.00  0.00    +0.000 C 
ATOM     24  C   UNL     1       6.267   5.002  14.438  0.00  0.00    +0.000 C 
BRANCH  23  25
ATOM     25  O   UNL     1       6.067   2.926  15.515  0.00  0.00    +0.000 OA
ATOM     26  H   UNL     1       5.259   2.583  15.931  0.00  0.00    +0.000 HD
ENDBRANCH  23  25
ENDBRANCH  15  20
ENDBRANCH   1  15
BRANCH   7  27
ATOM     27  N   UNL     1       1.161   8.839  20.864  0.00  0.00    +0.000 N 
ATOM     28  H   UNL     1       0.703   8.997  21.764  0.00  0.00    +0.000 HD
BRANCH  27  29
ATOM     29  S   UNL     1       0.617   9.955  19.719  0.00  0.00    +0.000 S 
ATOM     30  C   UNL     1       1.065  11.554  20.388  0.00  0.00    +0.000 C 
ATOM     31  O   UNL     1       1.448   9.732  18.546  0.00  0.00    +0.000 OA
ATOM     32  O   UNL     1      -0.818   9.871  19.656  0.00  0.00    +0.000 OA
ENDBRANCH  27  29
ENDBRANCH   7  27
TORSDOF 6
ENDMDL
MODEL 8
REMARK VINA RESULT:      -7.2      4.152      7.944
REMARK  Name = 
REMARK  10 active torsions:
REMARK  status: ('A' for Active; 'I' for Inactive)
REMARK    1  A    between atoms: C_1  and  C_2
REMARK    2  A    between atoms: C_2  and  C_3
REMARK    3  A    between atoms: C_4  and  N_5
REMARK    4  A    between atoms: N_5  and  C_6
REMARK    5  A    between atoms: C_7  and  C_8
REMARK    6  A    between atoms: C_15  and  N_16
REMARK    7  A    between atoms: N_16  and  S_17
REMARK    8  A    between atoms: S_17  and  C_18
REMARK    9  A    between atoms: C_25  and  C_26
REMARK   10  A    between atoms: C_25  and  O_27
REMARK                            x       y       z     vdW  Elec       q    Type
REMARK                         _______ _______ _______ _____ _____    ______ ____
ROOT
ATOM      1  C   UNL     1       6.323   4.689  17.719  0.00  0.00    +0.000 A 
ATOM      2  C   UNL     1       7.225   5.672  18.008  0.00  0.00    +0.000 A 
ATOM      3  C   UNL     1       7.775   6.442  16.852  0.00  0.00    +0.000 A 
ATOM      4  N   UNL     1       7.612   6.205  15.591  0.00  0.00    +0.000 NA
ATOM      5  N   UNL     1       6.845   5.125  15.369  0.00  0.00    +0.000 N 
ATOM      6  C   UNL     1       6.670   4.593  14.119  0.00  0.00    +0.000 A 
ATOM      7  C   UNL     1       5.854   3.502  14.224  0.00  0.00    +0.000 A 
ATOM      8  C   UNL     1       5.516   3.364  15.599  0.00  0.00    +0.000 A 
ATOM      9  C   UNL     1       6.172   4.363  16.317  0.00  0.00    +0.000 A 
ENDROOT
BRANCH   2  10
ATOM     10  C   UNL     1       7.773   6.083  19.336  0.00  0.00    +0.000 C 
ATOM     11  N   UNL     1       8.531   7.203  19.403  0.00  0.00    +0.000 N 
ATOM     12  O   UNL     1       7.532   5.452  20.356  0.00  0.00    +0.000 OA
ATOM     13  H   UNL     1       8.651   7.793  18.581  0.00  0.00    +0.000 HD
ATOM     14  H   UNL     1       8.874   7.493  20.306  0.00  0.00    +0.000 HD
ENDBRANCH   2  10
BRANCH   1  15
ATOM     15  N   UNL     1       5.647   3.897  18.697  0.00  0.00    +0.000 N 
ATOM     16  H   UNL     1       5.809   2.921  18.429  0.00  0.00    +0.000 HD
BRANCH  15  20
ATOM     17  C   UNL     1       3.322   1.588  18.518  0.00  0.00    +0.000 C 
ATOM     18  C   UNL     1       3.469   2.764  19.501  0.00  0.00    +0.000 C 
ATOM     19  C   UNL     1       4.234   2.216  20.731  0.00  0.00    +0.000 C 
ATOM     20  C   UNL     1       4.172   4.019  18.883  0.00  0.00    +0.000 C 
ATOM     21  C   UNL     1       3.798   5.108  19.892  0.00  0.00    +0.000 C 
ATOM     22  C   UNL     1       2.317   4.867  20.183  0.00  0.00    +0.000 C 
ATOM     23  C   UNL     1       2.064   3.372  19.882  0.00  0.00    +0.000 C 
ATOM     24  C   UNL     1       1.332   2.670  21.027  0.00  0.00    +0.000 C 
BRANCH  23  25
ATOM     25  O   UNL     1       1.166   3.273  18.764  0.00  0.00    +0.000 OA
ATOM     26  H   UNL     1       1.637   3.414  17.927  0.00  0.00    +0.000 HD
ENDBRANCH  23  25
ENDBRANCH  15  20
ENDBRANCH   1  15
BRANCH   7  27
ATOM     27  N   UNL     1       5.518   2.594  13.223  0.00  0.00    +0.000 N 
ATOM     28  H   UNL     1       5.580   1.600  13.456  0.00  0.00    +0.000 HD
BRANCH  27  29
ATOM     29  S   UNL     1       5.876   2.841  11.590  0.00  0.00    +0.000 S 
ATOM     30  C   UNL     1       6.238   1.211  10.947  0.00  0.00    +0.000 C 
ATOM     31  O   UNL     1       4.623   3.273  10.989  0.00  0.00    +0.000 OA
ATOM     32  O   UNL     1       7.069   3.641  11.508  0.00  0.00    +0.000 OA
ENDBRANCH  27  29
ENDBRANCH   7  27
TORSDOF 6
ENDMDL
MODEL 9
REMARK VINA RESULT:      -7.2      1.831      2.385
REMARK  Name = 
REMARK  10 active torsions:
REMARK  status: ('A' for Active; 'I' for Inactive)
REMARK    1  A    between atoms: C_1  and  C_2
REMARK    2  A    between atoms: C_2  and  C_3
REMARK    3  A    between atoms: C_4  and  N_5
REMARK    4  A    between atoms: N_5  and  C_6
REMARK    5  A    between atoms: C_7  and  C_8
REMARK    6  A    between atoms: C_15  and  N_16
REMARK    7  A    between atoms: N_16  and  S_17
REMARK    8  A    between atoms: S_17  and  C_18
REMARK    9  A    between atoms: C_25  and  C_26
REMARK   10  A    between atoms: C_25  and  O_27
REMARK                            x       y       z     vdW  Elec       q    Type
REMARK                         _______ _______ _______ _____ _____    ______ ____
ROOT
ATOM      1  C   UNL     1       2.898   4.512  18.808  0.00  0.00    +0.000 A 
ATOM      2  C   UNL     1       2.850   3.379  19.567  0.00  0.00    +0.000 A 
ATOM      3  C   UNL     1       2.022   3.435  20.809  0.00  0.00    +0.000 A 
ATOM      4  N   UNL     1       1.450   4.469  21.334  0.00  0.00    +0.000 NA
ATOM      5  N   UNL     1       1.669   5.589  20.627  0.00  0.00    +0.000 N 
ATOM      6  C   UNL     1       1.296   6.828  21.079  0.00  0.00    +0.000 A 
ATOM      7  C   UNL     1       1.665   7.757  20.146  0.00  0.00    +0.000 A 
ATOM      8  C   UNL     1       2.288   7.053  19.079  0.00  0.00    +0.000 A 
ATOM      9  C   UNL     1       2.321   5.698  19.405  0.00  0.00    +0.000 A 
ENDROOT
BRANCH   2  10
ATOM     10  C   UNL     1       3.540   2.071  19.347  0.00  0.00    +0.000 C 
ATOM     11  N   UNL     1       3.023   1.213  18.437  0.00  0.00    +0.000 N 
ATOM     12  O   UNL     1       4.564   1.775  19.946  0.00  0.00    +0.000 OA
ATOM     13  H   UNL     1       2.232   1.493  17.858  0.00  0.00    +0.000 HD
ATOM     14  H   UNL     1       3.508   0.346  18.270  0.00  0.00    +0.000 HD
ENDBRANCH   2  10
BRANCH   1  15
ATOM     15  N   UNL     1       3.585   4.622  17.559  0.00  0.00    +0.000 N 
ATOM     16  H   UNL     1       3.404   3.746  17.061  0.00  0.00    +0.000 HD
BRANCH  15  20
ATOM     17  C   UNL     1       5.485   5.824  15.169  0.00  0.00    +0.000 C 
ATOM     18  C   UNL     1       5.571   6.030  16.692  0.00  0.00    +0.000 C 
ATOM     19  C   UNL     1       4.769   7.316  17.008  0.00  0.00    +0.000 C 
ATOM     20  C   UNL     1       5.065   4.802  17.523  0.00  0.00    +0.000 C 
ATOM     21  C   UNL     1       5.651   5.106  18.905  0.00  0.00    +0.000 C 
ATOM     22  C   UNL     1       7.081   5.567  18.621  0.00  0.00    +0.000 C 
ATOM     23  C   UNL     1       7.070   6.115  17.175  0.00  0.00    +0.000 C 
ATOM     24  C   UNL     1       7.715   7.498  17.079  0.00  0.00    +0.000 C 
BRANCH  23  25
ATOM     25  O   UNL     1       7.898   5.272  16.358  0.00  0.00    +0.000 OA
ATOM     26  H   UNL     1       7.375   4.567  15.943  0.00  0.00    +0.000 HD
ENDBRANCH  23  25
ENDBRANCH  15  20
ENDBRANCH   1  15
BRANCH   7  27
ATOM     27  N   UNL     1       1.592   9.144  20.256  0.00  0.00    +0.000 N 
ATOM     28  H   UNL     1       1.448   9.530  21.192  0.00  0.00    +0.000 HD
BRANCH  27  29
ATOM     29  S   UNL     1       0.865  10.128  19.092  0.00  0.00    +0.000 S 
ATOM     30  C   UNL     1      -0.875  10.128  19.511  0.00  0.00    +0.000 C 
ATOM     31  O   UNL     1       1.371  11.466  19.356  0.00  0.00    +0.000 OA
ATOM     32  O   UNL     1       1.026   9.499  17.808  0.00  0.00    +0.000 OA
ENDBRANCH  27  29
ENDBRANCH   7  27
TORSDOF 6
ENDMDL
