MODEL 1
REMARK VINA RESULT:      -7.9      0.000      0.000
REMARK  Name = 
REMARK  6 active torsions:
REMARK  status: ('A' for Active; 'I' for Inactive)
REMARK    1  A    between atoms: C_4  and  C_5
REMARK    2  A    between atoms: C_5  and  O_6
REMARK    3  A    between atoms: O_6  and  C_7
REMARK    4  A    between atoms: C_7  and  C_8
REMARK    5  A    between atoms: C_8  and  N_9
REMARK    6  A    between atoms: C_17  and  C_18
REMARK                            x       y       z     vdW  Elec       q    Type
REMARK                         _______ _______ _______ _____ _____    ______ ____
ROOT
ATOM      1  N   UNL     1       3.625   5.593  19.441  0.00  0.00    +0.000 N 
ATOM      2  C   UNL     1       2.598   4.573  19.553  0.00  0.00    +0.000 A 
ATOM      3  C   UNL     1       1.940   4.240  20.720  0.00  0.00    +0.000 A 
ATOM      4  C   UNL     1       1.014   3.202  20.657  0.00  0.00    +0.000 A 
ATOM      5  C   UNL     1       0.727   2.574  19.428  0.00  0.00    +0.000 A 
ATOM      6  C   UNL     1       1.452   2.877  18.268  0.00  0.00    +0.000 A 
ATOM      7  C   UNL     1       2.455   3.818  18.373  0.00  0.00    +0.000 A 
ATOM      8  C   UNL     1       3.618   4.140  17.463  0.00  0.00    +0.000 C 
ATOM      9  C   UNL     1       4.520   4.735  18.570  0.00  0.00    +0.000 C 
ENDROOT
BRANCH   9  10
ATOM     10  C   UNL     1       5.878   5.378  18.296  0.00  0.00    +0.000 C 
ATOM     11  N   UNL     1       6.895   5.166  19.099  0.00  0.00    +0.000 NA
ATOM     12  C   UNL     1       7.794   6.327  18.827  0.00  0.00    +0.000 C 
ATOM     13  C   UNL     1       7.401   6.863  17.449  0.00  0.00    +0.000 C 
ATOM     14  N   UNL     1       6.047   6.358  17.338  0.00  0.00    +0.000 N 
ATOM     15  H   UNL     1       5.291   7.043  17.382  0.00  0.00    +0.000 HD
ENDBRANCH   9  10
BRANCH   1  16
ATOM     16  C   UNL     1       2.988   6.740  18.693  0.00  0.00    +0.000 C 
BRANCH  16  17
ATOM     17  C   UNL     1       2.137   7.655  19.588  0.00  0.00    +0.000 C 
BRANCH  17  18
ATOM     18  O   UNL     1       1.571   8.771  18.903  0.00  0.00    +0.000 OA
BRANCH  18  19
ATOM     19  C   UNL     1       0.863   9.654  19.766  0.00  0.00    +0.000 C 
BRANCH  19  23
ATOM     20  C   UNL     1      -2.584  11.350  17.836  0.00  0.00    +0.000 A 
ATOM     21  C   UNL     1      -1.884  10.321  17.214  0.00  0.00    +0.000 A 
ATOM     22  C   UNL     1      -0.762   9.772  17.818  0.00  0.00    +0.000 A 
ATOM     23  C   UNL     1      -0.315  10.261  19.056  0.00  0.00    +0.000 A 
ATOM     24  C   UNL     1      -1.040  11.283  19.685  0.00  0.00    +0.000 A 
ATOM     25  C   UNL     1      -2.166  11.827  19.076  0.00  0.00    +0.000 A 
ENDBRANCH  19  23
ENDBRANCH  18  19
ENDBRANCH  17  18
ENDBRANCH  16  17
ENDBRANCH   1  16
TORSDOF 6
ENDMDL
MODEL 2
REMARK VINA RESULT:      -7.9      1.901      2.693
REMARK  Name = 
REMARK  6 active torsions:
REMARK  status: ('A' for Active; 'I' for Inactive)
REMARK    1  A    between atoms: C_4  and  C_5
REMARK    2  A    between atoms: C_5  and  O_6
REMARK    3  A    between atoms: O_6  and  C_7
REMARK    4  A    between atoms: C_7  and  C_8
REMARK    5  A    between atoms: C_8  and  N_9
REMARK    6  A    between atoms: C_17  and  C_18
REMARK                            x       y       z     vdW  Elec       q    Type
REMARK                         _______ _______ _______ _____ _____    ______ ____
ROOT
ATOM      1  N   UNL     1       3.557   5.248  18.630  0.00  0.00    +0.000 N 
ATOM      2  C   UNL     1       2.648   4.449  19.432  0.00  0.00    +0.000 A 
ATOM      3  C   UNL     1       2.532   4.524  20.805  0.00  0.00    +0.000 A 
ATOM      4  C   UNL     1       1.640   3.648  21.419  0.00  0.00    +0.000 A 
ATOM      5  C   UNL     1       0.850   2.774  20.646  0.00  0.00    +0.000 A 
ATOM      6  C   UNL     1       1.028   2.664  19.261  0.00  0.00    +0.000 A 
ATOM      7  C   UNL     1       2.004   3.446  18.681  0.00  0.00    +0.000 A 
ATOM      8  C   UNL     1       2.686   3.355  17.336  0.00  0.00    +0.000 C 
ATOM      9  C   UNL     1       3.983   4.077  17.769  0.00  0.00    +0.000 C 
ENDROOT
BRANCH   9  10
ATOM     10  C   UNL     1       5.115   4.426  16.807  0.00  0.00    +0.000 C 
ATOM     11  N   UNL     1       4.866   4.698  15.546  0.00  0.00    +0.000 NA
ATOM     12  C   UNL     1       6.176   4.445  14.875  0.00  0.00    +0.000 C 
ATOM     13  C   UNL     1       7.244   4.531  15.967  0.00  0.00    +0.000 C 
ATOM     14  N   UNL     1       6.445   4.271  17.148  0.00  0.00    +0.000 N 
ATOM     15  H   UNL     1       6.596   3.380  17.624  0.00  0.00    +0.000 HD
ENDBRANCH   9  10
BRANCH   1  16
ATOM     16  C   UNL     1       2.693   6.245  17.895  0.00  0.00    +0.000 C 
BRANCH  16  17
ATOM     17  C   UNL     1       2.772   7.666  18.474  0.00  0.00    +0.000 C 
BRANCH  17  18
ATOM     18  O   UNL     1       1.745   7.965  19.419  0.00  0.00    +0.000 OA
BRANCH  18  19
ATOM     19  C   UNL     1       1.255   9.297  19.307  0.00  0.00    +0.000 C 
BRANCH  19  23
ATOM     20  C   UNL     1      -0.643  10.438  22.992  0.00  0.00    +0.000 A 
ATOM     21  C   UNL     1      -0.909  11.155  21.830  0.00  0.00    +0.000 A 
ATOM     22  C   UNL     1      -0.294  10.808  20.636  0.00  0.00    +0.000 A 
ATOM     23  C   UNL     1       0.613   9.737  20.593  0.00  0.00    +0.000 A 
ATOM     24  C   UNL     1       0.858   9.006  21.765  0.00  0.00    +0.000 A 
ATOM     25  C   UNL     1       0.236   9.357  22.958  0.00  0.00    +0.000 A 
ENDBRANCH  19  23
ENDBRANCH  18  19
ENDBRANCH  17  18
ENDBRANCH  16  17
ENDBRANCH   1  16
TORSDOF 6
ENDMDL
MODEL 3
REMARK VINA RESULT:      -7.9      0.175      1.001
REMARK  Name = 
REMARK  6 active torsions:
REMARK  status: ('A' for Active; 'I' for Inactive)
REMARK    1  A    between atoms: C_4  and  C_5
REMARK    2  A    between atoms: C_5  and  O_6
REMARK    3  A    between atoms: O_6  and  C_7
REMARK    4  A    between atoms: C_7  and  C_8
REMARK    5  A    between atoms: C_8  and  N_9
REMARK    6  A    between atoms: C_17  and  C_18
REMARK                            x       y       z     vdW  Elec       q    Type
REMARK                         _______ _______ _______ _____ _____    ______ ____
ROOT
ATOM      1  N   UNL     1       3.652   5.715  19.509  0.00  0.00    +0.000 N 
ATOM      2  C   UNL     1       2.601   4.719  19.615  0.00  0.00    +0.000 A 
ATOM      3  C   UNL     1       1.959   4.370  20.786  0.00  0.00    +0.000 A 
ATOM      4  C   UNL     1       1.004   3.358  20.714  0.00  0.00    +0.000 A 
ATOM      5  C   UNL     1       0.677   2.772  19.475  0.00  0.00    +0.000 A 
ATOM      6  C   UNL     1       1.386   3.089  18.308  0.00  0.00    +0.000 A 
ATOM      7  C   UNL     1       2.414   4.000  18.418  0.00  0.00    +0.000 A 
ATOM      8  C   UNL     1       3.567   4.318  17.493  0.00  0.00    +0.000 C 
ATOM      9  C   UNL     1       4.506   4.859  18.596  0.00  0.00    +0.000 C 
ENDROOT
BRANCH   9  10
ATOM     10  C   UNL     1       5.874   5.474  18.311  0.00  0.00    +0.000 C 
ATOM     11  N   UNL     1       6.871   5.312  19.151  0.00  0.00    +0.000 NA
ATOM     12  C   UNL     1       7.784   6.448  18.821  0.00  0.00    +0.000 C 
ATOM     13  C   UNL     1       7.427   6.890  17.401  0.00  0.00    +0.000 C 
ATOM     14  N   UNL     1       6.072   6.386  17.293  0.00  0.00    +0.000 N 
ATOM     15  H   UNL     1       5.321   7.076  17.272  0.00  0.00    +0.000 HD
ENDBRANCH   9  10
BRANCH   1  16
ATOM     16  C   UNL     1       3.030   6.898  18.806  0.00  0.00    +0.000 C 
BRANCH  16  17
ATOM     17  C   UNL     1       2.083   7.712  19.701  0.00  0.00    +0.000 C 
BRANCH  17  18
ATOM     18  O   UNL     1       1.514   8.852  19.059  0.00  0.00    +0.000 OA
BRANCH  18  19
ATOM     19  C   UNL     1       0.823   9.711  19.958  0.00  0.00    +0.000 C 
BRANCH  19  23
ATOM     20  C   UNL     1      -2.546  11.482  17.959  0.00  0.00    +0.000 A 
ATOM     21  C   UNL     1      -2.163  11.954  19.210  0.00  0.00    +0.000 A 
ATOM     22  C   UNL     1      -1.086  11.385  19.874  0.00  0.00    +0.000 A 
ATOM     23  C   UNL     1      -0.382  10.317  19.294  0.00  0.00    +0.000 A 
ATOM     24  C   UNL     1      -0.763   9.862  18.023  0.00  0.00    +0.000 A 
ATOM     25  C   UNL     1      -1.841  10.440  17.361  0.00  0.00    +0.000 A 
ENDBRANCH  19  23
ENDBRANCH  18  19
ENDBRANCH  17  18
ENDBRANCH  16  17
ENDBRANCH   1  16
TORSDOF 6
ENDMDL
MODEL 4
REMARK VINA RESULT:      -7.8      1.472      2.307
REMARK  Name = 
REMARK  6 active torsions:
REMARK  status: ('A' for Active; 'I' for Inactive)
REMARK    1  A    between atoms: C_4  and  C_5
REMARK    2  A    between atoms: C_5  and  O_6
REMARK    3  A    between atoms: O_6  and  C_7
REMARK    4  A    between atoms: C_7  and  C_8
REMARK    5  A    between atoms: C_8  and  N_9
REMARK    6  A    between atoms: C_17  and  C_18
REMARK                            x       y       z     vdW  Elec       q    Type
REMARK                         _______ _______ _______ _____ _____    ______ ____
ROOT
ATOM      1  N   UNL     1       3.162   5.825  19.033  0.00  0.00    +0.000 N 
ATOM      2  C   UNL     1       2.283   4.682  19.203  0.00  0.00    +0.000 A 
ATOM      3  C   UNL     1       1.478   4.462  20.303  0.00  0.00    +0.000 A 
ATOM      4  C   UNL     1       0.731   3.286  20.322  0.00  0.00    +0.000 A 
ATOM      5  C   UNL     1       0.760   2.403  19.224  0.00  0.00    +0.000 A 
ATOM      6  C   UNL     1       1.632   2.608  18.147  0.00  0.00    +0.000 A 
ATOM      7  C   UNL     1       2.460   3.710  18.200  0.00  0.00    +0.000 A 
ATOM      8  C   UNL     1       3.711   4.054  17.426  0.00  0.00    +0.000 C 
ATOM      9  C   UNL     1       4.309   4.988  18.504  0.00  0.00    +0.000 C 
ENDROOT
BRANCH   9  10
ATOM     10  C   UNL     1       5.591   5.792  18.306  0.00  0.00    +0.000 C 
ATOM     11  N   UNL     1       5.779   6.499  17.214  0.00  0.00    +0.000 NA
ATOM     12  C   UNL     1       7.264   6.656  17.161  0.00  0.00    +0.000 C 
ATOM     13  C   UNL     1       7.774   6.426  18.584  0.00  0.00    +0.000 C 
ATOM     14  N   UNL     1       6.682   5.654  19.142  0.00  0.00    +0.000 N 
ATOM     15  H   UNL     1       6.864   4.670  19.342  0.00  0.00    +0.000 HD
ENDBRANCH   9  10
BRANCH   1  16
ATOM     16  C   UNL     1       2.517   6.688  17.975  0.00  0.00    +0.000 C 
BRANCH  16  17
ATOM     17  C   UNL     1       2.589   8.191  18.285  0.00  0.00    +0.000 C 
BRANCH  17  18
ATOM     18  O   UNL     1       1.952   8.562  19.507  0.00  0.00    +0.000 OA
BRANCH  18  19
ATOM     19  C   UNL     1       0.854   9.447  19.317  0.00  0.00    +0.000 C 
BRANCH  19  23
ATOM     20  C   UNL     1      -0.888  10.597  23.075  0.00  0.00    +0.000 A 
ATOM     21  C   UNL     1      -0.655  11.563  22.101  0.00  0.00    +0.000 A 
ATOM     22  C   UNL     1      -0.081  11.210  20.889  0.00  0.00    +0.000 A 
ATOM     23  C   UNL     1       0.282   9.876  20.639  0.00  0.00    +0.000 A 
ATOM     24  C   UNL     1       0.023   8.907  21.619  0.00  0.00    +0.000 A 
ATOM     25  C   UNL     1      -0.556   9.267  22.832  0.00  0.00    +0.000 A 
ENDBRANCH  19  23
ENDBRANCH  18  19
ENDBRANCH  17  18
ENDBRANCH  16  17
ENDBRANCH   1  16
TORSDOF 6
ENDMDL
MODEL 5
REMARK VINA RESULT:      -7.8      3.298      7.881
REMARK  Name = 
REMARK  6 active torsions:
REMARK  status: ('A' for Active; 'I' for Inactive)
REMARK    1  A    between atoms: C_4  and  C_5
REMARK    2  A    between atoms: C_5  and  O_6
REMARK    3  A    between atoms: O_6  and  C_7
REMARK    4  A    between atoms: C_7  and  C_8
REMARK    5  A    between atoms: C_8  and  N_9
REMARK    6  A    between atoms: C_17  and  C_18
REMARK                            x       y       z     vdW  Elec       q    Type
REMARK                         _______ _______ _______ _____ _____    ______ ____
ROOT
ATOM      1  N   UNL     1      -0.424   9.771  19.039  0.00  0.00    +0.000 N 
ATOM      2  C   UNL     1      -0.391   9.824  20.489  0.00  0.00    +0.000 A 
ATOM      3  C   UNL     1      -0.153   8.744  21.314  0.00  0.00    +0.000 A 
ATOM      4  C   UNL     1      -0.204   8.967  22.688  0.00  0.00    +0.000 A 
ATOM      5  C   UNL     1      -0.427  10.263  23.194  0.00  0.00    +0.000 A 
ATOM      6  C   UNL     1      -0.734  11.334  22.345  0.00  0.00    +0.000 A 
ATOM      7  C   UNL     1      -0.805  11.073  20.993  0.00  0.00    +0.000 A 
ATOM      8  C   UNL     1      -1.416  11.860  19.856  0.00  0.00    +0.000 C 
ATOM      9  C   UNL     1      -1.659  10.641  18.936  0.00  0.00    +0.000 C 
ENDROOT
BRANCH   9  10
ATOM     10  C   UNL     1      -2.191  10.755  17.510  0.00  0.00    +0.000 C 
ATOM     11  N   UNL     1      -3.143  11.610  17.214  0.00  0.00    +0.000 NA
ATOM     12  C   UNL     1      -3.724  11.054  15.955  0.00  0.00    +0.000 C 
ATOM     13  C   UNL     1      -2.655  10.141  15.352  0.00  0.00    +0.000 C 
ATOM     14  N   UNL     1      -1.860   9.842  16.527  0.00  0.00    +0.000 N 
ATOM     15  H   UNL     1      -1.906   8.888  16.887  0.00  0.00    +0.000 HD
ENDBRANCH   9  10
BRANCH   1  16
ATOM     16  C   UNL     1       0.834  10.463  18.571  0.00  0.00    +0.000 C 
BRANCH  16  17
ATOM     17  C   UNL     1       1.852   9.510  17.925  0.00  0.00    +0.000 C 
BRANCH  17  18
ATOM     18  O   UNL     1       2.208   8.399  18.746  0.00  0.00    +0.000 OA
BRANCH  18  19
ATOM     19  C   UNL     1       2.637   7.267  17.998  0.00  0.00    +0.000 C 
BRANCH  19  23
ATOM     20  C   UNL     1       1.372   3.626  19.901  0.00  0.00    +0.000 A 
ATOM     21  C   UNL     1       1.663   4.743  20.678  0.00  0.00    +0.000 A 
ATOM     22  C   UNL     1       2.085   5.921  20.080  0.00  0.00    +0.000 A 
ATOM     23  C   UNL     1       2.235   5.992  18.685  0.00  0.00    +0.000 A 
ATOM     24  C   UNL     1       1.918   4.868  17.909  0.00  0.00    +0.000 A 
ATOM     25  C   UNL     1       1.492   3.690  18.515  0.00  0.00    +0.000 A 
ENDBRANCH  19  23
ENDBRANCH  18  19
ENDBRANCH  17  18
ENDBRANCH  16  17
ENDBRANCH   1  16
TORSDOF 6
ENDMDL
MODEL 6
REMARK VINA RESULT:      -7.8      1.482      2.111
REMARK  Name = 
REMARK  6 active torsions:
REMARK  status: ('A' for Active; 'I' for Inactive)
REMARK    1  A    between atoms: C_4  and  C_5
REMARK    2  A    between atoms: C_5  and  O_6
REMARK    3  A    between atoms: O_6  and  C_7
REMARK    4  A    between atoms: C_7  and  C_8
REMARK    5  A    between atoms: C_8  and  N_9
REMARK    6  A    between atoms: C_17  and  C_18
REMARK                            x       y       z     vdW  Elec       q    Type
REMARK                         _______ _______ _______ _____ _____    ______ ____
ROOT
ATOM      1  N   UNL     1       3.537   5.550  18.973  0.00  0.00    +0.000 N 
ATOM      2  C   UNL     1       2.560   4.500  19.194  0.00  0.00    +0.000 A 
ATOM      3  C   UNL     1       1.743   4.402  20.303  0.00  0.00    +0.000 A 
ATOM      4  C   UNL     1       0.893   3.300  20.374  0.00  0.00    +0.000 A 
ATOM      5  C   UNL     1       0.839   2.370  19.317  0.00  0.00    +0.000 A 
ATOM      6  C   UNL     1       1.722   2.447  18.232  0.00  0.00    +0.000 A 
ATOM      7  C   UNL     1       2.645   3.471  18.236  0.00  0.00    +0.000 A 
ATOM      8  C   UNL     1       3.919   3.667  17.447  0.00  0.00    +0.000 C 
ATOM      9  C   UNL     1       4.602   4.590  18.483  0.00  0.00    +0.000 C 
ENDROOT
BRANCH   9  10
ATOM     10  C   UNL     1       5.951   5.267  18.249  0.00  0.00    +0.000 C 
ATOM     11  N   UNL     1       6.951   5.077  19.080  0.00  0.00    +0.000 NA
ATOM     12  C   UNL     1       7.828   6.261  18.836  0.00  0.00    +0.000 C 
ATOM     13  C   UNL     1       7.461   6.792  17.450  0.00  0.00    +0.000 C 
ATOM     14  N   UNL     1       6.123   6.254  17.299  0.00  0.00    +0.000 N 
ATOM     15  H   UNL     1       5.350   6.921  17.323  0.00  0.00    +0.000 HD
ENDBRANCH   9  10
BRANCH   1  16
ATOM     16  C   UNL     1       2.968   6.420  17.877  0.00  0.00    +0.000 C 
BRANCH  16  17
ATOM     17  C   UNL     1       2.977   7.918  18.220  0.00  0.00    +0.000 C 
BRANCH  17  18
ATOM     18  O   UNL     1       1.791   8.371  18.871  0.00  0.00    +0.000 OA
BRANCH  18  19
ATOM     19  C   UNL     1       1.803   8.139  20.275  0.00  0.00    +0.000 C 
BRANCH  19  23
ATOM     20  C   UNL     1      -0.798  10.920  22.270  0.00  0.00    +0.000 A 
ATOM     21  C   UNL     1      -0.350   9.790  22.947  0.00  0.00    +0.000 A 
ATOM     22  C   UNL     1       0.478   8.876  22.313  0.00  0.00    +0.000 A 
ATOM     23  C   UNL     1       0.862   9.078  20.977  0.00  0.00    +0.000 A 
ATOM     24  C   UNL     1       0.423  10.230  20.310  0.00  0.00    +0.000 A 
ATOM     25  C   UNL     1      -0.405  11.145  20.953  0.00  0.00    +0.000 A 
ENDBRANCH  19  23
ENDBRANCH  18  19
ENDBRANCH  17  18
ENDBRANCH  16  17
ENDBRANCH   1  16
TORSDOF 6
ENDMDL
MODEL 7
REMARK VINA RESULT:      -7.8      1.777      2.510
REMARK  Name = 
REMARK  6 active torsions:
REMARK  status: ('A' for Active; 'I' for Inactive)
REMARK    1  A    between atoms: C_4  and  C_5
REMARK    2  A    between atoms: C_5  and  O_6
REMARK    3  A    between atoms: O_6  and  C_7
REMARK    4  A    between atoms: C_7  and  C_8
REMARK    5  A    between atoms: C_8  and  N_9
REMARK    6  A    between atoms: C_17  and  C_18
REMARK                            x       y       z     vdW  Elec       q    Type
REMARK                         _______ _______ _______ _____ _____    ______ ____
ROOT
ATOM      1  N   UNL     1       3.618   5.231  18.594  0.00  0.00    +0.000 N 
ATOM      2  C   UNL     1       2.664   4.436  19.344  0.00  0.00    +0.000 A 
ATOM      3  C   UNL     1       2.473   4.510  20.709  0.00  0.00    +0.000 A 
ATOM      4  C   UNL     1       1.545   3.637  21.272  0.00  0.00    +0.000 A 
ATOM      5  C   UNL     1       0.796   2.767  20.456  0.00  0.00    +0.000 A 
ATOM      6  C   UNL     1       1.050   2.656  19.083  0.00  0.00    +0.000 A 
ATOM      7  C   UNL     1       2.059   3.435  18.559  0.00  0.00    +0.000 A 
ATOM      8  C   UNL     1       2.814   3.341  17.252  0.00  0.00    +0.000 C 
ATOM      9  C   UNL     1       4.087   4.059  17.757  0.00  0.00    +0.000 C 
ENDROOT
BRANCH   9  10
ATOM     10  C   UNL     1       5.272   4.405  16.858  0.00  0.00    +0.000 C 
ATOM     11  N   UNL     1       6.328   5.017  17.345  0.00  0.00    +0.000 NA
ATOM     12  C   UNL     1       6.955   5.631  16.135  0.00  0.00    +0.000 C 
ATOM     13  C   UNL     1       6.429   4.847  14.932  0.00  0.00    +0.000 C 
ATOM     14  N   UNL     1       5.211   4.288  15.484  0.00  0.00    +0.000 N 
ATOM     15  H   UNL     1       4.328   4.657  15.127  0.00  0.00    +0.000 HD
ENDBRANCH   9  10
BRANCH   1  16
ATOM     16  C   UNL     1       2.800   6.232  17.813  0.00  0.00    +0.000 C 
BRANCH  16  17
ATOM     17  C   UNL     1       2.841   7.649  18.403  0.00  0.00    +0.000 C 
BRANCH  17  18
ATOM     18  O   UNL     1       1.813   7.910  19.358  0.00  0.00    +0.000 OA
BRANCH  18  19
ATOM     19  C   UNL     1       1.348   9.255  19.324  0.00  0.00    +0.000 C 
BRANCH  19  23
ATOM     20  C   UNL     1      -0.633  10.376  22.970  0.00  0.00    +0.000 A 
ATOM     21  C   UNL     1       0.287   9.332  22.980  0.00  0.00    +0.000 A 
ATOM     22  C   UNL     1       0.924   8.949  21.809  0.00  0.00    +0.000 A 
ATOM     23  C   UNL     1       0.637   9.604  20.600  0.00  0.00    +0.000 A 
ATOM     24  C   UNL     1      -0.275  10.669  20.605  0.00  0.00    +0.000 A 
ATOM     25  C   UNL     1      -0.909  11.051  21.784  0.00  0.00    +0.000 A 
ENDBRANCH  19  23
ENDBRANCH  18  19
ENDBRANCH  17  18
ENDBRANCH  16  17
ENDBRANCH   1  16
TORSDOF 6
ENDMDL
MODEL 8
REMARK VINA RESULT:      -7.8      1.556      2.343
REMARK  Name = 
REMARK  6 active torsions:
REMARK  status: ('A' for Active; 'I' for Inactive)
REMARK    1  A    between atoms: C_4  and  C_5
REMARK    2  A    between atoms: C_5  and  O_6
REMARK    3  A    between atoms: O_6  and  C_7
REMARK    4  A    between atoms: C_7  and  C_8
REMARK    5  A    between atoms: C_8  and  N_9
REMARK    6  A    between atoms: C_17  and  C_18
REMARK                            x       y       z     vdW  Elec       q    Type
REMARK                         _______ _______ _______ _____ _____    ______ ____
ROOT
ATOM      1  N   UNL     1       3.281   5.793  18.794  0.00  0.00    +0.000 N 
ATOM      2  C   UNL     1       2.400   4.771  19.329  0.00  0.00    +0.000 A 
ATOM      3  C   UNL     1       1.988   4.692  20.644  0.00  0.00    +0.000 A 
ATOM      4  C   UNL     1       1.178   3.615  20.995  0.00  0.00    +0.000 A 
ATOM      5  C   UNL     1       0.754   2.691  20.019  0.00  0.00    +0.000 A 
ATOM      6  C   UNL     1       1.236   2.746  18.705  0.00  0.00    +0.000 A 
ATOM      7  C   UNL     1       2.138   3.744  18.401  0.00  0.00    +0.000 A 
ATOM      8  C   UNL     1       3.091   3.905  17.238  0.00  0.00    +0.000 C 
ATOM      9  C   UNL     1       4.100   4.805  17.989  0.00  0.00    +0.000 C 
ENDROOT
BRANCH   9  10
ATOM     10  C   UNL     1       5.317   5.443  17.323  0.00  0.00    +0.000 C 
ATOM     11  N   UNL     1       5.614   5.179  16.071  0.00  0.00    +0.000 NA
ATOM     12  C   UNL     1       7.067   5.518  15.985  0.00  0.00    +0.000 C 
ATOM     13  C   UNL     1       7.357   6.470  17.147  0.00  0.00    +0.000 C 
ATOM     14  N   UNL     1       6.265   6.145  18.043  0.00  0.00    +0.000 N 
ATOM     15  H   UNL     1       6.503   5.653  18.906  0.00  0.00    +0.000 HD
ENDBRANCH   9  10
BRANCH   1  16
ATOM     16  C   UNL     1       2.411   6.683  17.939  0.00  0.00    +0.000 C 
BRANCH  16  17
ATOM     17  C   UNL     1       2.438   8.158  18.368  0.00  0.00    +0.000 C 
BRANCH  17  18
ATOM     18  O   UNL     1       1.658   8.439  19.530  0.00  0.00    +0.000 OA
BRANCH  18  19
ATOM     19  C   UNL     1       1.065   9.732  19.503  0.00  0.00    +0.000 C 
BRANCH  19  23
ATOM     20  C   UNL     1      -1.017  10.612  23.160  0.00  0.00    +0.000 A 
ATOM     21  C   UNL     1      -0.166   9.513  23.100  0.00  0.00    +0.000 A 
ATOM     22  C   UNL     1       0.502   9.208  21.924  0.00  0.00    +0.000 A 
ATOM     23  C   UNL     1       0.315   9.999  20.779  0.00  0.00    +0.000 A 
ATOM     24  C   UNL     1      -0.527  11.117  20.855  0.00  0.00    +0.000 A 
ATOM     25  C   UNL     1      -1.192  11.420  22.039  0.00  0.00    +0.000 A 
ENDBRANCH  19  23
ENDBRANCH  18  19
ENDBRANCH  17  18
ENDBRANCH  16  17
ENDBRANCH   1  16
TORSDOF 6
ENDMDL
MODEL 9
REMARK VINA RESULT:      -7.7      3.333      7.797
REMARK  Name = 
REMARK  6 active torsions:
REMARK  status: ('A' for Active; 'I' for Inactive)
REMARK    1  A    between atoms: C_4  and  C_5
REMARK    2  A    between atoms: C_5  and  O_6
REMARK    3  A    between atoms: O_6  and  C_7
REMARK    4  A    between atoms: C_7  and  C_8
REMARK    5  A    between atoms: C_8  and  N_9
REMARK    6  A    between atoms: C_17  and  C_18
REMARK                            x       y       z     vdW  Elec       q    Type
REMARK                         _______ _______ _______ _____ _____    ______ ____
ROOT
ATOM      1  N   UNL     1      -0.382   9.843  19.046  0.00  0.00    +0.000 N 
ATOM      2  C   UNL     1      -0.343   9.853  20.497  0.00  0.00    +0.000 A 
ATOM      3  C   UNL     1      -0.041   8.762  21.287  0.00  0.00    +0.000 A 
ATOM      4  C   UNL     1      -0.097   8.938  22.668  0.00  0.00    +0.000 A 
ATOM      5  C   UNL     1      -0.388  10.203  23.215  0.00  0.00    +0.000 A 
ATOM      6  C   UNL     1      -0.758  11.282  22.402  0.00  0.00    +0.000 A 
ATOM      7  C   UNL     1      -0.823  11.060  21.043  0.00  0.00    +0.000 A 
ATOM      8  C   UNL     1      -1.483  11.848  19.935  0.00  0.00    +0.000 C 
ATOM      9  C   UNL     1      -1.664  10.647  18.977  0.00  0.00    +0.000 C 
ENDROOT
BRANCH   9  10
ATOM     10  C   UNL     1      -2.210  10.776  17.557  0.00  0.00    +0.000 C 
ATOM     11  N   UNL     1      -3.222  11.573  17.296  0.00  0.00    +0.000 NA
ATOM     12  C   UNL     1      -3.769  11.024  16.019  0.00  0.00    +0.000 C 
ATOM     13  C   UNL     1      -2.641  10.213  15.379  0.00  0.00    +0.000 C 
ATOM     14  N   UNL     1      -1.821   9.927  16.540  0.00  0.00    +0.000 N 
ATOM     15  H   UNL     1      -1.798   8.959  16.864  0.00  0.00    +0.000 HD
ENDBRANCH   9  10
BRANCH   1  16
ATOM     16  C   UNL     1       0.833  10.618  18.595  0.00  0.00    +0.000 C 
BRANCH  16  17
ATOM     17  C   UNL     1       1.915   9.738  17.951  0.00  0.00    +0.000 C 
BRANCH  17  18
ATOM     18  O   UNL     1       1.632   8.340  18.002  0.00  0.00    +0.000 OA
BRANCH  18  19
ATOM     19  C   UNL     1       2.586   7.605  18.760  0.00  0.00    +0.000 C 
BRANCH  19  23
ATOM     20  C   UNL     1       1.304   3.580  19.556  0.00  0.00    +0.000 A 
ATOM     21  C   UNL     1       1.540   3.980  18.244  0.00  0.00    +0.000 A 
ATOM     22  C   UNL     1       1.941   5.279  17.970  0.00  0.00    +0.000 A 
ATOM     23  C   UNL     1       2.099   6.206  19.013  0.00  0.00    +0.000 A 
ATOM     24  C   UNL     1       1.880   5.787  20.333  0.00  0.00    +0.000 A 
ATOM     25  C   UNL     1       1.481   4.482  20.602  0.00  0.00    +0.000 A 
ENDBRANCH  19  23
ENDBRANCH  18  19
ENDBRANCH  17  18
ENDBRANCH  16  17
ENDBRANCH   1  16
TORSDOF 6
ENDMDL
