MODEL 1
REMARK VINA RESULT:      -5.4      0.000      0.000
REMARK  Name = 
REMARK  7 active torsions:
REMARK  status: ('A' for Active; 'I' for Inactive)
REMARK    1  A    between atoms: C_1  and  C_2
REMARK    2  A    between atoms: C_5  and  C_6
REMARK    3  A    between atoms: C_6  and  N_7
REMARK    4  A    between atoms: N_7  and  C_8
REMARK    5  A    between atoms: N_7  and  C_9
REMARK    6  A    between atoms: N_7  and  C_10
REMARK    7  A    between atoms: C_12  and  C_13
REMARK                            x       y       z     vdW  Elec       q    Type
REMARK                         _______ _______ _______ _____ _____    ______ ____
ROOT
ATOM      1  C   UNL     1       1.882   2.851  21.577  0.00  0.00    +0.000 C 
ATOM      2  C   UNL     1       1.930   3.132  20.077  0.00  0.00    +0.000 C 
ATOM      3  O   UNL     1       2.710   2.134  19.387  0.00  0.00    +0.000 OA
ATOM      4  C   UNL     1       4.113   2.282  19.628  0.00  0.00    +0.000 C 
ATOM      5  C   UNL     1       4.593   3.652  19.133  0.00  0.00    +0.000 C 
ATOM      6  O   UNL     1       3.851   4.685  19.805  0.00  0.00    +0.000 OA
ATOM      7  C   UNL     1       2.422   4.542  19.685  0.00  0.00    +0.000 C 
ATOM      8  C   UNL     1       1.790   5.675  20.480  0.00  0.00    +0.000 C 
ENDROOT
BRANCH   5   9
ATOM      9  C   UNL     1       4.492   3.730  17.588  0.00  0.00    +0.000 C 
BRANCH   9  10
ATOM     10  N   UNL     1       5.623   4.536  16.878  0.00  0.00    +0.000 N 
ATOM     11  C   UNL     1       6.860   4.710  17.752  0.00  0.00    +0.000 C 
ATOM     12  C   UNL     1       6.035   3.879  15.569  0.00  0.00    +0.000 C 
ATOM     13  C   UNL     1       5.063   5.931  16.578  0.00  0.00    +0.000 C 
ENDBRANCH   9  10
ENDBRANCH   5   9
TORSDOF 2
ENDMDL
MODEL 2
REMARK VINA RESULT:      -5.4      0.148      1.195
REMARK  Name = 
REMARK  7 active torsions:
REMARK  status: ('A' for Active; 'I' for Inactive)
REMARK    1  A    between atoms: C_1  and  C_2
REMARK    2  A    between atoms: C_5  and  C_6
REMARK    3  A    between atoms: C_6  and  N_7
REMARK    4  A    between atoms: N_7  and  C_8
REMARK    5  A    between atoms: N_7  and  C_9
REMARK    6  A    between atoms: N_7  and  C_10
REMARK    7  A    between atoms: C_12  and  C_13
REMARK                            x       y       z     vdW  Elec       q    Type
REMARK                         _______ _______ _______ _____ _____    ______ ____
ROOT
ATOM      1  C   UNL     1       2.109   2.849  21.642  0.00  0.00    +0.000 C 
ATOM      2  C   UNL     1       2.084   3.105  20.136  0.00  0.00    +0.000 C 
ATOM      3  O   UNL     1       2.902   2.147  19.434  0.00  0.00    +0.000 OA
ATOM      4  C   UNL     1       4.300   2.388  19.620  0.00  0.00    +0.000 C 
ATOM      5  C   UNL     1       4.672   3.777  19.086  0.00  0.00    +0.000 C 
ATOM      6  O   UNL     1       3.890   4.772  19.768  0.00  0.00    +0.000 OA
ATOM      7  C   UNL     1       2.470   4.536  19.704  0.00  0.00    +0.000 C 
ATOM      8  C   UNL     1       1.796   5.641  20.504  0.00  0.00    +0.000 C 
ENDROOT
BRANCH   5   9
ATOM      9  C   UNL     1       4.511   3.820  17.545  0.00  0.00    +0.000 C 
BRANCH   9  10
ATOM     10  N   UNL     1       5.616   4.605  16.772  0.00  0.00    +0.000 N 
ATOM     11  C   UNL     1       6.058   3.898  15.496  0.00  0.00    +0.000 C 
ATOM     12  C   UNL     1       5.152   6.012  16.420  0.00  0.00    +0.000 C 
ATOM     13  C   UNL     1       6.832   4.703  17.699  0.00  0.00    +0.000 C 
ENDBRANCH   9  10
ENDBRANCH   5   9
TORSDOF 2
ENDMDL
MODEL 3
REMARK VINA RESULT:      -5.4      0.064      1.197
REMARK  Name = 
REMARK  7 active torsions:
REMARK  status: ('A' for Active; 'I' for Inactive)
REMARK    1  A    between atoms: C_1  and  C_2
REMARK    2  A    between atoms: C_5  and  C_6
REMARK    3  A    between atoms: C_6  and  N_7
REMARK    4  A    between atoms: N_7  and  C_8
REMARK    5  A    between atoms: N_7  and  C_9
REMARK    6  A    between atoms: N_7  and  C_10
REMARK    7  A    between atoms: C_12  and  C_13
REMARK                            x       y       z     vdW  Elec       q    Type
REMARK                         _______ _______ _______ _____ _____    ______ ____
ROOT
ATOM      1  C   UNL     1       1.865   2.870  21.613  0.00  0.00    +0.000 C 
ATOM      2  C   UNL     1       1.919   3.132  20.109  0.00  0.00    +0.000 C 
ATOM      3  O   UNL     1       2.684   2.113  19.433  0.00  0.00    +0.000 OA
ATOM      4  C   UNL     1       4.089   2.241  19.674  0.00  0.00    +0.000 C 
ATOM      5  C   UNL     1       4.592   3.598  19.163  0.00  0.00    +0.000 C 
ATOM      6  O   UNL     1       3.866   4.650  19.821  0.00  0.00    +0.000 OA
ATOM      7  C   UNL     1       2.435   4.529  19.701  0.00  0.00    +0.000 C 
ATOM      8  C   UNL     1       1.820   5.682  20.481  0.00  0.00    +0.000 C 
ENDROOT
BRANCH   5   9
ATOM      9  C   UNL     1       4.494   3.658  17.617  0.00  0.00    +0.000 C 
BRANCH   9  10
ATOM     10  N   UNL     1       5.548   4.565  16.910  0.00  0.00    +0.000 N 
ATOM     11  C   UNL     1       4.995   5.940  16.551  0.00  0.00    +0.000 C 
ATOM     12  C   UNL     1       6.791   4.744  17.770  0.00  0.00    +0.000 C 
ATOM     13  C   UNL     1       5.944   3.866  15.605  0.00  0.00    +0.000 C 
ENDBRANCH   9  10
ENDBRANCH   5   9
TORSDOF 2
ENDMDL
MODEL 4
REMARK VINA RESULT:      -5.3      1.430      2.111
REMARK  Name = 
REMARK  7 active torsions:
REMARK  status: ('A' for Active; 'I' for Inactive)
REMARK    1  A    between atoms: C_1  and  C_2
REMARK    2  A    between atoms: C_5  and  C_6
REMARK    3  A    between atoms: C_6  and  N_7
REMARK    4  A    between atoms: N_7  and  C_8
REMARK    5  A    between atoms: N_7  and  C_9
REMARK    6  A    between atoms: N_7  and  C_10
REMARK    7  A    between atoms: C_12  and  C_13
REMARK                            x       y       z     vdW  Elec       q    Type
REMARK                         _______ _______ _______ _____ _____    ______ ____
ROOT
ATOM      1  C   UNL     1       2.492   3.179  21.148  0.00  0.00    +0.000 C 
ATOM      2  C   UNL     1       3.158   2.590  19.905  0.00  0.00    +0.000 C 
ATOM      3  O   UNL     1       4.491   3.113  19.735  0.00  0.00    +0.000 OA
ATOM      4  C   UNL     1       4.488   4.473  19.292  0.00  0.00    +0.000 C 
ATOM      5  C   UNL     1       3.782   4.585  17.934  0.00  0.00    +0.000 C 
ATOM      6  O   UNL     1       2.438   4.087  18.057  0.00  0.00    +0.000 OA
ATOM      7  C   UNL     1       2.363   2.751  18.592  0.00  0.00    +0.000 C 
ATOM      8  C   UNL     1       0.887   2.394  18.699  0.00  0.00    +0.000 C 
ENDROOT
BRANCH   5   9
ATOM      9  C   UNL     1       4.607   3.862  16.839  0.00  0.00    +0.000 C 
BRANCH   9  10
ATOM     10  N   UNL     1       5.616   4.756  16.055  0.00  0.00    +0.000 N 
ATOM     11  C   UNL     1       5.236   6.232  16.076  0.00  0.00    +0.000 C 
ATOM     12  C   UNL     1       7.030   4.605  16.599  0.00  0.00    +0.000 C 
ATOM     13  C   UNL     1       5.594   4.289  14.596  0.00  0.00    +0.000 C 
ENDBRANCH   9  10
ENDBRANCH   5   9
TORSDOF 2
ENDMDL
MODEL 5
REMARK VINA RESULT:      -5.3      1.166      1.238
REMARK  Name = 
REMARK  7 active torsions:
REMARK  status: ('A' for Active; 'I' for Inactive)
REMARK    1  A    between atoms: C_1  and  C_2
REMARK    2  A    between atoms: C_5  and  C_6
REMARK    3  A    between atoms: C_6  and  N_7
REMARK    4  A    between atoms: N_7  and  C_8
REMARK    5  A    between atoms: N_7  and  C_9
REMARK    6  A    between atoms: N_7  and  C_10
REMARK    7  A    between atoms: C_12  and  C_13
REMARK                            x       y       z     vdW  Elec       q    Type
REMARK                         _______ _______ _______ _____ _____    ______ ____
ROOT
ATOM      1  C   UNL     1       0.996   2.860  19.811  0.00  0.00    +0.000 C 
ATOM      2  C   UNL     1       1.438   3.703  18.616  0.00  0.00    +0.000 C 
ATOM      3  O   UNL     1       1.974   2.872  17.566  0.00  0.00    +0.000 OA
ATOM      4  C   UNL     1       3.267   2.354  17.891  0.00  0.00    +0.000 C 
ATOM      5  C   UNL     1       4.259   3.504  18.106  0.00  0.00    +0.000 C 
ATOM      6  O   UNL     1       3.774   4.356  19.159  0.00  0.00    +0.000 OA
ATOM      7  C   UNL     1       2.433   4.837  18.942  0.00  0.00    +0.000 C 
ATOM      8  C   UNL     1       2.058   5.678  20.154  0.00  0.00    +0.000 C 
ENDROOT
BRANCH   5   9
ATOM      9  C   UNL     1       4.507   4.256  16.773  0.00  0.00    +0.000 C 
BRANCH   9  10
ATOM     10  N   UNL     1       5.914   4.912  16.621  0.00  0.00    +0.000 N 
ATOM     11  C   UNL     1       6.843   4.591  17.786  0.00  0.00    +0.000 C 
ATOM     12  C   UNL     1       6.586   4.487  15.323  0.00  0.00    +0.000 C 
ATOM     13  C   UNL     1       5.704   6.430  16.596  0.00  0.00    +0.000 C 
ENDBRANCH   9  10
ENDBRANCH   5   9
TORSDOF 2
ENDMDL
MODEL 6
REMARK VINA RESULT:      -5.3      1.355      1.769
REMARK  Name = 
REMARK  7 active torsions:
REMARK  status: ('A' for Active; 'I' for Inactive)
REMARK    1  A    between atoms: C_1  and  C_2
REMARK    2  A    between atoms: C_5  and  C_6
REMARK    3  A    between atoms: C_6  and  N_7
REMARK    4  A    between atoms: N_7  and  C_8
REMARK    5  A    between atoms: N_7  and  C_9
REMARK    6  A    between atoms: N_7  and  C_10
REMARK    7  A    between atoms: C_12  and  C_13
REMARK                            x       y       z     vdW  Elec       q    Type
REMARK                         _______ _______ _______ _____ _____    ______ ____
ROOT
ATOM      1  C   UNL     1       2.347   3.369  21.205  0.00  0.00    +0.000 C 
ATOM      2  C   UNL     1       3.056   2.692  20.033  0.00  0.00    +0.000 C 
ATOM      3  O   UNL     1       4.408   3.176  19.896  0.00  0.00    +0.000 OA
ATOM      4  C   UNL     1       4.456   4.507  19.372  0.00  0.00    +0.000 C 
ATOM      5  C   UNL     1       3.817   4.551  17.978  0.00  0.00    +0.000 C 
ATOM      6  O   UNL     1       2.458   4.089  18.066  0.00  0.00    +0.000 OA
ATOM      7  C   UNL     1       2.326   2.790  18.676  0.00  0.00    +0.000 C 
ATOM      8  C   UNL     1       0.839   2.470  18.733  0.00  0.00    +0.000 C 
ENDROOT
BRANCH   5   9
ATOM      9  C   UNL     1       4.675   3.745  16.969  0.00  0.00    +0.000 C 
BRANCH   9  10
ATOM     10  N   UNL     1       5.718   4.574  16.158  0.00  0.00    +0.000 N 
ATOM     11  C   UNL     1       7.090   4.608  16.822  0.00  0.00    +0.000 C 
ATOM     12  C   UNL     1       5.870   4.039  14.741  0.00  0.00    +0.000 C 
ATOM     13  C   UNL     1       5.196   6.014  16.090  0.00  0.00    +0.000 C 
ENDBRANCH   9  10
ENDBRANCH   5   9
TORSDOF 2
ENDMDL
MODEL 7
REMARK VINA RESULT:      -5.3      1.544      2.218
REMARK  Name = 
REMARK  7 active torsions:
REMARK  status: ('A' for Active; 'I' for Inactive)
REMARK    1  A    between atoms: C_1  and  C_2
REMARK    2  A    between atoms: C_5  and  C_6
REMARK    3  A    between atoms: C_6  and  N_7
REMARK    4  A    between atoms: N_7  and  C_8
REMARK    5  A    between atoms: N_7  and  C_9
REMARK    6  A    between atoms: N_7  and  C_10
REMARK    7  A    between atoms: C_12  and  C_13
REMARK                            x       y       z     vdW  Elec       q    Type
REMARK                         _______ _______ _______ _____ _____    ______ ____
ROOT
ATOM      1  C   UNL     1       1.149   2.618  18.756  0.00  0.00    +0.000 C 
ATOM      2  C   UNL     1       1.746   3.929  18.250  0.00  0.00    +0.000 C 
ATOM      3  O   UNL     1       2.653   3.695  17.152  0.00  0.00    +0.000 OA
ATOM      4  C   UNL     1       3.884   3.107  17.582  0.00  0.00    +0.000 C 
ATOM      5  C   UNL     1       4.600   4.039  18.568  0.00  0.00    +0.000 C 
ATOM      6  O   UNL     1       3.738   4.291  19.691  0.00  0.00    +0.000 OA
ATOM      7  C   UNL     1       2.439   4.796  19.323  0.00  0.00    +0.000 C 
ATOM      8  C   UNL     1       1.644   4.966  20.609  0.00  0.00    +0.000 C 
ENDROOT
BRANCH   5   9
ATOM      9  C   UNL     1       5.061   5.331  17.846  0.00  0.00    +0.000 C 
BRANCH   9  10
ATOM     10  N   UNL     1       6.585   5.649  17.941  0.00  0.00    +0.000 N 
ATOM     11  C   UNL     1       6.947   6.993  17.319  0.00  0.00    +0.000 C 
ATOM     12  C   UNL     1       7.067   5.629  19.385  0.00  0.00    +0.000 C 
ATOM     13  C   UNL     1       7.324   4.558  17.158  0.00  0.00    +0.000 C 
ENDBRANCH   9  10
ENDBRANCH   5   9
TORSDOF 2
ENDMDL
MODEL 8
REMARK VINA RESULT:      -5.3      1.240      1.644
REMARK  Name = 
REMARK  7 active torsions:
REMARK  status: ('A' for Active; 'I' for Inactive)
REMARK    1  A    between atoms: C_1  and  C_2
REMARK    2  A    between atoms: C_5  and  C_6
REMARK    3  A    between atoms: C_6  and  N_7
REMARK    4  A    between atoms: N_7  and  C_8
REMARK    5  A    between atoms: N_7  and  C_9
REMARK    6  A    between atoms: N_7  and  C_10
REMARK    7  A    between atoms: C_12  and  C_13
REMARK                            x       y       z     vdW  Elec       q    Type
REMARK                         _______ _______ _______ _____ _____    ______ ____
ROOT
ATOM      1  C   UNL     1       1.028   2.932  19.779  0.00  0.00    +0.000 C 
ATOM      2  C   UNL     1       1.460   3.778  18.583  0.00  0.00    +0.000 C 
ATOM      3  O   UNL     1       1.971   2.948  17.519  0.00  0.00    +0.000 OA
ATOM      4  C   UNL     1       3.265   2.416  17.822  0.00  0.00    +0.000 C 
ATOM      5  C   UNL     1       4.270   3.556  18.029  0.00  0.00    +0.000 C 
ATOM      6  O   UNL     1       3.809   4.406  19.094  0.00  0.00    +0.000 OA
ATOM      7  C   UNL     1       2.470   4.901  18.900  0.00  0.00    +0.000 C 
ATOM      8  C   UNL     1       2.121   5.739  20.122  0.00  0.00    +0.000 C 
ENDROOT
BRANCH   5   9
ATOM      9  C   UNL     1       4.505   4.313  16.697  0.00  0.00    +0.000 C 
BRANCH   9  10
ATOM     10  N   UNL     1       5.820   5.149  16.619  0.00  0.00    +0.000 N 
ATOM     11  C   UNL     1       5.609   6.615  16.983  0.00  0.00    +0.000 C 
ATOM     12  C   UNL     1       6.899   4.569  17.522  0.00  0.00    +0.000 C 
ATOM     13  C   UNL     1       6.306   5.093  15.167  0.00  0.00    +0.000 C 
ENDBRANCH   9  10
ENDBRANCH   5   9
TORSDOF 2
ENDMDL
MODEL 9
REMARK VINA RESULT:      -5.3      1.423      2.044
REMARK  Name = 
REMARK  7 active torsions:
REMARK  status: ('A' for Active; 'I' for Inactive)
REMARK    1  A    between atoms: C_1  and  C_2
REMARK    2  A    between atoms: C_5  and  C_6
REMARK    3  A    between atoms: C_6  and  N_7
REMARK    4  A    between atoms: N_7  and  C_8
REMARK    5  A    between atoms: N_7  and  C_9
REMARK    6  A    between atoms: N_7  and  C_10
REMARK    7  A    between atoms: C_12  and  C_13
REMARK                            x       y       z     vdW  Elec       q    Type
REMARK                         _______ _______ _______ _____ _____    ______ ____
ROOT
ATOM      1  C   UNL     1       0.957   2.509  19.069  0.00  0.00    +0.000 C 
ATOM      2  C   UNL     1       1.394   3.776  18.335  0.00  0.00    +0.000 C 
ATOM      3  O   UNL     1       2.125   3.453  17.135  0.00  0.00    +0.000 OA
ATOM      4  C   UNL     1       3.439   2.963  17.416  0.00  0.00    +0.000 C 
ATOM      5  C   UNL     1       4.251   4.027  18.167  0.00  0.00    +0.000 C 
ATOM      6  O   UNL     1       3.567   4.372  19.384  0.00  0.00    +0.000 OA
ATOM      7  C   UNL     1       2.200   4.784  19.182  0.00  0.00    +0.000 C 
ATOM      8  C   UNL     1       1.611   5.068  20.556  0.00  0.00    +0.000 C 
ENDROOT
BRANCH   5   9
ATOM      9  C   UNL     1       4.520   5.245  17.247  0.00  0.00    +0.000 C 
BRANCH   9  10
ATOM     10  N   UNL     1       6.020   5.527  16.924  0.00  0.00    +0.000 N 
ATOM     11  C   UNL     1       6.388   5.182  15.485  0.00  0.00    +0.000 C 
ATOM     12  C   UNL     1       6.379   6.983  17.187  0.00  0.00    +0.000 C 
ATOM     13  C   UNL     1       6.857   4.636  17.847  0.00  0.00    +0.000 C 
ENDBRANCH   9  10
ENDBRANCH   5   9
TORSDOF 2
ENDMDL
