MODEL 1
REMARK VINA RESULT:      -8.2      0.000      0.000
REMARK  Name = 
REMARK  8 active torsions:
REMARK  status: ('A' for Active; 'I' for Inactive)
REMARK    1  A    between atoms: S_2  and  C_4
REMARK    2  A    between atoms: S_2  and  N_11
REMARK    3  A    between atoms: C_4  and  C_5
REMARK    4  A    between atoms: N_19  and  C_20
REMARK    5  A    between atoms: C_20  and  C_21
REMARK    6  A    between atoms: C_26  and  C_27
REMARK    7  A    between atoms: C_27  and  C_28
REMARK    8  A    between atoms: C_28  and  C_29
REMARK                            x       y       z     vdW  Elec       q    Type
REMARK                         _______ _______ _______ _____ _____    ______ ____
ROOT
ATOM      1  N   UNL     1       4.259   5.494  17.580  0.00  0.00    +0.000 NA
ATOM      2  C   UNL     1       4.660   5.006  18.937  0.00  0.00    +0.000 C 
ATOM      3  C   UNL     1       3.537   4.493  19.831  0.00  0.00    +0.000 A 
ATOM      4  C   UNL     1       3.787   3.217  20.408  0.00  0.00    +0.000 A 
ATOM      5  C   UNL     1       2.810   2.524  21.107  0.00  0.00    +0.000 A 
ATOM      6  C   UNL     1       1.555   3.082  21.220  0.00  0.00    +0.000 A 
ATOM      7  C   UNL     1       1.330   4.384  20.756  0.00  0.00    +0.000 A 
ATOM      8  C   UNL     1       2.319   5.171  20.119  0.00  0.00    +0.000 A 
ATOM      9  N   UNL     1       2.057   6.525  19.809  0.00  0.00    +0.000 N 
ATOM     10  C   UNL     1       2.963   7.229  18.863  0.00  0.00    +0.000 C 
ATOM     11  C   UNL     1       3.054   6.374  17.575  0.00  0.00    +0.000 C 
ENDROOT
BRANCH   1  13
ATOM     12  O   UNL     1       6.377   6.890  17.584  0.00  0.00    +0.000 OA
ATOM     13  S   UNL     1       5.582   6.103  16.675  0.00  0.00    +0.000 S 
ATOM     14  O   UNL     1       5.010   6.683  15.474  0.00  0.00    +0.000 OA
BRANCH  13  15
ATOM     15  C   UNL     1       6.469   4.578  16.265  0.00  0.00    +0.000 C 
BRANCH  15  16
ATOM     16  C   UNL     1       6.642   4.534  14.769  0.00  0.00    +0.000 A 
ATOM     17  C   UNL     1       5.872   3.653  13.996  0.00  0.00    +0.000 A 
ATOM     18  C   UNL     1       6.110   3.522  12.628  0.00  0.00    +0.000 A 
ATOM     19  C   UNL     1       7.111   4.276  12.018  0.00  0.00    +0.000 A 
ATOM     20  C   UNL     1       7.859   5.179  12.771  0.00  0.00    +0.000 A 
ATOM     21  C   UNL     1       7.623   5.313  14.140  0.00  0.00    +0.000 A 
ENDBRANCH  15  16
ENDBRANCH  13  15
ENDBRANCH   1  13
BRANCH   9  22
ATOM     22  C   UNL     1       0.746   7.127  20.164  0.00  0.00    +0.000 C 
BRANCH  22  23
ATOM     23  C   UNL     1       0.643   8.066  21.346  0.00  0.00    +0.000 A 
ATOM     24  C   UNL     1       1.608   8.784  22.025  0.00  0.00    +0.000 A 
ATOM     25  N   UNL     1       0.935   9.488  22.990  0.00  0.00    +0.000 N 
ATOM     26  C   UNL     1      -0.396   9.215  22.841  0.00  0.00    +0.000 A 
ATOM     27  N   UNL     1      -0.605   8.364  21.866  0.00  0.00    +0.000 NA
ATOM     28  H   UNL     1       1.338  10.107  23.677  0.00  0.00    +0.000 HD
ENDBRANCH  22  23
ENDBRANCH   9  22
BRANCH  10  29
ATOM     29  C   UNL     1       2.622   8.686  18.488  0.00  0.00    +0.000 C 
BRANCH  29  30
ATOM     30  C   UNL     1       1.367   8.808  17.616  0.00  0.00    +0.000 C 
BRANCH  30  31
ATOM     31  C   UNL     1       0.416   9.871  18.108  0.00  0.00    +0.000 A 
ATOM     32  C   UNL     1      -0.926   9.862  17.707  0.00  0.00    +0.000 A 
ATOM     33  C   UNL     1      -1.811  10.833  18.179  0.00  0.00    +0.000 A 
ATOM     34  C   UNL     1      -1.360  11.822  19.050  0.00  0.00    +0.000 A 
ATOM     35  C   UNL     1      -0.026  11.841  19.454  0.00  0.00    +0.000 A 
ATOM     36  C   UNL     1       0.859  10.869  18.987  0.00  0.00    +0.000 A 
ENDBRANCH  30  31
ENDBRANCH  29  30
ENDBRANCH  10  29
TORSDOF 8
ENDMDL
MODEL 2
REMARK VINA RESULT:      -8.0      0.243      1.177
REMARK  Name = 
REMARK  8 active torsions:
REMARK  status: ('A' for Active; 'I' for Inactive)
REMARK    1  A    between atoms: S_2  and  C_4
REMARK    2  A    between atoms: S_2  and  N_11
REMARK    3  A    between atoms: C_4  and  C_5
REMARK    4  A    between atoms: N_19  and  C_20
REMARK    5  A    between atoms: C_20  and  C_21
REMARK    6  A    between atoms: C_26  and  C_27
REMARK    7  A    between atoms: C_27  and  C_28
REMARK    8  A    between atoms: C_28  and  C_29
REMARK                            x       y       z     vdW  Elec       q    Type
REMARK                         _______ _______ _______ _____ _____    ______ ____
ROOT
ATOM      1  N   UNL     1       4.276   5.710  17.481  0.00  0.00    +0.000 NA
ATOM      2  C   UNL     1       4.718   5.169  18.805  0.00  0.00    +0.000 C 
ATOM      3  C   UNL     1       3.626   4.589  19.697  0.00  0.00    +0.000 A 
ATOM      4  C   UNL     1       3.918   3.294  20.208  0.00  0.00    +0.000 A 
ATOM      5  C   UNL     1       2.972   2.546  20.894  0.00  0.00    +0.000 A 
ATOM      6  C   UNL     1       1.707   3.069  21.059  0.00  0.00    +0.000 A 
ATOM      7  C   UNL     1       1.443   4.385  20.662  0.00  0.00    +0.000 A 
ATOM      8  C   UNL     1       2.400   5.224  20.042  0.00  0.00    +0.000 A 
ATOM      9  N   UNL     1       2.101   6.584  19.801  0.00  0.00    +0.000 N 
ATOM     10  C   UNL     1       2.970   7.353  18.872  0.00  0.00    +0.000 C 
ATOM     11  C   UNL     1       3.052   6.561  17.543  0.00  0.00    +0.000 C 
ENDROOT
BRANCH   1  13
ATOM     12  O   UNL     1       6.192   7.373  17.429  0.00  0.00    +0.000 OA
ATOM     13  S   UNL     1       5.565   6.392  16.579  0.00  0.00    +0.000 S 
ATOM     14  O   UNL     1       5.002   6.756  15.292  0.00  0.00    +0.000 OA
BRANCH  13  15
ATOM     15  C   UNL     1       6.667   4.966  16.393  0.00  0.00    +0.000 C 
BRANCH  15  16
ATOM     16  C   UNL     1       6.785   4.665  14.921  0.00  0.00    +0.000 A 
ATOM     17  C   UNL     1       7.728   5.344  14.136  0.00  0.00    +0.000 A 
ATOM     18  C   UNL     1       7.761   5.157  12.755  0.00  0.00    +0.000 A 
ATOM     19  C   UNL     1       6.862   4.285  12.146  0.00  0.00    +0.000 A 
ATOM     20  C   UNL     1       5.943   3.579  12.921  0.00  0.00    +0.000 A 
ATOM     21  C   UNL     1       5.906   3.763  14.304  0.00  0.00    +0.000 A 
ENDBRANCH  15  16
ENDBRANCH  13  15
ENDBRANCH   1  13
BRANCH   9  22
ATOM     22  C   UNL     1       0.785   7.138  20.212  0.00  0.00    +0.000 C 
BRANCH  22  23
ATOM     23  C   UNL     1       0.710   8.153  21.331  0.00  0.00    +0.000 A 
ATOM     24  C   UNL     1       1.699   8.739  22.097  0.00  0.00    +0.000 A 
ATOM     25  N   UNL     1       1.051   9.606  22.938  0.00  0.00    +0.000 N 
ATOM     26  C   UNL     1      -0.280   9.554  22.633  0.00  0.00    +0.000 A 
ATOM     27  N   UNL     1      -0.520   8.691  21.675  0.00  0.00    +0.000 NA
ATOM     28  H   UNL     1       1.472  10.190  23.645  0.00  0.00    +0.000 HD
ENDBRANCH  22  23
ENDBRANCH   9  22
BRANCH  10  29
ATOM     29  C   UNL     1       2.588   8.818  18.572  0.00  0.00    +0.000 C 
BRANCH  29  30
ATOM     30  C   UNL     1       1.410   8.949  17.599  0.00  0.00    +0.000 C 
BRANCH  30  31
ATOM     31  C   UNL     1       0.364   9.924  18.078  0.00  0.00    +0.000 A 
ATOM     32  C   UNL     1       0.715  10.973  18.940  0.00  0.00    +0.000 A 
ATOM     33  C   UNL     1      -0.248  11.888  19.366  0.00  0.00    +0.000 A 
ATOM     34  C   UNL     1      -1.569  11.760  18.940  0.00  0.00    +0.000 A 
ATOM     35  C   UNL     1      -1.928  10.720  18.084  0.00  0.00    +0.000 A 
ATOM     36  C   UNL     1      -0.966   9.806  17.653  0.00  0.00    +0.000 A 
ENDBRANCH  30  31
ENDBRANCH  29  30
ENDBRANCH  10  29
TORSDOF 8
ENDMDL
MODEL 3
REMARK VINA RESULT:      -7.5      7.563     11.420
REMARK  Name = 
REMARK  8 active torsions:
REMARK  status: ('A' for Active; 'I' for Inactive)
REMARK    1  A    between atoms: S_2  and  C_4
REMARK    2  A    between atoms: S_2  and  N_11
REMARK    3  A    between atoms: C_4  and  C_5
REMARK    4  A    between atoms: N_19  and  C_20
REMARK    5  A    between atoms: C_20  and  C_21
REMARK    6  A    between atoms: C_26  and  C_27
REMARK    7  A    between atoms: C_27  and  C_28
REMARK    8  A    between atoms: C_28  and  C_29
REMARK                            x       y       z     vdW  Elec       q    Type
REMARK                         _______ _______ _______ _____ _____    ______ ____
ROOT
ATOM      1  N   UNL     1      -1.422  13.824  22.988  0.00  0.00    +0.000 NA
ATOM      2  C   UNL     1      -1.935  12.426  22.832  0.00  0.00    +0.000 C 
ATOM      3  C   UNL     1      -0.922  11.379  22.385  0.00  0.00    +0.000 A 
ATOM      4  C   UNL     1      -0.904  10.205  23.189  0.00  0.00    +0.000 A 
ATOM      5  C   UNL     1       0.067   9.226  23.035  0.00  0.00    +0.000 A 
ATOM      6  C   UNL     1       1.054   9.415  22.092  0.00  0.00    +0.000 A 
ATOM      7  C   UNL     1       0.981  10.508  21.220  0.00  0.00    +0.000 A 
ATOM      8  C   UNL     1      -0.040  11.487  21.273  0.00  0.00    +0.000 A 
ATOM      9  N   UNL     1      -0.125  12.479  20.270  0.00  0.00    +0.000 N 
ATOM     10  C   UNL     1      -0.980  13.670  20.514  0.00  0.00    +0.000 C 
ATOM     11  C   UNL     1      -0.551  14.287  21.869  0.00  0.00    +0.000 C 
ENDROOT
BRANCH   1  13
ATOM     12  O   UNL     1      -2.138  16.253  23.145  0.00  0.00    +0.000 OA
ATOM     13  S   UNL     1      -2.649  14.936  23.434  0.00  0.00    +0.000 S 
ATOM     14  O   UNL     1      -3.059  14.561  24.774  0.00  0.00    +0.000 OA
BRANCH  13  15
ATOM     15  C   UNL     1      -3.955  14.525  22.248  0.00  0.00    +0.000 C 
BRANCH  15  16
ATOM     16  C   UNL     1      -5.220  14.270  23.027  0.00  0.00    +0.000 A 
ATOM     17  C   UNL     1      -5.576  12.963  23.386  0.00  0.00    +0.000 A 
ATOM     18  C   UNL     1      -6.801  12.709  24.001  0.00  0.00    +0.000 A 
ATOM     19  C   UNL     1      -7.678  13.757  24.272  0.00  0.00    +0.000 A 
ATOM     20  C   UNL     1      -7.319  15.065  23.950  0.00  0.00    +0.000 A 
ATOM     21  C   UNL     1      -6.093  15.324  23.335  0.00  0.00    +0.000 A 
ENDBRANCH  15  16
ENDBRANCH  13  15
ENDBRANCH   1  13
BRANCH   9  22
ATOM     22  C   UNL     1       0.852  12.487  19.151  0.00  0.00    +0.000 C 
BRANCH  22  23
ATOM     23  C   UNL     1       2.111  13.319  19.254  0.00  0.00    +0.000 A 
ATOM     24  C   UNL     1       2.796  13.803  20.352  0.00  0.00    +0.000 A 
ATOM     25  N   UNL     1       3.883  14.466  19.848  0.00  0.00    +0.000 N 
ATOM     26  C   UNL     1       3.852  14.329  18.488  0.00  0.00    +0.000 A 
ATOM     27  N   UNL     1       2.801  13.648  18.099  0.00  0.00    +0.000 NA
ATOM     28  H   UNL     1       4.591  14.955  20.375  0.00  0.00    +0.000 HD
ENDBRANCH  22  23
ENDBRANCH   9  22
BRANCH  10  29
ATOM     29  C   UNL     1      -1.008  14.772  19.435  0.00  0.00    +0.000 C 
BRANCH  29  30
ATOM     30  C   UNL     1      -0.253  16.042  19.848  0.00  0.00    +0.000 C 
BRANCH  30  31
ATOM     31  C   UNL     1       0.094  16.922  18.673  0.00  0.00    +0.000 A 
ATOM     32  C   UNL     1      -0.902  17.670  18.030  0.00  0.00    +0.000 A 
ATOM     33  C   UNL     1      -0.578  18.501  16.956  0.00  0.00    +0.000 A 
ATOM     34  C   UNL     1       0.741  18.585  16.513  0.00  0.00    +0.000 A 
ATOM     35  C   UNL     1       1.738  17.843  17.145  0.00  0.00    +0.000 A 
ATOM     36  C   UNL     1       1.417  17.016  18.221  0.00  0.00    +0.000 A 
ENDBRANCH  30  31
ENDBRANCH  29  30
ENDBRANCH  10  29
TORSDOF 8
ENDMDL
MODEL 4
REMARK VINA RESULT:      -7.4      7.225      9.611
REMARK  Name = 
REMARK  8 active torsions:
REMARK  status: ('A' for Active; 'I' for Inactive)
REMARK    1  A    between atoms: S_2  and  C_4
REMARK    2  A    between atoms: S_2  and  N_11
REMARK    3  A    between atoms: C_4  and  C_5
REMARK    4  A    between atoms: N_19  and  C_20
REMARK    5  A    between atoms: C_20  and  C_21
REMARK    6  A    between atoms: C_26  and  C_27
REMARK    7  A    between atoms: C_27  and  C_28
REMARK    8  A    between atoms: C_28  and  C_29
REMARK                            x       y       z     vdW  Elec       q    Type
REMARK                         _______ _______ _______ _____ _____    ______ ____
ROOT
ATOM      1  N   UNL     1      -0.392  12.414  19.197  0.00  0.00    +0.000 NA
ATOM      2  C   UNL     1      -0.799  11.015  18.854  0.00  0.00    +0.000 C 
ATOM      3  C   UNL     1      -2.050  10.865  17.996  0.00  0.00    +0.000 A 
ATOM      4  C   UNL     1      -1.884  10.017  16.866  0.00  0.00    +0.000 A 
ATOM      5  C   UNL     1      -2.859   9.901  15.886  0.00  0.00    +0.000 A 
ATOM      6  C   UNL     1      -4.008  10.652  16.004  0.00  0.00    +0.000 A 
ATOM      7  C   UNL     1      -4.232  11.401  17.166  0.00  0.00    +0.000 A 
ATOM      8  C   UNL     1      -3.311  11.480  18.237  0.00  0.00    +0.000 A 
ATOM      9  N   UNL     1      -3.670  12.139  19.435  0.00  0.00    +0.000 N 
ATOM     10  C   UNL     1      -2.600  12.494  20.403  0.00  0.00    +0.000 C 
ATOM     11  C   UNL     1      -1.516  13.291  19.636  0.00  0.00    +0.000 C 
ENDROOT
BRANCH   1  13
ATOM     12  O   UNL     1       2.136  12.281  19.362  0.00  0.00    +0.000 OA
ATOM     13  S   UNL     1       0.989  12.475  20.212  0.00  0.00    +0.000 S 
ATOM     14  O   UNL     1       0.709  11.582  21.320  0.00  0.00    +0.000 OA
BRANCH  13  15
ATOM     15  C   UNL     1       0.943  14.196  20.776  0.00  0.00    +0.000 C 
BRANCH  15  16
ATOM     16  C   UNL     1       1.977  14.964  19.993  0.00  0.00    +0.000 A 
ATOM     17  C   UNL     1       3.265  15.146  20.514  0.00  0.00    +0.000 A 
ATOM     18  C   UNL     1       4.187  15.955  19.851  0.00  0.00    +0.000 A 
ATOM     19  C   UNL     1       3.835  16.582  18.657  0.00  0.00    +0.000 A 
ATOM     20  C   UNL     1       2.568  16.380  18.113  0.00  0.00    +0.000 A 
ATOM     21  C   UNL     1       1.643  15.571  18.773  0.00  0.00    +0.000 A 
ENDBRANCH  15  16
ENDBRANCH  13  15
ENDBRANCH   1  13
BRANCH   9  22
ATOM     22  C   UNL     1      -5.022  12.740  19.574  0.00  0.00    +0.000 C 
BRANCH  22  23
ATOM     23  C   UNL     1      -6.096  12.008  20.346  0.00  0.00    +0.000 A 
ATOM     24  C   UNL     1      -6.672  12.268  21.575  0.00  0.00    +0.000 A 
ATOM     25  N   UNL     1      -7.612  11.288  21.758  0.00  0.00    +0.000 N 
ATOM     26  C   UNL     1      -7.612  10.505  20.638  0.00  0.00    +0.000 A 
ATOM     27  N   UNL     1      -6.712  10.908  19.772  0.00  0.00    +0.000 NA
ATOM     28  H   UNL     1      -8.211  11.168  22.562  0.00  0.00    +0.000 HD
ENDBRANCH  22  23
ENDBRANCH   9  22
BRANCH  10  29
ATOM     29  C   UNL     1      -3.004  13.271  21.673  0.00  0.00    +0.000 C 
BRANCH  29  30
ATOM     30  C   UNL     1      -2.062  13.027  22.858  0.00  0.00    +0.000 C 
BRANCH  30  31
ATOM     31  C   UNL     1      -1.991  14.204  23.799  0.00  0.00    +0.000 A 
ATOM     32  C   UNL     1      -0.864  15.036  23.809  0.00  0.00    +0.000 A 
ATOM     33  C   UNL     1      -0.807  16.138  24.664  0.00  0.00    +0.000 A 
ATOM     34  C   UNL     1      -1.873  16.411  25.520  0.00  0.00    +0.000 A 
ATOM     35  C   UNL     1      -2.998  15.588  25.519  0.00  0.00    +0.000 A 
ATOM     36  C   UNL     1      -3.058  14.489  24.661  0.00  0.00    +0.000 A 
ENDBRANCH  30  31
ENDBRANCH  29  30
ENDBRANCH  10  29
TORSDOF 8
ENDMDL
MODEL 5
REMARK VINA RESULT:      -7.3      6.841     11.837
REMARK  Name = 
REMARK  8 active torsions:
REMARK  status: ('A' for Active; 'I' for Inactive)
REMARK    1  A    between atoms: S_2  and  C_4
REMARK    2  A    between atoms: S_2  and  N_11
REMARK    3  A    between atoms: C_4  and  C_5
REMARK    4  A    between atoms: N_19  and  C_20
REMARK    5  A    between atoms: C_20  and  C_21
REMARK    6  A    between atoms: C_26  and  C_27
REMARK    7  A    between atoms: C_27  and  C_28
REMARK    8  A    between atoms: C_28  and  C_29
REMARK                            x       y       z     vdW  Elec       q    Type
REMARK                         _______ _______ _______ _____ _____    ______ ____
ROOT
ATOM      1  N   UNL     1      -4.033  12.405  21.706  0.00  0.00    +0.000 NA
ATOM      2  C   UNL     1      -4.173  12.829  20.277  0.00  0.00    +0.000 C 
ATOM      3  C   UNL     1      -3.410  12.004  19.248  0.00  0.00    +0.000 A 
ATOM      4  C   UNL     1      -4.197  11.574  18.144  0.00  0.00    +0.000 A 
ATOM      5  C   UNL     1      -3.714  10.676  17.204  0.00  0.00    +0.000 A 
ATOM      6  C   UNL     1      -2.442  10.170  17.364  0.00  0.00    +0.000 A 
ATOM      7  C   UNL     1      -1.618  10.671  18.380  0.00  0.00    +0.000 A 
ATOM      8  C   UNL     1      -2.031  11.655  19.309  0.00  0.00    +0.000 A 
ATOM      9  N   UNL     1      -1.098  12.213  20.213  0.00  0.00    +0.000 N 
ATOM     10  C   UNL     1      -1.605  12.986  21.377  0.00  0.00    +0.000 C 
ATOM     11  C   UNL     1      -2.633  12.096  22.120  0.00  0.00    +0.000 C 
ENDROOT
BRANCH   1  13
ATOM     12  O   UNL     1      -4.078  13.521  23.983  0.00  0.00    +0.000 OA
ATOM     13  S   UNL     1      -4.880  13.429  22.789  0.00  0.00    +0.000 S 
ATOM     14  O   UNL     1      -6.241  12.929  22.829  0.00  0.00    +0.000 OA
BRANCH  13  15
ATOM     15  C   UNL     1      -4.826  15.009  21.905  0.00  0.00    +0.000 C 
BRANCH  15  16
ATOM     16  C   UNL     1      -4.491  16.085  22.906  0.00  0.00    +0.000 A 
ATOM     17  C   UNL     1      -5.115  16.100  24.161  0.00  0.00    +0.000 A 
ATOM     18  C   UNL     1      -4.899  17.157  25.045  0.00  0.00    +0.000 A 
ATOM     19  C   UNL     1      -4.051  18.203  24.688  0.00  0.00    +0.000 A 
ATOM     20  C   UNL     1      -3.398  18.181  23.456  0.00  0.00    +0.000 A 
ATOM     21  C   UNL     1      -3.612  17.125  22.570  0.00  0.00    +0.000 A 
ENDBRANCH  15  16
ENDBRANCH  13  15
ENDBRANCH   1  13
BRANCH   9  22
ATOM     22  C   UNL     1       0.321  11.773  20.179  0.00  0.00    +0.000 C 
BRANCH  22  23
ATOM     23  C   UNL     1       0.720  10.462  20.819  0.00  0.00    +0.000 A 
ATOM     24  C   UNL     1       1.113   9.260  20.262  0.00  0.00    +0.000 A 
ATOM     25  N   UNL     1       1.382   8.432  21.321  0.00  0.00    +0.000 N 
ATOM     26  C   UNL     1       1.191   9.156  22.465  0.00  0.00    +0.000 A 
ATOM     27  N   UNL     1       0.792  10.376  22.199  0.00  0.00    +0.000 NA
ATOM     28  H   UNL     1       1.681   7.469  21.275  0.00  0.00    +0.000 HD
ENDBRANCH  22  23
ENDBRANCH   9  22
BRANCH  10  29
ATOM     29  C   UNL     1      -0.574  13.530  22.387  0.00  0.00    +0.000 C 
BRANCH  29  30
ATOM     30  C   UNL     1      -0.452  15.058  22.362  0.00  0.00    +0.000 C 
BRANCH  30  31
ATOM     31  C   UNL     1      -0.611  15.678  23.729  0.00  0.00    +0.000 A 
ATOM     32  C   UNL     1      -0.009  16.909  24.023  0.00  0.00    +0.000 A 
ATOM     33  C   UNL     1      -0.173  17.492  25.280  0.00  0.00    +0.000 A 
ATOM     34  C   UNL     1      -0.935  16.848  26.253  0.00  0.00    +0.000 A 
ATOM     35  C   UNL     1      -1.536  15.623  25.971  0.00  0.00    +0.000 A 
ATOM     36  C   UNL     1      -1.377  15.040  24.714  0.00  0.00    +0.000 A 
ENDBRANCH  30  31
ENDBRANCH  29  30
ENDBRANCH  10  29
TORSDOF 8
ENDMDL
MODEL 6
REMARK VINA RESULT:      -7.3      5.194      9.760
REMARK  Name = 
REMARK  8 active torsions:
REMARK  status: ('A' for Active; 'I' for Inactive)
REMARK    1  A    between atoms: S_2  and  C_4
REMARK    2  A    between atoms: S_2  and  N_11
REMARK    3  A    between atoms: C_4  and  C_5
REMARK    4  A    between atoms: N_19  and  C_20
REMARK    5  A    between atoms: C_20  and  C_21
REMARK    6  A    between atoms: C_26  and  C_27
REMARK    7  A    between atoms: C_27  and  C_28
REMARK    8  A    between atoms: C_28  and  C_29
REMARK                            x       y       z     vdW  Elec       q    Type
REMARK                         _______ _______ _______ _____ _____    ______ ____
ROOT
ATOM      1  N   UNL     1      -1.642  13.407  21.665  0.00  0.00    +0.000 NA
ATOM      2  C   UNL     1      -2.550  14.339  20.924  0.00  0.00    +0.000 C 
ATOM      3  C   UNL     1      -3.901  13.775  20.500  0.00  0.00    +0.000 A 
ATOM      4  C   UNL     1      -5.011  14.591  20.855  0.00  0.00    +0.000 A 
ATOM      5  C   UNL     1      -6.319  14.156  20.702  0.00  0.00    +0.000 A 
ATOM      6  C   UNL     1      -6.542  12.886  20.215  0.00  0.00    +0.000 A 
ATOM      7  C   UNL     1      -5.464  12.119  19.757  0.00  0.00    +0.000 A 
ATOM      8  C   UNL     1      -4.117  12.552  19.805  0.00  0.00    +0.000 A 
ATOM      9  N   UNL     1      -3.102  11.782  19.193  0.00  0.00    +0.000 N 
ATOM     10  C   UNL     1      -1.684  12.074  19.530  0.00  0.00    +0.000 C 
ATOM     11  C   UNL     1      -1.550  12.041  21.072  0.00  0.00    +0.000 C 
ENDROOT
BRANCH   1  13
ATOM     12  O   UNL     1       0.866  13.086  21.870  0.00  0.00    +0.000 OA
ATOM     13  S   UNL     1      -0.128  14.115  22.045  0.00  0.00    +0.000 S 
ATOM     14  O   UNL     1      -0.309  14.784  23.320  0.00  0.00    +0.000 OA
BRANCH  13  15
ATOM     15  C   UNL     1       0.037  15.341  20.721  0.00  0.00    +0.000 C 
BRANCH  15  16
ATOM     16  C   UNL     1       1.289  15.018  19.948  0.00  0.00    +0.000 A 
ATOM     17  C   UNL     1       1.220  14.233  18.788  0.00  0.00    +0.000 A 
ATOM     18  C   UNL     1       2.385  13.831  18.137  0.00  0.00    +0.000 A 
ATOM     19  C   UNL     1       3.630  14.217  18.630  0.00  0.00    +0.000 A 
ATOM     20  C   UNL     1       3.710  15.025  19.763  0.00  0.00    +0.000 A 
ATOM     21  C   UNL     1       2.545  15.430  20.417  0.00  0.00    +0.000 A 
ENDBRANCH  15  16
ENDBRANCH  13  15
ENDBRANCH   1  13
BRANCH   9  22
ATOM     22  C   UNL     1      -3.450  10.522  18.488  0.00  0.00    +0.000 C 
BRANCH  22  23
ATOM     23  C   UNL     1      -3.469  10.484  16.976  0.00  0.00    +0.000 A 
ATOM     24  C   UNL     1      -4.208  11.203  16.056  0.00  0.00    +0.000 A 
ATOM     25  N   UNL     1      -3.788  10.772  14.826  0.00  0.00    +0.000 N 
ATOM     26  C   UNL     1      -2.796   9.854  15.030  0.00  0.00    +0.000 A 
ATOM     27  N   UNL     1      -2.582   9.656  16.309  0.00  0.00    +0.000 NA
ATOM     28  H   UNL     1      -4.131  11.079  13.928  0.00  0.00    +0.000 HD
ENDBRANCH  22  23
ENDBRANCH   9  22
BRANCH  10  29
ATOM     29  C   UNL     1      -0.594  11.180  18.902  0.00  0.00    +0.000 C 
BRANCH  29  30
ATOM     30  C   UNL     1       0.385  10.605  19.933  0.00  0.00    +0.000 C 
BRANCH  30  31
ATOM     31  C   UNL     1       1.174   9.436  19.398  0.00  0.00    +0.000 A 
ATOM     32  C   UNL     1       1.660   9.451  18.083  0.00  0.00    +0.000 A 
ATOM     33  C   UNL     1       2.409   8.379  17.596  0.00  0.00    +0.000 A 
ATOM     34  C   UNL     1       2.673   7.283  18.414  0.00  0.00    +0.000 A 
ATOM     35  C   UNL     1       2.193   7.259  19.723  0.00  0.00    +0.000 A 
ATOM     36  C   UNL     1       1.448   8.331  20.214  0.00  0.00    +0.000 A 
ENDBRANCH  30  31
ENDBRANCH  29  30
ENDBRANCH  10  29
TORSDOF 8
ENDMDL
MODEL 7
REMARK VINA RESULT:      -7.3      7.328      9.869
REMARK  Name = 
REMARK  8 active torsions:
REMARK  status: ('A' for Active; 'I' for Inactive)
REMARK    1  A    between atoms: S_2  and  C_4
REMARK    2  A    between atoms: S_2  and  N_11
REMARK    3  A    between atoms: C_4  and  C_5
REMARK    4  A    between atoms: N_19  and  C_20
REMARK    5  A    between atoms: C_20  and  C_21
REMARK    6  A    between atoms: C_26  and  C_27
REMARK    7  A    between atoms: C_27  and  C_28
REMARK    8  A    between atoms: C_28  and  C_29
REMARK                            x       y       z     vdW  Elec       q    Type
REMARK                         _______ _______ _______ _____ _____    ______ ____
ROOT
ATOM      1  N   UNL     1      -0.561  12.536  19.625  0.00  0.00    +0.000 NA
ATOM      2  C   UNL     1      -0.883  11.140  19.190  0.00  0.00    +0.000 C 
ATOM      3  C   UNL     1      -2.063  10.982  18.238  0.00  0.00    +0.000 A 
ATOM      4  C   UNL     1      -1.781  10.198  17.085  0.00  0.00    +0.000 A 
ATOM      5  C   UNL     1      -2.680  10.091  16.033  0.00  0.00    +0.000 A 
ATOM      6  C   UNL     1      -3.866  10.788  16.103  0.00  0.00    +0.000 A 
ATOM      7  C   UNL     1      -4.203  11.470  17.278  0.00  0.00    +0.000 A 
ATOM      8  C   UNL     1      -3.363  11.533  18.416  0.00  0.00    +0.000 A 
ATOM      9  N   UNL     1      -3.833  12.119  19.614  0.00  0.00    +0.000 N 
ATOM     10  C   UNL     1      -2.850  12.468  20.672  0.00  0.00    +0.000 C 
ATOM     11  C   UNL     1      -1.751  13.345  20.022  0.00  0.00    +0.000 C 
ENDROOT
BRANCH   1  13
ATOM     12  O   UNL     1       1.952  12.489  19.965  0.00  0.00    +0.000 OA
ATOM     13  S   UNL     1       0.741  12.602  20.738  0.00  0.00    +0.000 S 
ATOM     14  O   UNL     1       0.420  11.650  21.785  0.00  0.00    +0.000 OA
BRANCH  13  15
ATOM     15  C   UNL     1       0.587  14.293  21.369  0.00  0.00    +0.000 C 
BRANCH  15  16
ATOM     16  C   UNL     1       1.473  15.179  20.532  0.00  0.00    +0.000 A 
ATOM     17  C   UNL     1       0.958  15.825  19.400  0.00  0.00    +0.000 A 
ATOM     18  C   UNL     1       1.799  16.548  18.555  0.00  0.00    +0.000 A 
ATOM     19  C   UNL     1       3.160  16.642  18.839  0.00  0.00    +0.000 A 
ATOM     20  C   UNL     1       3.677  16.033  19.981  0.00  0.00    +0.000 A 
ATOM     21  C   UNL     1       2.838  15.308  20.828  0.00  0.00    +0.000 A 
ENDBRANCH  15  16
ENDBRANCH  13  15
ENDBRANCH   1  13
BRANCH   9  22
ATOM     22  C   UNL     1      -5.216  12.657  19.683  0.00  0.00    +0.000 C 
BRANCH  22  23
ATOM     23  C   UNL     1      -6.348  11.771  20.152  0.00  0.00    +0.000 A 
ATOM     24  C   UNL     1      -6.989  10.710  19.541  0.00  0.00    +0.000 A 
ATOM     25  N   UNL     1      -7.916  10.266  20.446  0.00  0.00    +0.000 N 
ATOM     26  C   UNL     1      -7.783  11.026  21.575  0.00  0.00    +0.000 A 
ATOM     27  N   UNL     1      -6.853  11.939  21.431  0.00  0.00    +0.000 NA
ATOM     28  H   UNL     1      -8.571   9.509  20.318  0.00  0.00    +0.000 HD
ENDBRANCH  22  23
ENDBRANCH   9  22
BRANCH  10  29
ATOM     29  C   UNL     1      -3.375  13.165  21.944  0.00  0.00    +0.000 C 
BRANCH  29  30
ATOM     30  C   UNL     1      -3.121  14.677  21.954  0.00  0.00    +0.000 C 
BRANCH  30  31
ATOM     31  C   UNL     1      -2.617  15.175  23.286  0.00  0.00    +0.000 A 
ATOM     32  C   UNL     1      -1.727  16.256  23.348  0.00  0.00    +0.000 A 
ATOM     33  C   UNL     1      -1.278  16.731  24.581  0.00  0.00    +0.000 A 
ATOM     34  C   UNL     1      -1.709  16.126  25.760  0.00  0.00    +0.000 A 
ATOM     35  C   UNL     1      -2.593  15.049  25.708  0.00  0.00    +0.000 A 
ATOM     36  C   UNL     1      -3.047  14.576  24.477  0.00  0.00    +0.000 A 
ENDBRANCH  30  31
ENDBRANCH  29  30
ENDBRANCH  10  29
TORSDOF 8
ENDMDL
MODEL 8
REMARK VINA RESULT:      -7.2      7.168      9.724
REMARK  Name = 
REMARK  8 active torsions:
REMARK  status: ('A' for Active; 'I' for Inactive)
REMARK    1  A    between atoms: S_2  and  C_4
REMARK    2  A    between atoms: S_2  and  N_11
REMARK    3  A    between atoms: C_4  and  C_5
REMARK    4  A    between atoms: N_19  and  C_20
REMARK    5  A    between atoms: C_20  and  C_21
REMARK    6  A    between atoms: C_26  and  C_27
REMARK    7  A    between atoms: C_27  and  C_28
REMARK    8  A    between atoms: C_28  and  C_29
REMARK                            x       y       z     vdW  Elec       q    Type
REMARK                         _______ _______ _______ _____ _____    ______ ____
ROOT
ATOM      1  N   UNL     1      -0.438  12.226  19.352  0.00  0.00    +0.000 NA
ATOM      2  C   UNL     1      -0.920  10.881  18.904  0.00  0.00    +0.000 C 
ATOM      3  C   UNL     1      -2.175  10.865  18.040  0.00  0.00    +0.000 A 
ATOM      4  C   UNL     1      -2.052  10.098  16.848  0.00  0.00    +0.000 A 
ATOM      5  C   UNL     1      -3.030  10.111  15.864  0.00  0.00    +0.000 A 
ATOM      6  C   UNL     1      -4.138  10.912  16.042  0.00  0.00    +0.000 A 
ATOM      7  C   UNL     1      -4.324  11.580  17.258  0.00  0.00    +0.000 A 
ATOM      8  C   UNL     1      -3.402  11.527  18.330  0.00  0.00    +0.000 A 
ATOM      9  N   UNL     1      -3.727  12.111  19.576  0.00  0.00    +0.000 N 
ATOM     10  C   UNL     1      -2.641  12.331  20.566  0.00  0.00    +0.000 C 
ATOM     11  C   UNL     1      -1.514  13.126  19.860  0.00  0.00    +0.000 C 
ENDROOT
BRANCH   1  13
ATOM     12  O   UNL     1       1.130  10.740  20.683  0.00  0.00    +0.000 OA
ATOM     13  S   UNL     1       0.942  12.134  20.366  0.00  0.00    +0.000 S 
ATOM     14  O   UNL     1       0.740  13.125  21.405  0.00  0.00    +0.000 OA
BRANCH  13  15
ATOM     15  C   UNL     1       2.252  12.675  19.238  0.00  0.00    +0.000 C 
BRANCH  15  16
ATOM     16  C   UNL     1       2.451  14.155  19.441  0.00  0.00    +0.000 A 
ATOM     17  C   UNL     1       3.448  14.620  20.311  0.00  0.00    +0.000 A 
ATOM     18  C   UNL     1       3.559  15.981  20.594  0.00  0.00    +0.000 A 
ATOM     19  C   UNL     1       2.683  16.890  20.005  0.00  0.00    +0.000 A 
ATOM     20  C   UNL     1       1.711  16.443  19.113  0.00  0.00    +0.000 A 
ATOM     21  C   UNL     1       1.597  15.082  18.827  0.00  0.00    +0.000 A 
ENDBRANCH  15  16
ENDBRANCH  13  15
ENDBRANCH   1  13
BRANCH   9  22
ATOM     22  C   UNL     1      -5.044  12.771  19.763  0.00  0.00    +0.000 C 
BRANCH  22  23
ATOM     23  C   UNL     1      -6.154  12.046  20.491  0.00  0.00    +0.000 A 
ATOM     24  C   UNL     1      -6.793  12.322  21.685  0.00  0.00    +0.000 A 
ATOM     25  N   UNL     1      -7.738  11.342  21.835  0.00  0.00    +0.000 N 
ATOM     26  C   UNL     1      -7.677  10.542  20.728  0.00  0.00    +0.000 A 
ATOM     27  N   UNL     1      -6.736  10.935  19.903  0.00  0.00    +0.000 NA
ATOM     28  H   UNL     1      -8.377  11.231  22.608  0.00  0.00    +0.000 HD
ENDBRANCH  22  23
ENDBRANCH   9  22
BRANCH  10  29
ATOM     29  C   UNL     1      -3.006  13.030  21.893  0.00  0.00    +0.000 C 
BRANCH  29  30
ATOM     30  C   UNL     1      -2.517  14.482  21.966  0.00  0.00    +0.000 C 
BRANCH  30  31
ATOM     31  C   UNL     1      -3.285  15.305  22.970  0.00  0.00    +0.000 A 
ATOM     32  C   UNL     1      -2.622  16.243  23.773  0.00  0.00    +0.000 A 
ATOM     33  C   UNL     1      -3.335  17.020  24.687  0.00  0.00    +0.000 A 
ATOM     34  C   UNL     1      -4.714  16.861  24.810  0.00  0.00    +0.000 A 
ATOM     35  C   UNL     1      -5.383  15.930  24.018  0.00  0.00    +0.000 A 
ATOM     36  C   UNL     1      -4.672  15.155  23.100  0.00  0.00    +0.000 A 
ENDBRANCH  30  31
ENDBRANCH  29  30
ENDBRANCH  10  29
TORSDOF 8
ENDMDL
MODEL 9
REMARK VINA RESULT:      -7.2      7.401     10.040
REMARK  Name = 
REMARK  8 active torsions:
REMARK  status: ('A' for Active; 'I' for Inactive)
REMARK    1  A    between atoms: S_2  and  C_4
REMARK    2  A    between atoms: S_2  and  N_11
REMARK    3  A    between atoms: C_4  and  C_5
REMARK    4  A    between atoms: N_19  and  C_20
REMARK    5  A    between atoms: C_20  and  C_21
REMARK    6  A    between atoms: C_26  and  C_27
REMARK    7  A    between atoms: C_27  and  C_28
REMARK    8  A    between atoms: C_28  and  C_29
REMARK                            x       y       z     vdW  Elec       q    Type
REMARK                         _______ _______ _______ _____ _____    ______ ____
ROOT
ATOM      1  N   UNL     1      -0.641  12.782  19.840  0.00  0.00    +0.000 NA
ATOM      2  C   UNL     1      -0.851  11.341  19.490  0.00  0.00    +0.000 C 
ATOM      3  C   UNL     1      -1.959  11.043  18.487  0.00  0.00    +0.000 A 
ATOM      4  C   UNL     1      -1.561  10.200  17.412  0.00  0.00    +0.000 A 
ATOM      5  C   UNL     1      -2.385   9.964  16.322  0.00  0.00    +0.000 A 
ATOM      6  C   UNL     1      -3.613  10.587  16.273  0.00  0.00    +0.000 A 
ATOM      7  C   UNL     1      -4.061  11.325  17.375  0.00  0.00    +0.000 A 
ATOM      8  C   UNL     1      -3.298  11.521  18.551  0.00  0.00    +0.000 A 
ATOM      9  N   UNL     1      -3.875  12.156  19.674  0.00  0.00    +0.000 N 
ATOM     10  C   UNL     1      -2.981  12.640  20.758  0.00  0.00    +0.000 C 
ATOM     11  C   UNL     1      -1.898  13.538  20.109  0.00  0.00    +0.000 C 
ENDROOT
BRANCH   1  13
ATOM     12  O   UNL     1       0.860  11.710  21.583  0.00  0.00    +0.000 OA
ATOM     13  S   UNL     1       0.585  13.008  21.018  0.00  0.00    +0.000 S 
ATOM     14  O   UNL     1       0.144  14.115  21.845  0.00  0.00    +0.000 OA
BRANCH  13  15
ATOM     15  C   UNL     1       1.983  13.523  19.987  0.00  0.00    +0.000 C 
BRANCH  15  16
ATOM     16  C   UNL     1       1.896  15.016  19.807  0.00  0.00    +0.000 A 
ATOM     17  C   UNL     1       1.059  15.561  18.823  0.00  0.00    +0.000 A 
ATOM     18  C   UNL     1       1.064  16.932  18.572  0.00  0.00    +0.000 A 
ATOM     19  C   UNL     1       1.897  17.774  19.307  0.00  0.00    +0.000 A 
ATOM     20  C   UNL     1       2.708  17.248  20.310  0.00  0.00    +0.000 A 
ATOM     21  C   UNL     1       2.705  15.875  20.565  0.00  0.00    +0.000 A 
ENDBRANCH  15  16
ENDBRANCH  13  15
ENDBRANCH   1  13
BRANCH   9  22
ATOM     22  C   UNL     1      -5.289  12.608  19.625  0.00  0.00    +0.000 C 
BRANCH  22  23
ATOM     23  C   UNL     1      -6.394  11.678  20.071  0.00  0.00    +0.000 A 
ATOM     24  C   UNL     1      -7.000  10.611  19.434  0.00  0.00    +0.000 A 
ATOM     25  N   UNL     1      -7.917  10.119  20.326  0.00  0.00    +0.000 N 
ATOM     26  C   UNL     1      -7.810  10.858  21.472  0.00  0.00    +0.000 A 
ATOM     27  N   UNL     1      -6.908  11.803  21.351  0.00  0.00    +0.000 NA
ATOM     28  H   UNL     1      -8.547   9.345  20.180  0.00  0.00    +0.000 HD
ENDBRANCH  22  23
ENDBRANCH   9  22
BRANCH  10  29
ATOM     29  C   UNL     1      -3.624  13.388  21.944  0.00  0.00    +0.000 C 
BRANCH  29  30
ATOM     30  C   UNL     1      -2.762  13.366  23.212  0.00  0.00    +0.000 C 
BRANCH  30  31
ATOM     31  C   UNL     1      -2.676  14.715  23.882  0.00  0.00    +0.000 A 
ATOM     32  C   UNL     1      -1.927  14.878  25.055  0.00  0.00    +0.000 A 
ATOM     33  C   UNL     1      -1.829  16.130  25.663  0.00  0.00    +0.000 A 
ATOM     34  C   UNL     1      -2.484  17.227  25.107  0.00  0.00    +0.000 A 
ATOM     35  C   UNL     1      -3.234  17.076  23.941  0.00  0.00    +0.000 A 
ATOM     36  C   UNL     1      -3.329  15.826  23.330  0.00  0.00    +0.000 A 
ENDBRANCH  30  31
ENDBRANCH  29  30
ENDBRANCH  10  29
TORSDOF 8
ENDMDL
