MODEL 1
REMARK VINA RESULT:      -7.7      0.000      0.000
REMARK  Name = 
REMARK  9 active torsions:
REMARK  status: ('A' for Active; 'I' for Inactive)
REMARK    1  A    between atoms: C_1  and  N_2
REMARK    2  A    between atoms: N_2  and  C_3
REMARK    3  A    between atoms: N_2  and  S_4
REMARK    4  A    between atoms: S_4  and  N_7
REMARK    5  A    between atoms: N_7  and  C_8
REMARK    6  A    between atoms: N_7  and  C_24
REMARK    7  A    between atoms: C_8  and  C_9
REMARK    8  A    between atoms: C_14  and  C_15
REMARK    9  A    between atoms: C_15  and  C_16
REMARK                            x       y       z     vdW  Elec       q    Type
REMARK                         _______ _______ _______ _____ _____    ______ ____
ROOT
ATOM      1  C   UNL     1       5.513   5.596  18.842  0.00  0.00    +0.000 C 
ATOM      2  O   UNL     1       6.361   6.026  19.622  0.00  0.00    +0.000 OA
ATOM      3  N   UNL     1       5.663   5.707  17.459  0.00  0.00    +0.000 N 
ATOM      4  C   UNL     1       4.680   5.231  16.490  0.00  0.00    +0.000 C 
ATOM      5  C   UNL     1       5.046   3.802  16.090  0.00  0.00    +0.000 C 
ATOM      6  C   UNL     1       6.457   3.763  15.466  0.00  0.00    +0.000 C 
ATOM      7  C   UNL     1       7.467   4.389  16.465  0.00  0.00    +0.000 C 
ATOM      8  C   UNL     1       7.030   5.788  16.936  0.00  0.00    +0.000 C 
ENDROOT
BRANCH   1   9
ATOM      9  C   UNL     1       4.333   4.782  19.355  0.00  0.00    +0.000 C 
BRANCH   9  10
ATOM     10  N   UNL     1       3.023   5.165  18.786  0.00  0.00    +0.000 N 
BRANCH  10  11
ATOM     11  C   UNL     1       2.546   6.485  19.096  0.00  0.00    +0.000 A 
ATOM     12  C   UNL     1       2.128   6.800  20.395  0.00  0.00    +0.000 A 
ATOM     13  C   UNL     1       1.561   8.038  20.686  0.00  0.00    +0.000 A 
ATOM     14  C   UNL     1       1.439   8.989  19.680  0.00  0.00    +0.000 A 
ATOM     15  C   UNL     1       1.875   8.692  18.386  0.00  0.00    +0.000 A 
ATOM     16  C   UNL     1       2.406   7.432  18.085  0.00  0.00    +0.000 A 
ENDBRANCH  10  11
BRANCH  10  17
ATOM     17  S   UNL     1       1.859   3.921  18.690  0.00  0.00    +0.000 S 
ATOM     18  O   UNL     1       1.636   3.646  17.283  0.00  0.00    +0.000 OA
ATOM     19  O   UNL     1       0.742   4.249  19.545  0.00  0.00    +0.000 OA
BRANCH  17  21
ATOM     20  C   UNL     1       2.290   2.106  20.672  0.00  0.00    +0.000 C 
ATOM     21  N   UNL     1       2.645   2.585  19.335  0.00  0.00    +0.000 NA
ATOM     22  C   UNL     1       3.176   1.564  18.422  0.00  0.00    +0.000 C 
ENDBRANCH  17  21
ENDBRANCH  10  17
ENDBRANCH   9  10
ENDBRANCH   1   9
BRANCH   6  23
ATOM     23  C   UNL     1       6.528   4.487  14.102  0.00  0.00    +0.000 C 
BRANCH  23  24
ATOM     24  C   UNL     1       5.983   3.713  12.926  0.00  0.00    +0.000 A 
ATOM     25  C   UNL     1       6.759   2.714  12.318  0.00  0.00    +0.000 A 
ATOM     26  C   UNL     1       6.241   1.947  11.275  0.00  0.00    +0.000 A 
ATOM     27  C   UNL     1       4.940   2.167  10.829  0.00  0.00    +0.000 A 
ATOM     28  C   UNL     1       4.165   3.166  11.414  0.00  0.00    +0.000 A 
ATOM     29  C   UNL     1       4.684   3.939  12.454  0.00  0.00    +0.000 A 
ENDBRANCH  23  24
ENDBRANCH   6  23
TORSDOF 7
ENDMDL
MODEL 2
REMARK VINA RESULT:      -7.5      0.123      1.272
REMARK  Name = 
REMARK  9 active torsions:
REMARK  status: ('A' for Active; 'I' for Inactive)
REMARK    1  A    between atoms: C_1  and  N_2
REMARK    2  A    between atoms: N_2  and  C_3
REMARK    3  A    between atoms: N_2  and  S_4
REMARK    4  A    between atoms: S_4  and  N_7
REMARK    5  A    between atoms: N_7  and  C_8
REMARK    6  A    between atoms: N_7  and  C_24
REMARK    7  A    between atoms: C_8  and  C_9
REMARK    8  A    between atoms: C_14  and  C_15
REMARK    9  A    between atoms: C_15  and  C_16
REMARK                            x       y       z     vdW  Elec       q    Type
REMARK                         _______ _______ _______ _____ _____    ______ ____
ROOT
ATOM      1  C   UNL     1       5.492   5.654  18.801  0.00  0.00    +0.000 C 
ATOM      2  O   UNL     1       6.325   6.136  19.565  0.00  0.00    +0.000 OA
ATOM      3  N   UNL     1       5.635   5.728  17.414  0.00  0.00    +0.000 N 
ATOM      4  C   UNL     1       4.669   5.190  16.462  0.00  0.00    +0.000 C 
ATOM      5  C   UNL     1       5.081   3.762  16.105  0.00  0.00    +0.000 C 
ATOM      6  C   UNL     1       6.492   3.752  15.479  0.00  0.00    +0.000 C 
ATOM      7  C   UNL     1       7.481   4.441  16.456  0.00  0.00    +0.000 C 
ATOM      8  C   UNL     1       6.999   5.839  16.886  0.00  0.00    +0.000 C 
ENDROOT
BRANCH   1   9
ATOM      9  C   UNL     1       4.341   4.817  19.340  0.00  0.00    +0.000 C 
BRANCH   9  10
ATOM     10  N   UNL     1       3.023   5.112  18.735  0.00  0.00    +0.000 N 
BRANCH  10  11
ATOM     11  C   UNL     1       2.461   6.405  19.013  0.00  0.00    +0.000 A 
ATOM     12  C   UNL     1       2.360   7.367  18.001  0.00  0.00    +0.000 A 
ATOM     13  C   UNL     1       1.921   8.658  18.279  0.00  0.00    +0.000 A 
ATOM     14  C   UNL     1       1.545   8.989  19.575  0.00  0.00    +0.000 A 
ATOM     15  C   UNL     1       1.619   8.029  20.588  0.00  0.00    +0.000 A 
ATOM     16  C   UNL     1       2.101   6.744  20.315  0.00  0.00    +0.000 A 
ENDBRANCH  10  11
BRANCH  10  17
ATOM     17  S   UNL     1       1.940   3.798  18.632  0.00  0.00    +0.000 S 
ATOM     18  O   UNL     1       1.781   3.478  17.226  0.00  0.00    +0.000 OA
ATOM     19  O   UNL     1       0.776   4.078  19.442  0.00  0.00    +0.000 OA
BRANCH  17  21
ATOM     20  C   UNL     1       2.484   2.130  20.712  0.00  0.00    +0.000 C 
ATOM     21  N   UNL     1       2.781   2.527  19.335  0.00  0.00    +0.000 NA
ATOM     22  C   UNL     1       3.306   1.459  18.473  0.00  0.00    +0.000 C 
ENDBRANCH  17  21
ENDBRANCH  10  17
ENDBRANCH   9  10
ENDBRANCH   1   9
BRANCH   6  23
ATOM     23  C   UNL     1       6.537   4.436  14.094  0.00  0.00    +0.000 C 
BRANCH  23  24
ATOM     24  C   UNL     1       5.935   3.644  12.958  0.00  0.00    +0.000 A 
ATOM     25  C   UNL     1       4.643   3.940  12.499  0.00  0.00    +0.000 A 
ATOM     26  C   UNL     1       4.103   3.260  11.407  0.00  0.00    +0.000 A 
ATOM     27  C   UNL     1       4.849   2.277  10.761  0.00  0.00    +0.000 A 
ATOM     28  C   UNL     1       6.127   1.963  11.218  0.00  0.00    +0.000 A 
ATOM     29  C   UNL     1       6.667   2.639  12.314  0.00  0.00    +0.000 A 
ENDBRANCH  23  24
ENDBRANCH   6  23
TORSDOF 7
ENDMDL
MODEL 3
REMARK VINA RESULT:      -7.4      4.222      6.780
REMARK  Name = 
REMARK  9 active torsions:
REMARK  status: ('A' for Active; 'I' for Inactive)
REMARK    1  A    between atoms: C_1  and  N_2
REMARK    2  A    between atoms: N_2  and  C_3
REMARK    3  A    between atoms: N_2  and  S_4
REMARK    4  A    between atoms: S_4  and  N_7
REMARK    5  A    between atoms: N_7  and  C_8
REMARK    6  A    between atoms: N_7  and  C_24
REMARK    7  A    between atoms: C_8  and  C_9
REMARK    8  A    between atoms: C_14  and  C_15
REMARK    9  A    between atoms: C_15  and  C_16
REMARK                            x       y       z     vdW  Elec       q    Type
REMARK                         _______ _______ _______ _____ _____    ______ ____
ROOT
ATOM      1  C   UNL     1       1.147   8.597  19.967  0.00  0.00    +0.000 C 
ATOM      2  O   UNL     1       0.382   8.736  20.919  0.00  0.00    +0.000 OA
ATOM      3  N   UNL     1       2.139   7.615  19.957  0.00  0.00    +0.000 N 
ATOM      4  C   UNL     1       3.084   7.418  18.862  0.00  0.00    +0.000 C 
ATOM      5  C   UNL     1       2.503   6.382  17.901  0.00  0.00    +0.000 C 
ATOM      6  C   UNL     1       2.265   5.045  18.632  0.00  0.00    +0.000 C 
ATOM      7  C   UNL     1       1.358   5.300  19.866  0.00  0.00    +0.000 C 
ATOM      8  C   UNL     1       1.906   6.418  20.772  0.00  0.00    +0.000 C 
ENDROOT
BRANCH   1   9
ATOM      9  C   UNL     1       0.939   9.393  18.686  0.00  0.00    +0.000 C 
BRANCH   9  10
ATOM     10  N   UNL     1       0.202  10.664  18.859  0.00  0.00    +0.000 N 
BRANCH  10  11
ATOM     11  C   UNL     1      -1.122  10.722  18.306  0.00  0.00    +0.000 A 
ATOM     12  C   UNL     1      -2.106  11.521  18.901  0.00  0.00    +0.000 A 
ATOM     13  C   UNL     1      -3.420  11.503  18.444  0.00  0.00    +0.000 A 
ATOM     14  C   UNL     1      -3.756  10.704  17.358  0.00  0.00    +0.000 A 
ATOM     15  C   UNL     1      -2.777   9.920  16.741  0.00  0.00    +0.000 A 
ATOM     16  C   UNL     1      -1.466   9.908  17.229  0.00  0.00    +0.000 A 
ENDBRANCH  10  11
BRANCH  10  17
ATOM     17  S   UNL     1       1.141  12.087  18.780  0.00  0.00    +0.000 S 
ATOM     18  O   UNL     1       0.295  13.132  18.235  0.00  0.00    +0.000 OA
ATOM     19  O   UNL     1       2.407  11.786  18.151  0.00  0.00    +0.000 OA
BRANCH  17  21
ATOM     20  C   UNL     1       2.433  13.478  20.730  0.00  0.00    +0.000 C 
ATOM     21  N   UNL     1       1.427  12.471  20.388  0.00  0.00    +0.000 NA
ATOM     22  C   UNL     1       0.334  12.319  21.360  0.00  0.00    +0.000 C 
ENDBRANCH  17  21
ENDBRANCH  10  17
ENDBRANCH   9  10
ENDBRANCH   1   9
BRANCH   6  23
ATOM     23  C   UNL     1       3.580   4.355  19.063  0.00  0.00    +0.000 C 
BRANCH  23  24
ATOM     24  C   UNL     1       4.705   4.418  18.058  0.00  0.00    +0.000 A 
ATOM     25  C   UNL     1       5.951   4.949  18.426  0.00  0.00    +0.000 A 
ATOM     26  C   UNL     1       7.017   4.950  17.527  0.00  0.00    +0.000 A 
ATOM     27  C   UNL     1       6.852   4.419  16.250  0.00  0.00    +0.000 A 
ATOM     28  C   UNL     1       5.615   3.903  15.868  0.00  0.00    +0.000 A 
ATOM     29  C   UNL     1       4.545   3.906  16.764  0.00  0.00    +0.000 A 
ENDBRANCH  23  24
ENDBRANCH   6  23
TORSDOF 7
ENDMDL
MODEL 4
REMARK VINA RESULT:      -7.3      0.233      1.127
REMARK  Name = 
REMARK  9 active torsions:
REMARK  status: ('A' for Active; 'I' for Inactive)
REMARK    1  A    between atoms: C_1  and  N_2
REMARK    2  A    between atoms: N_2  and  C_3
REMARK    3  A    between atoms: N_2  and  S_4
REMARK    4  A    between atoms: S_4  and  N_7
REMARK    5  A    between atoms: N_7  and  C_8
REMARK    6  A    between atoms: N_7  and  C_24
REMARK    7  A    between atoms: C_8  and  C_9
REMARK    8  A    between atoms: C_14  and  C_15
REMARK    9  A    between atoms: C_15  and  C_16
REMARK                            x       y       z     vdW  Elec       q    Type
REMARK                         _______ _______ _______ _____ _____    ______ ____
ROOT
ATOM      1  C   UNL     1       5.396   5.530  18.876  0.00  0.00    +0.000 C 
ATOM      2  O   UNL     1       6.213   6.011  19.658  0.00  0.00    +0.000 OA
ATOM      3  N   UNL     1       5.547   5.641  17.493  0.00  0.00    +0.000 N 
ATOM      4  C   UNL     1       4.600   5.105  16.521  0.00  0.00    +0.000 C 
ATOM      5  C   UNL     1       5.047   3.696  16.132  0.00  0.00    +0.000 C 
ATOM      6  C   UNL     1       6.461   3.733  15.517  0.00  0.00    +0.000 C 
ATOM      7  C   UNL     1       7.428   4.420  16.518  0.00  0.00    +0.000 C 
ATOM      8  C   UNL     1       6.912   5.796  16.978  0.00  0.00    +0.000 C 
ENDROOT
BRANCH   1   9
ATOM      9  C   UNL     1       4.260   4.654  19.387  0.00  0.00    +0.000 C 
BRANCH   9  10
ATOM     10  N   UNL     1       2.916   5.039  18.904  0.00  0.00    +0.000 N 
BRANCH  10  11
ATOM     11  C   UNL     1       2.481   6.375  19.206  0.00  0.00    +0.000 A 
ATOM     12  C   UNL     1       2.074   6.711  20.503  0.00  0.00    +0.000 A 
ATOM     13  C   UNL     1       1.547   7.968  20.787  0.00  0.00    +0.000 A 
ATOM     14  C   UNL     1       1.453   8.915  19.774  0.00  0.00    +0.000 A 
ATOM     15  C   UNL     1       1.878   8.597  18.482  0.00  0.00    +0.000 A 
ATOM     16  C   UNL     1       2.368   7.320  18.189  0.00  0.00    +0.000 A 
ENDBRANCH  10  11
BRANCH  10  17
ATOM     17  S   UNL     1       1.733   3.810  18.934  0.00  0.00    +0.000 S 
ATOM     18  O   UNL     1       1.367   3.529  17.559  0.00  0.00    +0.000 OA
ATOM     19  O   UNL     1       0.710   4.160  19.893  0.00  0.00    +0.000 OA
BRANCH  17  21
ATOM     20  C   UNL     1       3.378   1.669  18.595  0.00  0.00    +0.000 C 
ATOM     21  N   UNL     1       2.561   2.468  19.509  0.00  0.00    +0.000 NA
ATOM     22  C   UNL     1       2.987   2.445  20.916  0.00  0.00    +0.000 C 
ENDBRANCH  17  21
ENDBRANCH  10  17
ENDBRANCH   9  10
ENDBRANCH   1   9
BRANCH   6  23
ATOM     23  C   UNL     1       6.500   4.452  14.149  0.00  0.00    +0.000 C 
BRANCH  23  24
ATOM     24  C   UNL     1       5.933   3.671  12.988  0.00  0.00    +0.000 A 
ATOM     25  C   UNL     1       4.637   3.941  12.522  0.00  0.00    +0.000 A 
ATOM     26  C   UNL     1       4.129   3.272  11.409  0.00  0.00    +0.000 A 
ATOM     27  C   UNL     1       4.909   2.328  10.746  0.00  0.00    +0.000 A 
ATOM     28  C   UNL     1       6.192   2.041  11.209  0.00  0.00    +0.000 A 
ATOM     29  C   UNL     1       6.701   2.704  12.327  0.00  0.00    +0.000 A 
ENDBRANCH  23  24
ENDBRANCH   6  23
TORSDOF 7
ENDMDL
MODEL 5
REMARK VINA RESULT:      -7.3      4.166      6.633
REMARK  Name = 
REMARK  9 active torsions:
REMARK  status: ('A' for Active; 'I' for Inactive)
REMARK    1  A    between atoms: C_1  and  N_2
REMARK    2  A    between atoms: N_2  and  C_3
REMARK    3  A    between atoms: N_2  and  S_4
REMARK    4  A    between atoms: S_4  and  N_7
REMARK    5  A    between atoms: N_7  and  C_8
REMARK    6  A    between atoms: N_7  and  C_24
REMARK    7  A    between atoms: C_8  and  C_9
REMARK    8  A    between atoms: C_14  and  C_15
REMARK    9  A    between atoms: C_15  and  C_16
REMARK                            x       y       z     vdW  Elec       q    Type
REMARK                         _______ _______ _______ _____ _____    ______ ____
ROOT
ATOM      1  C   UNL     1       1.060   8.069  20.567  0.00  0.00    +0.000 C 
ATOM      2  O   UNL     1       0.212   7.947  21.448  0.00  0.00    +0.000 OA
ATOM      3  N   UNL     1       2.049   7.106  20.359  0.00  0.00    +0.000 N 
ATOM      4  C   UNL     1       3.090   7.210  19.341  0.00  0.00    +0.000 C 
ATOM      5  C   UNL     1       2.599   6.513  18.072  0.00  0.00    +0.000 C 
ATOM      6  C   UNL     1       2.295   5.028  18.358  0.00  0.00    +0.000 C 
ATOM      7  C   UNL     1       1.279   4.939  19.528  0.00  0.00    +0.000 C 
ATOM      8  C   UNL     1       1.742   5.731  20.765  0.00  0.00    +0.000 C 
ENDROOT
BRANCH   1   9
ATOM      9  C   UNL     1       0.971   9.208  19.560  0.00  0.00    +0.000 C 
BRANCH   9  10
ATOM     10  N   UNL     1      -0.022  10.253  19.894  0.00  0.00    +0.000 N 
BRANCH  10  11
ATOM     11  C   UNL     1      -1.042  10.509  18.914  0.00  0.00    +0.000 A 
ATOM     12  C   UNL     1      -2.117  11.354  19.214  0.00  0.00    +0.000 A 
ATOM     13  C   UNL     1      -3.168  11.525  18.317  0.00  0.00    +0.000 A 
ATOM     14  C   UNL     1      -3.134  10.872  17.091  0.00  0.00    +0.000 A 
ATOM     15  C   UNL     1      -2.054  10.045  16.772  0.00  0.00    +0.000 A 
ATOM     16  C   UNL     1      -1.019   9.841  17.692  0.00  0.00    +0.000 A 
ENDBRANCH  10  11
BRANCH  10  17
ATOM     17  S   UNL     1       0.570  11.593  20.768  0.00  0.00    +0.000 S 
ATOM     18  O   UNL     1       0.572  12.729  19.867  0.00  0.00    +0.000 OA
ATOM     19  O   UNL     1       1.786  11.214  21.450  0.00  0.00    +0.000 OA
BRANCH  17  21
ATOM     20  C   UNL     1      -0.970  10.829  22.878  0.00  0.00    +0.000 C 
ATOM     21  N   UNL     1      -0.616  11.878  21.920  0.00  0.00    +0.000 NA
ATOM     22  C   UNL     1      -0.838  13.254  22.386  0.00  0.00    +0.000 C 
ENDBRANCH  17  21
ENDBRANCH  10  17
ENDBRANCH   9  10
ENDBRANCH   1   9
BRANCH   6  23
ATOM     23  C   UNL     1       3.564   4.209  18.682  0.00  0.00    +0.000 C 
BRANCH  23  24
ATOM     24  C   UNL     1       4.712   4.379  17.716  0.00  0.00    +0.000 A 
ATOM     25  C   UNL     1       5.958   4.834  18.173  0.00  0.00    +0.000 A 
ATOM     26  C   UNL     1       7.043   4.931  17.302  0.00  0.00    +0.000 A 
ATOM     27  C   UNL     1       6.896   4.572  15.964  0.00  0.00    +0.000 A 
ATOM     28  C   UNL     1       5.660   4.134  15.495  0.00  0.00    +0.000 A 
ATOM     29  C   UNL     1       4.570   4.042  16.364  0.00  0.00    +0.000 A 
ENDBRANCH  23  24
ENDBRANCH   6  23
TORSDOF 7
ENDMDL
MODEL 6
REMARK VINA RESULT:      -7.2      4.199      6.773
REMARK  Name = 
REMARK  9 active torsions:
REMARK  status: ('A' for Active; 'I' for Inactive)
REMARK    1  A    between atoms: C_1  and  N_2
REMARK    2  A    between atoms: N_2  and  C_3
REMARK    3  A    between atoms: N_2  and  S_4
REMARK    4  A    between atoms: S_4  and  N_7
REMARK    5  A    between atoms: N_7  and  C_8
REMARK    6  A    between atoms: N_7  and  C_24
REMARK    7  A    between atoms: C_8  and  C_9
REMARK    8  A    between atoms: C_14  and  C_15
REMARK    9  A    between atoms: C_15  and  C_16
REMARK                            x       y       z     vdW  Elec       q    Type
REMARK                         _______ _______ _______ _____ _____    ______ ____
ROOT
ATOM      1  C   UNL     1       1.042   8.324  20.455  0.00  0.00    +0.000 C 
ATOM      2  O   UNL     1       0.222   8.260  21.368  0.00  0.00    +0.000 OA
ATOM      3  N   UNL     1       2.042   7.363  20.294  0.00  0.00    +0.000 N 
ATOM      4  C   UNL     1       3.050   7.400  19.240  0.00  0.00    +0.000 C 
ATOM      5  C   UNL     1       2.535   6.596  18.047  0.00  0.00    +0.000 C 
ATOM      6  C   UNL     1       2.266   5.134  18.461  0.00  0.00    +0.000 C 
ATOM      7  C   UNL     1       1.287   5.124  19.665  0.00  0.00    +0.000 C 
ATOM      8  C   UNL     1       1.772   6.020  20.819  0.00  0.00    +0.000 C 
ENDROOT
BRANCH   1   9
ATOM      9  C   UNL     1       0.903   9.376  19.363  0.00  0.00    +0.000 C 
BRANCH   9  10
ATOM     10  N   UNL     1      -0.105  10.424  19.638  0.00  0.00    +0.000 N 
BRANCH  10  11
ATOM     11  C   UNL     1      -1.179  10.549  18.691  0.00  0.00    +0.000 A 
ATOM     12  C   UNL     1      -2.300  11.332  18.990  0.00  0.00    +0.000 A 
ATOM     13  C   UNL     1      -3.395  11.375  18.132  0.00  0.00    +0.000 A 
ATOM     14  C   UNL     1      -3.362  10.656  16.944  0.00  0.00    +0.000 A 
ATOM     15  C   UNL     1      -2.238   9.890  16.624  0.00  0.00    +0.000 A 
ATOM     16  C   UNL     1      -1.156   9.814  17.508  0.00  0.00    +0.000 A 
ENDBRANCH  10  11
BRANCH  10  17
ATOM     17  S   UNL     1       0.487  11.863  20.338  0.00  0.00    +0.000 S 
ATOM     18  O   UNL     1       1.715  11.531  21.035  0.00  0.00    +0.000 OA
ATOM     19  O   UNL     1      -0.585  12.523  21.045  0.00  0.00    +0.000 OA
BRANCH  17  21
ATOM     20  C   UNL     1       0.222  14.077  18.778  0.00  0.00    +0.000 C 
ATOM     21  N   UNL     1       0.910  12.808  19.016  0.00  0.00    +0.000 NA
ATOM     22  C   UNL     1       2.283  12.730  18.498  0.00  0.00    +0.000 C 
ENDBRANCH  17  21
ENDBRANCH  10  17
ENDBRANCH   9  10
ENDBRANCH   1   9
BRANCH   6  23
ATOM     23  C   UNL     1       3.559   4.363  18.810  0.00  0.00    +0.000 C 
BRANCH  23  24
ATOM     24  C   UNL     1       4.682   4.489  17.808  0.00  0.00    +0.000 A 
ATOM     25  C   UNL     1       5.911   5.046  18.193  0.00  0.00    +0.000 A 
ATOM     26  C   UNL     1       6.976   5.106  17.294  0.00  0.00    +0.000 A 
ATOM     27  C   UNL     1       6.827   4.608  16.002  0.00  0.00    +0.000 A 
ATOM     28  C   UNL     1       5.606   4.067  15.604  0.00  0.00    +0.000 A 
ATOM     29  C   UNL     1       4.536   4.011  16.500  0.00  0.00    +0.000 A 
ENDBRANCH  23  24
ENDBRANCH   6  23
TORSDOF 7
ENDMDL
MODEL 7
REMARK VINA RESULT:      -7.2      3.064      8.983
REMARK  Name = 
REMARK  9 active torsions:
REMARK  status: ('A' for Active; 'I' for Inactive)
REMARK    1  A    between atoms: C_1  and  N_2
REMARK    2  A    between atoms: N_2  and  C_3
REMARK    3  A    between atoms: N_2  and  S_4
REMARK    4  A    between atoms: S_4  and  N_7
REMARK    5  A    between atoms: N_7  and  C_8
REMARK    6  A    between atoms: N_7  and  C_24
REMARK    7  A    between atoms: C_8  and  C_9
REMARK    8  A    between atoms: C_14  and  C_15
REMARK    9  A    between atoms: C_15  and  C_16
REMARK                            x       y       z     vdW  Elec       q    Type
REMARK                         _______ _______ _______ _____ _____    ______ ____
ROOT
ATOM      1  C   UNL     1       2.247   7.810  18.363  0.00  0.00    +0.000 C 
ATOM      2  O   UNL     1       2.367   8.364  17.272  0.00  0.00    +0.000 OA
ATOM      3  N   UNL     1       2.069   8.537  19.541  0.00  0.00    +0.000 N 
ATOM      4  C   UNL     1       1.939   7.932  20.863  0.00  0.00    +0.000 C 
ATOM      5  C   UNL     1       0.455   7.714  21.154  0.00  0.00    +0.000 C 
ATOM      6  C   UNL     1      -0.302   9.058  21.119  0.00  0.00    +0.000 C 
ATOM      7  C   UNL     1      -0.048   9.743  19.749  0.00  0.00    +0.000 C 
ATOM      8  C   UNL     1       1.452   9.863  19.425  0.00  0.00    +0.000 C 
ENDROOT
BRANCH   1   9
ATOM      9  C   UNL     1       2.132   6.295  18.452  0.00  0.00    +0.000 C 
BRANCH   9  10
ATOM     10  N   UNL     1       3.385   5.599  18.818  0.00  0.00    +0.000 N 
BRANCH  10  11
ATOM     11  C   UNL     1       4.441   5.619  17.844  0.00  0.00    +0.000 A 
ATOM     12  C   UNL     1       4.300   4.935  16.631  0.00  0.00    +0.000 A 
ATOM     13  C   UNL     1       5.354   4.852  15.726  0.00  0.00    +0.000 A 
ATOM     14  C   UNL     1       6.556   5.487  16.016  0.00  0.00    +0.000 A 
ATOM     15  C   UNL     1       6.700   6.192  17.213  0.00  0.00    +0.000 A 
ATOM     16  C   UNL     1       5.653   6.238  18.141  0.00  0.00    +0.000 A 
ENDBRANCH  10  11
BRANCH  10  17
ATOM     17  S   UNL     1       3.204   4.176  19.741  0.00  0.00    +0.000 S 
ATOM     18  O   UNL     1       2.619   4.557  21.013  0.00  0.00    +0.000 OA
ATOM     19  O   UNL     1       4.442   3.432  19.714  0.00  0.00    +0.000 OA
BRANCH  17  21
ATOM     20  C   UNL     1       2.451   2.265  17.956  0.00  0.00    +0.000 C 
ATOM     21  N   UNL     1       2.042   3.300  18.906  0.00  0.00    +0.000 NA
ATOM     22  C   UNL     1       0.724   3.099  19.524  0.00  0.00    +0.000 C 
ENDBRANCH  17  21
ENDBRANCH  10  17
ENDBRANCH   9  10
ENDBRANCH   1   9
BRANCH   6  23
ATOM     23  C   UNL     1       0.099  10.001  22.276  0.00  0.00    +0.000 C 
BRANCH  23  24
ATOM     24  C   UNL     1      -0.728  11.258  22.406  0.00  0.00    +0.000 A 
ATOM     25  C   UNL     1      -1.899  11.255  23.181  0.00  0.00    +0.000 A 
ATOM     26  C   UNL     1      -2.634  12.426  23.362  0.00  0.00    +0.000 A 
ATOM     27  C   UNL     1      -2.208  13.614  22.774  0.00  0.00    +0.000 A 
ATOM     28  C   UNL     1      -1.056  13.626  21.990  0.00  0.00    +0.000 A 
ATOM     29  C   UNL     1      -0.322  12.454  21.801  0.00  0.00    +0.000 A 
ENDBRANCH  23  24
ENDBRANCH   6  23
TORSDOF 7
ENDMDL
MODEL 8
REMARK VINA RESULT:      -7.2      3.134      8.929
REMARK  Name = 
REMARK  9 active torsions:
REMARK  status: ('A' for Active; 'I' for Inactive)
REMARK    1  A    between atoms: C_1  and  N_2
REMARK    2  A    between atoms: N_2  and  C_3
REMARK    3  A    between atoms: N_2  and  S_4
REMARK    4  A    between atoms: S_4  and  N_7
REMARK    5  A    between atoms: N_7  and  C_8
REMARK    6  A    between atoms: N_7  and  C_24
REMARK    7  A    between atoms: C_8  and  C_9
REMARK    8  A    between atoms: C_14  and  C_15
REMARK    9  A    between atoms: C_15  and  C_16
REMARK                            x       y       z     vdW  Elec       q    Type
REMARK                         _______ _______ _______ _____ _____    ______ ____
ROOT
ATOM      1  C   UNL     1       2.389   7.688  18.251  0.00  0.00    +0.000 C 
ATOM      2  O   UNL     1       2.666   8.029  17.103  0.00  0.00    +0.000 OA
ATOM      3  N   UNL     1       2.118   8.623  19.252  0.00  0.00    +0.000 N 
ATOM      4  C   UNL     1       1.802   8.274  20.633  0.00  0.00    +0.000 C 
ATOM      5  C   UNL     1       0.284   8.168  20.772  0.00  0.00    +0.000 C 
ATOM      6  C   UNL     1      -0.384   9.509  20.406  0.00  0.00    +0.000 C 
ATOM      7  C   UNL     1       0.065   9.923  18.979  0.00  0.00    +0.000 C 
ATOM      8  C   UNL     1       1.598   9.927  18.828  0.00  0.00    +0.000 C 
ENDROOT
BRANCH   1   9
ATOM      9  C   UNL     1       2.176   6.219  18.592  0.00  0.00    +0.000 C 
BRANCH   9  10
ATOM     10  N   UNL     1       3.404   5.488  18.972  0.00  0.00    +0.000 N 
BRANCH  10  11
ATOM     11  C   UNL     1       4.475   5.484  18.014  0.00  0.00    +0.000 A 
ATOM     12  C   UNL     1       5.688   6.120  18.303  0.00  0.00    +0.000 A 
ATOM     13  C   UNL     1       6.693   6.220  17.345  0.00  0.00    +0.000 A 
ATOM     14  C   UNL     1       6.503   5.652  16.092  0.00  0.00    +0.000 A 
ATOM     15  C   UNL     1       5.305   4.994  15.800  0.00  0.00    +0.000 A 
ATOM     16  C   UNL     1       4.280   4.931  16.750  0.00  0.00    +0.000 A 
ENDBRANCH  10  11
BRANCH  10  17
ATOM     17  S   UNL     1       3.172   4.064  19.884  0.00  0.00    +0.000 S 
ATOM     18  O   UNL     1       2.550   4.451  21.136  0.00  0.00    +0.000 OA
ATOM     19  O   UNL     1       4.399   3.302  19.895  0.00  0.00    +0.000 OA
BRANCH  17  21
ATOM     20  C   UNL     1       2.453   2.214  18.022  0.00  0.00    +0.000 C 
ATOM     21  N   UNL     1       2.025   3.208  19.007  0.00  0.00    +0.000 NA
ATOM     22  C   UNL     1       0.704   2.970  19.607  0.00  0.00    +0.000 C 
ENDBRANCH  17  21
ENDBRANCH  10  17
ENDBRANCH   9  10
ENDBRANCH   1   9
BRANCH   6  23
ATOM     23  C   UNL     1      -0.066  10.632  21.418  0.00  0.00    +0.000 C 
BRANCH  23  24
ATOM     24  C   UNL     1      -1.239  11.490  21.827  0.00  0.00    +0.000 A 
ATOM     25  C   UNL     1      -1.880  12.306  20.882  0.00  0.00    +0.000 A 
ATOM     26  C   UNL     1      -3.006  13.051  21.233  0.00  0.00    +0.000 A 
ATOM     27  C   UNL     1      -3.506  12.988  22.531  0.00  0.00    +0.000 A 
ATOM     28  C   UNL     1      -2.869  12.194  23.483  0.00  0.00    +0.000 A 
ATOM     29  C   UNL     1      -1.738  11.452  23.135  0.00  0.00    +0.000 A 
ENDBRANCH  23  24
ENDBRANCH   6  23
TORSDOF 7
ENDMDL
MODEL 9
REMARK VINA RESULT:      -7.2      3.753      9.468
REMARK  Name = 
REMARK  9 active torsions:
REMARK  status: ('A' for Active; 'I' for Inactive)
REMARK    1  A    between atoms: C_1  and  N_2
REMARK    2  A    between atoms: N_2  and  C_3
REMARK    3  A    between atoms: N_2  and  S_4
REMARK    4  A    between atoms: S_4  and  N_7
REMARK    5  A    between atoms: N_7  and  C_8
REMARK    6  A    between atoms: N_7  and  C_24
REMARK    7  A    between atoms: C_8  and  C_9
REMARK    8  A    between atoms: C_14  and  C_15
REMARK    9  A    between atoms: C_15  and  C_16
REMARK                            x       y       z     vdW  Elec       q    Type
REMARK                         _______ _______ _______ _____ _____    ______ ____
ROOT
ATOM      1  C   UNL     1       2.048   8.513  18.504  0.00  0.00    +0.000 C 
ATOM      2  O   UNL     1       2.091   8.359  17.285  0.00  0.00    +0.000 OA
ATOM      3  N   UNL     1       1.555   9.685  19.081  0.00  0.00    +0.000 N 
ATOM      4  C   UNL     1       1.499   9.927  20.519  0.00  0.00    +0.000 C 
ATOM      5  C   UNL     1       0.130   9.482  21.033  0.00  0.00    +0.000 C 
ATOM      6  C   UNL     1      -0.991  10.271  20.326  0.00  0.00    +0.000 C 
ATOM      7  C   UNL     1      -0.837  10.100  18.791  0.00  0.00    +0.000 C 
ATOM      8  C   UNL     1       0.580  10.456  18.304  0.00  0.00    +0.000 C 
ENDROOT
BRANCH   1   9
ATOM      9  C   UNL     1       2.389   7.362  19.441  0.00  0.00    +0.000 C 
BRANCH   9  10
ATOM     10  N   UNL     1       2.751   6.098  18.763  0.00  0.00    +0.000 N 
BRANCH  10  11
ATOM     11  C   UNL     1       2.002   4.930  19.137  0.00  0.00    +0.000 A 
ATOM     12  C   UNL     1       1.887   4.562  20.483  0.00  0.00    +0.000 A 
ATOM     13  C   UNL     1       1.260   3.375  20.852  0.00  0.00    +0.000 A 
ATOM     14  C   UNL     1       0.710   2.558  19.871  0.00  0.00    +0.000 A 
ATOM     15  C   UNL     1       0.799   2.927  18.527  0.00  0.00    +0.000 A 
ATOM     16  C   UNL     1       1.467   4.100  18.155  0.00  0.00    +0.000 A 
ENDBRANCH  10  11
BRANCH  10  17
ATOM     17  S   UNL     1       4.408   5.883  18.421  0.00  0.00    +0.000 S 
ATOM     18  O   UNL     1       5.111   5.860  19.690  0.00  0.00    +0.000 OA
ATOM     19  O   UNL     1       4.807   6.819  17.396  0.00  0.00    +0.000 OA
BRANCH  17  21
ATOM     20  C   UNL     1       4.749   4.145  16.355  0.00  0.00    +0.000 C 
ATOM     21  N   UNL     1       4.490   4.333  17.783  0.00  0.00    +0.000 NA
ATOM     22  C   UNL     1       4.924   3.229  18.651  0.00  0.00    +0.000 C 
ENDBRANCH  17  21
ENDBRANCH  10  17
ENDBRANCH   9  10
ENDBRANCH   1   9
BRANCH   6  23
ATOM     23  C   UNL     1      -0.998  11.770  20.704  0.00  0.00    +0.000 C 
BRANCH  23  24
ATOM     24  C   UNL     1      -2.170  12.223  21.542  0.00  0.00    +0.000 A 
ATOM     25  C   UNL     1      -3.265  12.859  20.938  0.00  0.00    +0.000 A 
ATOM     26  C   UNL     1      -4.381  13.221  21.692  0.00  0.00    +0.000 A 
ATOM     27  C   UNL     1      -4.417  12.950  23.057  0.00  0.00    +0.000 A 
ATOM     28  C   UNL     1      -3.329  12.333  23.671  0.00  0.00    +0.000 A 
ATOM     29  C   UNL     1      -2.208  11.975  22.920  0.00  0.00    +0.000 A 
ENDBRANCH  23  24
ENDBRANCH   6  23
TORSDOF 7
ENDMDL
