MODEL 1
REMARK VINA RESULT:      -7.9      0.000      0.000
REMARK  Name = 
REMARK  4 active torsions:
REMARK  status: ('A' for Active; 'I' for Inactive)
REMARK    1  A    between atoms: C_2  and  C_3
REMARK    2  A    between atoms: C_3  and  C_4
REMARK    3  A    between atoms: C_13  and  C_14
REMARK    4  A    between atoms: C_17  and  O_18
REMARK                            x       y       z     vdW  Elec       q    Type
REMARK                         _______ _______ _______ _____ _____    ______ ____
ROOT
ATOM      1  O   UNL     1       4.366   2.991  11.455  0.00  0.00    +0.000 OA
ATOM      2  C   UNL     1       5.297   3.417  12.144  0.00  0.00    +0.000 C 
ATOM      3  N   UNL     1       5.107   3.541  13.493  0.00  0.00    +0.000 N 
ATOM      4  C   UNL     1       5.975   4.054  14.437  0.00  0.00    +0.000 A 
ATOM      5  N   UNL     1       7.176   4.569  14.153  0.00  0.00    +0.000 NA
ATOM      6  N   UNL     1       7.661   4.970  15.340  0.00  0.00    +0.000 N 
ATOM      7  C   UNL     1       6.821   4.733  16.382  0.00  0.00    +0.000 A 
ATOM      8  N   UNL     1       7.051   5.038  17.668  0.00  0.00    +0.000 NA
ATOM      9  C   UNL     1       6.020   4.677  18.476  0.00  0.00    +0.000 A 
ATOM     10  C   UNL     1       4.823   4.051  18.095  0.00  0.00    +0.000 A 
ATOM     11  C   UNL     1       4.676   3.757  16.723  0.00  0.00    +0.000 A 
ATOM     12  C   UNL     1       5.706   4.119  15.836  0.00  0.00    +0.000 A 
ATOM     13  H   UNL     1       4.200   3.240  13.815  0.00  0.00    +0.000 HD
ATOM     14  H   UNL     1       8.571   5.411  15.381  0.00  0.00    +0.000 HD
ENDROOT
BRANCH  10  15
ATOM     15  C   UNL     1       3.762   3.731  19.074  0.00  0.00    +0.000 A 
ATOM     16  C   UNL     1       2.485   4.323  18.992  0.00  0.00    +0.000 A 
ATOM     17  C   UNL     1       1.474   4.010  19.906  0.00  0.00    +0.000 A 
ATOM     18  C   UNL     1       1.723   3.087  20.912  0.00  0.00    +0.000 A 
ATOM     19  C   UNL     1       2.966   2.483  21.022  0.00  0.00    +0.000 A 
ATOM     20  C   UNL     1       3.979   2.810  20.115  0.00  0.00    +0.000 A 
BRANCH  18  21
ATOM     21  O   UNL     1       0.767   2.742  21.818  0.00  0.00    +0.000 OA
ATOM     22  H   UNL     1       1.054   1.940  22.284  0.00  0.00    +0.000 HD
ENDBRANCH  18  21
ENDBRANCH  10  15
BRANCH   2  23
ATOM     23  C   UNL     1       6.633   3.790  11.537  0.00  0.00    +0.000 C 
BRANCH  23  24
ATOM     24  C   UNL     1       7.497   2.576  11.263  0.00  0.00    +0.000 C 
ATOM     25 CL   UNL     1       6.462   1.152  10.967  0.00  0.00    +0.000 Cl
ENDBRANCH  23  24
ENDBRANCH   2  23
TORSDOF 4
ENDMDL
MODEL 2
REMARK VINA RESULT:      -7.7      5.483      7.536
REMARK  Name = 
REMARK  4 active torsions:
REMARK  status: ('A' for Active; 'I' for Inactive)
REMARK    1  A    between atoms: C_2  and  C_3
REMARK    2  A    between atoms: C_3  and  C_4
REMARK    3  A    between atoms: C_13  and  C_14
REMARK    4  A    between atoms: C_17  and  O_18
REMARK                            x       y       z     vdW  Elec       q    Type
REMARK                         _______ _______ _______ _____ _____    ______ ____
ROOT
ATOM      1  O   UNL     1       2.987   2.512  21.550  0.00  0.00    +0.000 OA
ATOM      2  C   UNL     1       3.281   3.241  20.598  0.00  0.00    +0.000 C 
ATOM      3  N   UNL     1       2.756   4.505  20.559  0.00  0.00    +0.000 N 
ATOM      4  C   UNL     1       2.893   5.458  19.568  0.00  0.00    +0.000 A 
ATOM      5  N   UNL     1       3.558   5.264  18.424  0.00  0.00    +0.000 NA
ATOM      6  N   UNL     1       3.415   6.418  17.751  0.00  0.00    +0.000 N 
ATOM      7  C   UNL     1       2.684   7.352  18.415  0.00  0.00    +0.000 A 
ATOM      8  N   UNL     1       2.383   8.582  17.973  0.00  0.00    +0.000 NA
ATOM      9  C   UNL     1       1.635   9.282  18.865  0.00  0.00    +0.000 A 
ATOM     10  C   UNL     1       1.191   8.849  20.124  0.00  0.00    +0.000 A 
ATOM     11  C   UNL     1       1.567   7.546  20.510  0.00  0.00    +0.000 A 
ATOM     12  C   UNL     1       2.332   6.768  19.621  0.00  0.00    +0.000 A 
ATOM     13  H   UNL     1       2.176   4.740  21.349  0.00  0.00    +0.000 HD
ATOM     14  H   UNL     1       3.830   6.512  16.832  0.00  0.00    +0.000 HD
ENDROOT
BRANCH  10  15
ATOM     15  C   UNL     1       0.356   9.704  20.995  0.00  0.00    +0.000 A 
ATOM     16  C   UNL     1      -0.183  10.921  20.530  0.00  0.00    +0.000 A 
ATOM     17  C   UNL     1      -0.986  11.724  21.346  0.00  0.00    +0.000 A 
ATOM     18  C   UNL     1      -1.272  11.314  22.640  0.00  0.00    +0.000 A 
ATOM     19  C   UNL     1      -0.762  10.122  23.131  0.00  0.00    +0.000 A 
ATOM     20  C   UNL     1       0.053   9.329  22.317  0.00  0.00    +0.000 A 
BRANCH  18  21
ATOM     21  O   UNL     1      -2.059  12.056  23.467  0.00  0.00    +0.000 OA
ATOM     22  H   UNL     1      -2.115  12.961  23.116  0.00  0.00    +0.000 HD
ENDBRANCH  18  21
ENDBRANCH  10  15
BRANCH   2  23
ATOM     23  C   UNL     1       4.208   2.779  19.494  0.00  0.00    +0.000 C 
BRANCH  23  24
ATOM     24  C   UNL     1       3.582   1.704  18.632  0.00  0.00    +0.000 C 
ATOM     25 CL   UNL     1       1.902   2.155  18.227  0.00  0.00    +0.000 Cl
ENDBRANCH  23  24
ENDBRANCH   2  23
TORSDOF 4
ENDMDL
MODEL 3
REMARK VINA RESULT:      -7.7      7.088      9.704
REMARK  Name = 
REMARK  4 active torsions:
REMARK  status: ('A' for Active; 'I' for Inactive)
REMARK    1  A    between atoms: C_2  and  C_3
REMARK    2  A    between atoms: C_3  and  C_4
REMARK    3  A    between atoms: C_13  and  C_14
REMARK    4  A    between atoms: C_17  and  O_18
REMARK                            x       y       z     vdW  Elec       q    Type
REMARK                         _______ _______ _______ _____ _____    ______ ____
ROOT
ATOM      1  O   UNL     1      -0.895  10.571  23.536  0.00  0.00    +0.000 OA
ATOM      2  C   UNL     1      -0.675  10.785  22.341  0.00  0.00    +0.000 C 
ATOM      3  N   UNL     1       0.086   9.884  21.646  0.00  0.00    +0.000 N 
ATOM      4  C   UNL     1       0.511   9.954  20.334  0.00  0.00    +0.000 A 
ATOM      5  N   UNL     1       0.264  10.984  19.517  0.00  0.00    +0.000 NA
ATOM      6  N   UNL     1       0.875  10.656  18.366  0.00  0.00    +0.000 N 
ATOM      7  C   UNL     1       1.508   9.454  18.406  0.00  0.00    +0.000 A 
ATOM      8  N   UNL     1       2.199   8.891  17.404  0.00  0.00    +0.000 NA
ATOM      9  C   UNL     1       2.719   7.684  17.750  0.00  0.00    +0.000 A 
ATOM     10  C   UNL     1       2.591   7.029  18.985  0.00  0.00    +0.000 A 
ATOM     11  C   UNL     1       1.835   7.692  19.974  0.00  0.00    +0.000 A 
ATOM     12  C   UNL     1       1.284   8.951  19.676  0.00  0.00    +0.000 A 
ATOM     13  H   UNL     1       0.389   9.090  22.188  0.00  0.00    +0.000 HD
ATOM     14  H   UNL     1       0.838  11.298  17.584  0.00  0.00    +0.000 HD
ENDROOT
BRANCH  10  15
ATOM     15  C   UNL     1       3.230   5.720  19.245  0.00  0.00    +0.000 A 
ATOM     16  C   UNL     1       2.495   4.636  19.764  0.00  0.00    +0.000 A 
ATOM     17  C   UNL     1       3.091   3.391  19.995  0.00  0.00    +0.000 A 
ATOM     18  C   UNL     1       4.434   3.212  19.698  0.00  0.00    +0.000 A 
ATOM     19  C   UNL     1       5.188   4.255  19.184  0.00  0.00    +0.000 A 
ATOM     20  C   UNL     1       4.592   5.502  18.968  0.00  0.00    +0.000 A 
BRANCH  18  21
ATOM     21  O   UNL     1       5.055   2.016  19.895  0.00  0.00    +0.000 OA
ATOM     22  H   UNL     1       5.691   1.872  19.175  0.00  0.00    +0.000 HD
ENDBRANCH  18  21
ENDBRANCH  10  15
BRANCH   2  23
ATOM     23  C   UNL     1      -1.234  12.000  21.630  0.00  0.00    +0.000 C 
BRANCH  23  24
ATOM     24  C   UNL     1      -1.791  13.024  22.598  0.00  0.00    +0.000 C 
ATOM     25 CL   UNL     1      -3.482  12.616  23.002  0.00  0.00    +0.000 Cl
ENDBRANCH  23  24
ENDBRANCH   2  23
TORSDOF 4
ENDMDL
MODEL 4
REMARK VINA RESULT:      -7.7      5.536      7.658
REMARK  Name = 
REMARK  4 active torsions:
REMARK  status: ('A' for Active; 'I' for Inactive)
REMARK    1  A    between atoms: C_2  and  C_3
REMARK    2  A    between atoms: C_3  and  C_4
REMARK    3  A    between atoms: C_13  and  C_14
REMARK    4  A    between atoms: C_17  and  O_18
REMARK                            x       y       z     vdW  Elec       q    Type
REMARK                         _______ _______ _______ _____ _____    ______ ____
ROOT
ATOM      1  O   UNL     1       2.965   2.546  21.602  0.00  0.00    +0.000 OA
ATOM      2  C   UNL     1       3.252   3.271  20.645  0.00  0.00    +0.000 C 
ATOM      3  N   UNL     1       2.721   4.532  20.599  0.00  0.00    +0.000 N 
ATOM      4  C   UNL     1       2.849   5.479  19.602  0.00  0.00    +0.000 A 
ATOM      5  N   UNL     1       3.512   5.282  18.457  0.00  0.00    +0.000 NA
ATOM      6  N   UNL     1       3.361   6.431  17.778  0.00  0.00    +0.000 N 
ATOM      7  C   UNL     1       2.627   7.365  18.438  0.00  0.00    +0.000 A 
ATOM      8  N   UNL     1       2.318   8.591  17.989  0.00  0.00    +0.000 NA
ATOM      9  C   UNL     1       1.570   9.293  18.879  0.00  0.00    +0.000 A 
ATOM     10  C   UNL     1       1.131   8.865  20.143  0.00  0.00    +0.000 A 
ATOM     11  C   UNL     1       1.516   7.566  20.535  0.00  0.00    +0.000 A 
ATOM     12  C   UNL     1       2.282   6.787  19.648  0.00  0.00    +0.000 A 
ATOM     13  H   UNL     1       2.142   4.768  21.390  0.00  0.00    +0.000 HD
ATOM     14  H   UNL     1       3.772   6.521  16.857  0.00  0.00    +0.000 HD
ENDROOT
BRANCH  10  15
ATOM     15  C   UNL     1       0.295   9.721  21.011  0.00  0.00    +0.000 A 
ATOM     16  C   UNL     1       0.014   9.361  22.344  0.00  0.00    +0.000 A 
ATOM     17  C   UNL     1      -0.762  10.177  23.175  0.00  0.00    +0.000 A 
ATOM     18  C   UNL     1      -1.260  11.376  22.683  0.00  0.00    +0.000 A 
ATOM     19  C   UNL     1      -1.001  11.763  21.377  0.00  0.00    +0.000 A 
ATOM     20  C   UNL     1      -0.238  10.938  20.546  0.00  0.00    +0.000 A 
BRANCH  18  21
ATOM     21  O   UNL     1      -2.010  12.208  23.456  0.00  0.00    +0.000 OA
ATOM     22  H   UNL     1      -2.423  11.687  24.166  0.00  0.00    +0.000 HD
ENDBRANCH  18  21
ENDBRANCH  10  15
BRANCH   2  23
ATOM     23  C   UNL     1       4.179   2.807  19.541  0.00  0.00    +0.000 C 
BRANCH  23  24
ATOM     24  C   UNL     1       3.546   1.741  18.672  0.00  0.00    +0.000 C 
ATOM     25 CL   UNL     1       1.815   2.107  18.429  0.00  0.00    +0.000 Cl
ENDBRANCH  23  24
ENDBRANCH   2  23
TORSDOF 4
ENDMDL
MODEL 5
REMARK VINA RESULT:      -7.6      7.156      9.718
REMARK  Name = 
REMARK  4 active torsions:
REMARK  status: ('A' for Active; 'I' for Inactive)
REMARK    1  A    between atoms: C_2  and  C_3
REMARK    2  A    between atoms: C_3  and  C_4
REMARK    3  A    between atoms: C_13  and  C_14
REMARK    4  A    between atoms: C_17  and  O_18
REMARK                            x       y       z     vdW  Elec       q    Type
REMARK                         _______ _______ _______ _____ _____    ______ ____
ROOT
ATOM      1  O   UNL     1      -0.816  10.565  23.573  0.00  0.00    +0.000 OA
ATOM      2  C   UNL     1      -0.602  10.827  22.386  0.00  0.00    +0.000 C 
ATOM      3  N   UNL     1       0.139   9.945  21.647  0.00  0.00    +0.000 N 
ATOM      4  C   UNL     1       0.555  10.064  20.335  0.00  0.00    +0.000 A 
ATOM      5  N   UNL     1       0.317  11.132  19.565  0.00  0.00    +0.000 NA
ATOM      6  N   UNL     1       0.914  10.843  18.396  0.00  0.00    +0.000 N 
ATOM      7  C   UNL     1       1.528   9.632  18.379  0.00  0.00    +0.000 A 
ATOM      8  N   UNL     1       2.202   9.101  17.348  0.00  0.00    +0.000 NA
ATOM      9  C   UNL     1       2.705   7.872  17.638  0.00  0.00    +0.000 A 
ATOM     10  C   UNL     1       2.577   7.166  18.845  0.00  0.00    +0.000 A 
ATOM     11  C   UNL     1       1.839   7.798  19.867  0.00  0.00    +0.000 A 
ATOM     12  C   UNL     1       1.306   9.078  19.629  0.00  0.00    +0.000 A 
ATOM     13  H   UNL     1       0.433   9.123  22.151  0.00  0.00    +0.000 HD
ATOM     14  H   UNL     1       0.882  11.519  17.642  0.00  0.00    +0.000 HD
ENDROOT
BRANCH  10  15
ATOM     15  C   UNL     1       3.196   5.838  19.043  0.00  0.00    +0.000 A 
ATOM     16  C   UNL     1       4.279   5.408  18.251  0.00  0.00    +0.000 A 
ATOM     17  C   UNL     1       4.879   4.159  18.447  0.00  0.00    +0.000 A 
ATOM     18  C   UNL     1       4.407   3.325  19.451  0.00  0.00    +0.000 A 
ATOM     19  C   UNL     1       3.345   3.716  20.251  0.00  0.00    +0.000 A 
ATOM     20  C   UNL     1       2.739   4.959  20.042  0.00  0.00    +0.000 A 
BRANCH  18  21
ATOM     21  O   UNL     1       4.965   2.106  19.687  0.00  0.00    +0.000 OA
ATOM     22  H   UNL     1       5.887   2.234  19.968  0.00  0.00    +0.000 HD
ENDBRANCH  18  21
ENDBRANCH  10  15
BRANCH   2  23
ATOM     23  C   UNL     1      -1.146  12.080  21.733  0.00  0.00    +0.000 C 
BRANCH  23  24
ATOM     24  C   UNL     1      -0.502  13.337  22.279  0.00  0.00    +0.000 C 
ATOM     25 CL   UNL     1      -1.390  13.893  23.725  0.00  0.00    +0.000 Cl
ENDBRANCH  23  24
ENDBRANCH   2  23
TORSDOF 4
ENDMDL
MODEL 6
REMARK VINA RESULT:      -7.6      1.540      1.732
REMARK  Name = 
REMARK  4 active torsions:
REMARK  status: ('A' for Active; 'I' for Inactive)
REMARK    1  A    between atoms: C_2  and  C_3
REMARK    2  A    between atoms: C_3  and  C_4
REMARK    3  A    between atoms: C_13  and  C_14
REMARK    4  A    between atoms: C_17  and  O_18
REMARK                            x       y       z     vdW  Elec       q    Type
REMARK                         _______ _______ _______ _____ _____    ______ ____
ROOT
ATOM      1  O   UNL     1       5.535   2.642  11.846  0.00  0.00    +0.000 OA
ATOM      2  C   UNL     1       6.211   3.384  12.565  0.00  0.00    +0.000 C 
ATOM      3  N   UNL     1       5.801   3.595  13.854  0.00  0.00    +0.000 N 
ATOM      4  C   UNL     1       6.359   4.429  14.804  0.00  0.00    +0.000 A 
ATOM      5  N   UNL     1       7.410   5.225  14.582  0.00  0.00    +0.000 NA
ATOM      6  N   UNL     1       7.595   5.871  15.745  0.00  0.00    +0.000 N 
ATOM      7  C   UNL     1       6.705   5.524  16.711  0.00  0.00    +0.000 A 
ATOM      8  N   UNL     1       6.657   6.018  17.958  0.00  0.00    +0.000 NA
ATOM      9  C   UNL     1       5.652   5.474  18.691  0.00  0.00    +0.000 A 
ATOM     10  C   UNL     1       4.729   4.500  18.274  0.00  0.00    +0.000 A 
ATOM     11  C   UNL     1       4.865   4.030  16.952  0.00  0.00    +0.000 A 
ATOM     12  C   UNL     1       5.882   4.568  16.141  0.00  0.00    +0.000 A 
ATOM     13  H   UNL     1       4.969   3.089  14.114  0.00  0.00    +0.000 HD
ATOM     14  H   UNL     1       8.341   6.552  15.822  0.00  0.00    +0.000 HD
ENDROOT
BRANCH  10  15
ATOM     15  C   UNL     1       3.659   4.005  19.167  0.00  0.00    +0.000 A 
ATOM     16  C   UNL     1       3.198   2.675  19.091  0.00  0.00    +0.000 A 
ATOM     17  C   UNL     1       2.198   2.198  19.945  0.00  0.00    +0.000 A 
ATOM     18  C   UNL     1       1.652   3.045  20.898  0.00  0.00    +0.000 A 
ATOM     19  C   UNL     1       2.083   4.358  21.004  0.00  0.00    +0.000 A 
ATOM     20  C   UNL     1       3.072   4.836  20.138  0.00  0.00    +0.000 A 
BRANCH  18  21
ATOM     21  O   UNL     1       0.685   2.623  21.759  0.00  0.00    +0.000 OA
ATOM     22  H   UNL     1       1.000   1.824  22.214  0.00  0.00    +0.000 HD
ENDBRANCH  18  21
ENDBRANCH  10  15
BRANCH   2  23
ATOM     23  C   UNL     1       7.476   4.047  12.062  0.00  0.00    +0.000 C 
BRANCH  23  24
ATOM     24  C   UNL     1       7.186   5.177  11.095  0.00  0.00    +0.000 C 
ATOM     25 CL   UNL     1       8.220   6.581  11.478  0.00  0.00    +0.000 Cl
ENDBRANCH  23  24
ENDBRANCH   2  23
TORSDOF 4
ENDMDL
MODEL 7
REMARK VINA RESULT:      -7.5      6.081      7.269
REMARK  Name = 
REMARK  4 active torsions:
REMARK  status: ('A' for Active; 'I' for Inactive)
REMARK    1  A    between atoms: C_2  and  C_3
REMARK    2  A    between atoms: C_3  and  C_4
REMARK    3  A    between atoms: C_13  and  C_14
REMARK    4  A    between atoms: C_17  and  O_18
REMARK                            x       y       z     vdW  Elec       q    Type
REMARK                         _______ _______ _______ _____ _____    ______ ____
ROOT
ATOM      1  O   UNL     1       5.821   6.286  14.959  0.00  0.00    +0.000 OA
ATOM      2  C   UNL     1       5.295   5.889  16.002  0.00  0.00    +0.000 C 
ATOM      3  N   UNL     1       4.437   6.728  16.661  0.00  0.00    +0.000 N 
ATOM      4  C   UNL     1       3.795   6.522  17.867  0.00  0.00    +0.000 A 
ATOM      5  N   UNL     1       3.955   5.433  18.628  0.00  0.00    +0.000 NA
ATOM      6  N   UNL     1       3.182   5.658  19.704  0.00  0.00    +0.000 N 
ATOM      7  C   UNL     1       2.528   6.848  19.668  0.00  0.00    +0.000 A 
ATOM      8  N   UNL     1       1.701   7.324  20.612  0.00  0.00    +0.000 NA
ATOM      9  C   UNL     1       1.200   8.545  20.290  0.00  0.00    +0.000 A 
ATOM     10  C   UNL     1       1.460   9.289  19.128  0.00  0.00    +0.000 A 
ATOM     11  C   UNL     1       2.330   8.702  18.187  0.00  0.00    +0.000 A 
ATOM     12  C   UNL     1       2.890   7.443  18.472  0.00  0.00    +0.000 A 
ATOM     13  H   UNL     1       4.292   7.615  16.206  0.00  0.00    +0.000 HD
ATOM     14  H   UNL     1       3.146   4.966  20.442  0.00  0.00    +0.000 HD
ENDROOT
BRANCH  10  15
ATOM     15  C   UNL     1       0.867  10.626  18.907  0.00  0.00    +0.000 A 
ATOM     16  C   UNL     1      -0.525  10.833  18.986  0.00  0.00    +0.000 A 
ATOM     17  C   UNL     1      -1.088  12.100  18.794  0.00  0.00    +0.000 A 
ATOM     18  C   UNL     1      -0.261  13.182  18.531  0.00  0.00    +0.000 A 
ATOM     19  C   UNL     1       1.113  13.016  18.448  0.00  0.00    +0.000 A 
ATOM     20  C   UNL     1       1.670  11.746  18.626  0.00  0.00    +0.000 A 
BRANCH  18  21
ATOM     21  O   UNL     1      -0.762  14.435  18.349  0.00  0.00    +0.000 OA
ATOM     22  H   UNL     1      -1.679  14.454  18.668  0.00  0.00    +0.000 HD
ENDBRANCH  18  21
ENDBRANCH  10  15
BRANCH   2  23
ATOM     23  C   UNL     1       5.563   4.505  16.555  0.00  0.00    +0.000 C 
BRANCH  23  24
ATOM     24  C   UNL     1       6.995   4.342  17.022  0.00  0.00    +0.000 C 
ATOM     25 CL   UNL     1       7.479   5.758  17.996  0.00  0.00    +0.000 Cl
ENDBRANCH  23  24
ENDBRANCH   2  23
TORSDOF 4
ENDMDL
MODEL 8
REMARK VINA RESULT:      -7.5      4.531      5.736
REMARK  Name = 
REMARK  4 active torsions:
REMARK  status: ('A' for Active; 'I' for Inactive)
REMARK    1  A    between atoms: C_2  and  C_3
REMARK    2  A    between atoms: C_3  and  C_4
REMARK    3  A    between atoms: C_13  and  C_14
REMARK    4  A    between atoms: C_17  and  O_18
REMARK                            x       y       z     vdW  Elec       q    Type
REMARK                         _______ _______ _______ _____ _____    ______ ____
ROOT
ATOM      1  O   UNL     1       5.765   6.485  14.980  0.00  0.00    +0.000 OA
ATOM      2  C   UNL     1       5.259   5.641  15.725  0.00  0.00    +0.000 C 
ATOM      3  N   UNL     1       4.467   6.072  16.755  0.00  0.00    +0.000 N 
ATOM      4  C   UNL     1       3.860   5.319  17.741  0.00  0.00    +0.000 A 
ATOM      5  N   UNL     1       3.997   3.994  17.868  0.00  0.00    +0.000 NA
ATOM      6  N   UNL     1       3.275   3.683  18.957  0.00  0.00    +0.000 N 
ATOM      7  C   UNL     1       2.676   4.754  19.541  0.00  0.00    +0.000 A 
ATOM      8  N   UNL     1       1.908   4.728  20.640  0.00  0.00    +0.000 NA
ATOM      9  C   UNL     1       1.453   5.962  20.980  0.00  0.00    +0.000 A 
ATOM     10  C   UNL     1       1.704   7.173  20.314  0.00  0.00    +0.000 A 
ATOM     11  C   UNL     1       2.512   7.099  19.160  0.00  0.00    +0.000 A 
ATOM     12  C   UNL     1       3.022   5.849  18.767  0.00  0.00    +0.000 A 
ATOM     13  H   UNL     1       4.346   7.071  16.797  0.00  0.00    +0.000 HD
ATOM     14  H   UNL     1       3.234   2.720  19.267  0.00  0.00    +0.000 HD
ENDROOT
BRANCH  10  15
ATOM     15  C   UNL     1       1.167   8.460  20.803  0.00  0.00    +0.000 A 
ATOM     16  C   UNL     1       0.749   8.621  22.140  0.00  0.00    +0.000 A 
ATOM     17  C   UNL     1       0.257   9.843  22.611  0.00  0.00    +0.000 A 
ATOM     18  C   UNL     1       0.186  10.929  21.750  0.00  0.00    +0.000 A 
ATOM     19  C   UNL     1       0.590  10.808  20.429  0.00  0.00    +0.000 A 
ATOM     20  C   UNL     1       1.068   9.581  19.958  0.00  0.00    +0.000 A 
BRANCH  18  21
ATOM     21  O   UNL     1      -0.276  12.140  22.165  0.00  0.00    +0.000 OA
ATOM     22  H   UNL     1       0.483  12.698  22.404  0.00  0.00    +0.000 HD
ENDBRANCH  18  21
ENDBRANCH  10  15
BRANCH   2  23
ATOM     23  C   UNL     1       5.483   4.158  15.521  0.00  0.00    +0.000 C 
BRANCH  23  24
ATOM     24  C   UNL     1       6.442   3.874  14.384  0.00  0.00    +0.000 C 
ATOM     25 CL   UNL     1       5.529   3.617  12.871  0.00  0.00    +0.000 Cl
ENDBRANCH  23  24
ENDBRANCH   2  23
TORSDOF 4
ENDMDL
MODEL 9
REMARK VINA RESULT:      -7.4      4.659      5.854
REMARK  Name = 
REMARK  4 active torsions:
REMARK  status: ('A' for Active; 'I' for Inactive)
REMARK    1  A    between atoms: C_2  and  C_3
REMARK    2  A    between atoms: C_3  and  C_4
REMARK    3  A    between atoms: C_13  and  C_14
REMARK    4  A    between atoms: C_17  and  O_18
REMARK                            x       y       z     vdW  Elec       q    Type
REMARK                         _______ _______ _______ _____ _____    ______ ____
ROOT
ATOM      1  O   UNL     1       5.641   6.642  15.058  0.00  0.00    +0.000 OA
ATOM      2  C   UNL     1       5.172   5.806  15.836  0.00  0.00    +0.000 C 
ATOM      3  N   UNL     1       4.374   6.241  16.859  0.00  0.00    +0.000 N 
ATOM      4  C   UNL     1       3.803   5.500  17.875  0.00  0.00    +0.000 A 
ATOM      5  N   UNL     1       3.988   4.186  18.042  0.00  0.00    +0.000 NA
ATOM      6  N   UNL     1       3.286   3.885  19.148  0.00  0.00    +0.000 N 
ATOM      7  C   UNL     1       2.655   4.952  19.702  0.00  0.00    +0.000 A 
ATOM      8  N   UNL     1       1.897   4.935  20.810  0.00  0.00    +0.000 NA
ATOM      9  C   UNL     1       1.401   6.163  21.114  0.00  0.00    +0.000 A 
ATOM     10  C   UNL     1       1.604   7.359  20.407  0.00  0.00    +0.000 A 
ATOM     11  C   UNL     1       2.404   7.277  19.248  0.00  0.00    +0.000 A 
ATOM     12  C   UNL     1       2.955   6.033  18.890  0.00  0.00    +0.000 A 
ATOM     13  H   UNL     1       4.218   7.237  16.870  0.00  0.00    +0.000 HD
ATOM     14  H   UNL     1       3.283   2.931  19.489  0.00  0.00    +0.000 HD
ENDROOT
BRANCH  10  15
ATOM     15  C   UNL     1       1.025   8.642  20.859  0.00  0.00    +0.000 A 
ATOM     16  C   UNL     1       0.906   9.742  19.986  0.00  0.00    +0.000 A 
ATOM     17  C   UNL     1       0.344  10.952  20.405  0.00  0.00    +0.000 A 
ATOM     18  C   UNL     1      -0.120  11.075  21.707  0.00  0.00    +0.000 A 
ATOM     19  C   UNL     1      -0.022  10.014  22.593  0.00  0.00    +0.000 A 
ATOM     20  C   UNL     1       0.555   8.811  22.175  0.00  0.00    +0.000 A 
BRANCH  18  21
ATOM     21  O   UNL     1      -0.685  12.229  22.158  0.00  0.00    +0.000 OA
ATOM     22  H   UNL     1      -0.908  12.787  21.394  0.00  0.00    +0.000 HD
ENDBRANCH  18  21
ENDBRANCH  10  15
BRANCH   2  23
ATOM     23  C   UNL     1       5.447   4.325  15.677  0.00  0.00    +0.000 C 
BRANCH  23  24
ATOM     24  C   UNL     1       6.546   4.050  14.672  0.00  0.00    +0.000 C 
ATOM     25 CL   UNL     1       5.829   3.627  13.092  0.00  0.00    +0.000 Cl
ENDBRANCH  23  24
ENDBRANCH   2  23
TORSDOF 4
ENDMDL
