MODEL 1
REMARK VINA RESULT:      -8.9      0.000      0.000
REMARK  Name = 
REMARK  11 active torsions:
REMARK  status: ('A' for Active; 'I' for Inactive)
REMARK    1  A    between atoms: C_1  and  C_2
REMARK    2  A    between atoms: C_2  and  N_3
REMARK    3  A    between atoms: C_5  and  C_6
REMARK    4  A    between atoms: N_7  and  N_8
REMARK    5  A    between atoms: C_9  and  C_11
REMARK    6  A    between atoms: C_11  and  C_14
REMARK    7  A    between atoms: C_14  and  C_17
REMARK    8  A    between atoms: C_17  and  C_20
REMARK    9  A    between atoms: C_20  and  C_23
REMARK   10  A    between atoms: C_23  and  C_26
REMARK   11  A    between atoms: C_30  and  C_31
REMARK                            x       y       z     vdW  Elec       q    Type
REMARK                         _______ _______ _______ _____ _____    ______ ____
ROOT
ATOM      1  C   UNL     1       7.155   5.754  18.363  0.00  0.00    +0.000 C 
ATOM      2  F   UNL     1       7.912   4.671  18.004  0.00  0.00    +0.000 F 
ATOM      3  F   UNL     1       7.154   5.743  19.734  0.00  0.00    +0.000 F 
ENDROOT
BRANCH   1   5
ATOM      4  N   UNL     1       8.237   7.926  18.787  0.00  0.00    +0.000 N 
ATOM      5  C   UNL     1       7.769   7.034  17.814  0.00  0.00    +0.000 C 
ATOM      6  O   UNL     1       7.829   7.262  16.607  0.00  0.00    +0.000 OA
ATOM      7  H   UNL     1       8.202   7.694  19.776  0.00  0.00    +0.000 HD
BRANCH   4   9
ATOM      8  C   UNL     1       9.155   9.950  19.278  0.00  0.00    +0.000 C 
ATOM      9  N   UNL     1       8.761   9.121  18.368  0.00  0.00    +0.000 NA
BRANCH   8  12
ATOM     10  N   UNL     1      10.860  12.797  17.844  0.00  0.00    +0.000 N 
ATOM     11  C   UNL     1      10.472  11.492  17.750  0.00  0.00    +0.000 A 
ATOM     12  C   UNL     1       9.736  11.216  18.888  0.00  0.00    +0.000 A 
ATOM     13  C   UNL     1       9.708  12.453  19.587  0.00  0.00    +0.000 A 
ATOM     14  C   UNL     1       9.072  12.771  20.889  0.00  0.00    +0.000 C 
ATOM     15  N   UNL     1      10.382  13.413  18.940  0.00  0.00    +0.000 NA
BRANCH  10  17
ATOM     16  C   UNL     1      11.567  15.017  17.063  0.00  0.00    +0.000 C 
ATOM     17  C   UNL     1      11.756  13.512  16.953  0.00  0.00    +0.000 C 
ENDBRANCH  10  17
ENDBRANCH   8  12
ENDBRANCH   4   9
ENDBRANCH   1   5
BRANCH   1  18
ATOM     18  C   UNL     1       5.738   5.573  17.830  0.00  0.00    +0.000 C 
ATOM     19  F   UNL     1       5.165   6.771  17.545  0.00  0.00    +0.000 F 
ATOM     20  F   UNL     1       5.796   4.908  16.635  0.00  0.00    +0.000 F 
BRANCH  18  21
ATOM     21  C   UNL     1       4.876   4.778  18.794  0.00  0.00    +0.000 C 
ATOM     22  F   UNL     1       5.531   3.637  19.145  0.00  0.00    +0.000 F 
ATOM     23  F   UNL     1       4.707   5.465  19.953  0.00  0.00    +0.000 F 
BRANCH  21  24
ATOM     24  C   UNL     1       3.523   4.450  18.191  0.00  0.00    +0.000 C 
ATOM     25  F   UNL     1       2.988   5.566  17.624  0.00  0.00    +0.000 F 
ATOM     26  F   UNL     1       3.662   3.538  17.190  0.00  0.00    +0.000 F 
BRANCH  24  27
ATOM     27  C   UNL     1       2.584   3.910  19.241  0.00  0.00    +0.000 C 
ATOM     28  F   UNL     1       3.245   3.032  20.052  0.00  0.00    +0.000 F 
ATOM     29  F   UNL     1       2.163   4.910  20.068  0.00  0.00    +0.000 F 
BRANCH  27  30
ATOM     30  C   UNL     1       1.390   3.230  18.585  0.00  0.00    +0.000 C 
ATOM     31  F   UNL     1       1.673   2.032  18.027  0.00  0.00    +0.000 F 
ATOM     32  F   UNL     1       0.390   3.019  19.478  0.00  0.00    +0.000 F 
ATOM     33  F   UNL     1       0.861   4.003  17.602  0.00  0.00    +0.000 F 
ENDBRANCH  27  30
ENDBRANCH  24  27
ENDBRANCH  21  24
ENDBRANCH  18  21
ENDBRANCH   1  18
TORSDOF 9
ENDMDL
MODEL 2
REMARK VINA RESULT:      -8.9      0.945      1.150
REMARK  Name = 
REMARK  11 active torsions:
REMARK  status: ('A' for Active; 'I' for Inactive)
REMARK    1  A    between atoms: C_1  and  C_2
REMARK    2  A    between atoms: C_2  and  N_3
REMARK    3  A    between atoms: C_5  and  C_6
REMARK    4  A    between atoms: N_7  and  N_8
REMARK    5  A    between atoms: C_9  and  C_11
REMARK    6  A    between atoms: C_11  and  C_14
REMARK    7  A    between atoms: C_14  and  C_17
REMARK    8  A    between atoms: C_17  and  C_20
REMARK    9  A    between atoms: C_20  and  C_23
REMARK   10  A    between atoms: C_23  and  C_26
REMARK   11  A    between atoms: C_30  and  C_31
REMARK                            x       y       z     vdW  Elec       q    Type
REMARK                         _______ _______ _______ _____ _____    ______ ____
ROOT
ATOM      1  C   UNL     1       7.090   5.763  18.417  0.00  0.00    +0.000 C 
ATOM      2  F   UNL     1       7.834   4.639  18.181  0.00  0.00    +0.000 F 
ATOM      3  F   UNL     1       7.044   5.875  19.782  0.00  0.00    +0.000 F 
ENDROOT
BRANCH   1   5
ATOM      4  N   UNL     1       8.276   7.906  18.684  0.00  0.00    +0.000 N 
ATOM      5  C   UNL     1       7.748   6.978  17.777  0.00  0.00    +0.000 C 
ATOM      6  O   UNL     1       7.792   7.128  16.558  0.00  0.00    +0.000 OA
ATOM      7  H   UNL     1       8.252   7.737  19.685  0.00  0.00    +0.000 HD
BRANCH   4   9
ATOM      8  C   UNL     1       9.090  10.006  19.013  0.00  0.00    +0.000 C 
ATOM      9  N   UNL     1       8.844   9.047  18.181  0.00  0.00    +0.000 NA
BRANCH   8  12
ATOM     10  N   UNL     1      11.121  12.868  18.148  0.00  0.00    +0.000 N 
ATOM     11  C   UNL     1      11.017  11.632  18.717  0.00  0.00    +0.000 A 
ATOM     12  C   UNL     1       9.708  11.223  18.536  0.00  0.00    +0.000 A 
ATOM     13  C   UNL     1       9.115  12.286  17.801  0.00  0.00    +0.000 A 
ATOM     14  C   UNL     1       7.717  12.420  17.324  0.00  0.00    +0.000 C 
ATOM     15  N   UNL     1       9.984  13.276  17.557  0.00  0.00    +0.000 NA
BRANCH  10  17
ATOM     16  C   UNL     1      12.252  14.624  19.442  0.00  0.00    +0.000 C 
ATOM     17  C   UNL     1      12.266  13.759  18.191  0.00  0.00    +0.000 C 
ENDBRANCH  10  17
ENDBRANCH   8  12
ENDBRANCH   4   9
ENDBRANCH   1   5
BRANCH   1  18
ATOM     18  C   UNL     1       5.687   5.562  17.854  0.00  0.00    +0.000 C 
ATOM     19  F   UNL     1       5.125   6.747  17.501  0.00  0.00    +0.000 F 
ATOM     20  F   UNL     1       5.775   4.845  16.692  0.00  0.00    +0.000 F 
BRANCH  18  21
ATOM     21  C   UNL     1       4.797   4.811  18.828  0.00  0.00    +0.000 C 
ATOM     22  F   UNL     1       5.414   3.656  19.203  0.00  0.00    +0.000 F 
ATOM     23  F   UNL     1       4.644   5.523  19.974  0.00  0.00    +0.000 F 
BRANCH  21  24
ATOM     24  C   UNL     1       3.437   4.514  18.225  0.00  0.00    +0.000 C 
ATOM     25  F   UNL     1       2.647   5.620  18.302  0.00  0.00    +0.000 F 
ATOM     26  F   UNL     1       3.561   4.221  16.902  0.00  0.00    +0.000 F 
BRANCH  24  27
ATOM     27  C   UNL     1       2.774   3.362  18.939  0.00  0.00    +0.000 C 
ATOM     28  F   UNL     1       3.217   2.177  18.425  0.00  0.00    +0.000 F 
ATOM     29  F   UNL     1       3.137   3.338  20.253  0.00  0.00    +0.000 F 
BRANCH  27  30
ATOM     30  C   UNL     1       1.259   3.462  18.812  0.00  0.00    +0.000 C 
ATOM     31  F   UNL     1       0.621   2.272  18.845  0.00  0.00    +0.000 F 
ATOM     32  F   UNL     1       0.729   4.217  19.808  0.00  0.00    +0.000 F 
ATOM     33  F   UNL     1       0.900   4.065  17.650  0.00  0.00    +0.000 F 
ENDBRANCH  27  30
ENDBRANCH  24  27
ENDBRANCH  21  24
ENDBRANCH  18  21
ENDBRANCH   1  18
TORSDOF 9
ENDMDL
MODEL 3
REMARK VINA RESULT:      -8.8      0.440      1.046
REMARK  Name = 
REMARK  11 active torsions:
REMARK  status: ('A' for Active; 'I' for Inactive)
REMARK    1  A    between atoms: C_1  and  C_2
REMARK    2  A    between atoms: C_2  and  N_3
REMARK    3  A    between atoms: C_5  and  C_6
REMARK    4  A    between atoms: N_7  and  N_8
REMARK    5  A    between atoms: C_9  and  C_11
REMARK    6  A    between atoms: C_11  and  C_14
REMARK    7  A    between atoms: C_14  and  C_17
REMARK    8  A    between atoms: C_17  and  C_20
REMARK    9  A    between atoms: C_20  and  C_23
REMARK   10  A    between atoms: C_23  and  C_26
REMARK   11  A    between atoms: C_30  and  C_31
REMARK                            x       y       z     vdW  Elec       q    Type
REMARK                         _______ _______ _______ _____ _____    ______ ____
ROOT
ATOM      1  C   UNL     1       7.099   5.753  18.351  0.00  0.00    +0.000 C 
ATOM      2  F   UNL     1       7.815   4.654  17.959  0.00  0.00    +0.000 F 
ATOM      3  F   UNL     1       7.115   5.713  19.721  0.00  0.00    +0.000 F 
ENDROOT
BRANCH   1   5
ATOM      4  N   UNL     1       8.230   7.894  18.807  0.00  0.00    +0.000 N 
ATOM      5  C   UNL     1       7.748   7.024  17.821  0.00  0.00    +0.000 C 
ATOM      6  O   UNL     1       7.823   7.264  16.617  0.00  0.00    +0.000 OA
ATOM      7  H   UNL     1       8.182   7.652  19.793  0.00  0.00    +0.000 HD
BRANCH   4   9
ATOM      8  C   UNL     1       9.207   9.882  19.327  0.00  0.00    +0.000 C 
ATOM      9  N   UNL     1       8.787   9.079  18.406  0.00  0.00    +0.000 NA
BRANCH   8  12
ATOM     10  N   UNL     1      10.824  12.758  17.850  0.00  0.00    +0.000 N 
ATOM     11  C   UNL     1      10.261  11.524  17.702  0.00  0.00    +0.000 A 
ATOM     12  C   UNL     1       9.822  11.138  18.955  0.00  0.00    +0.000 A 
ATOM     13  C   UNL     1      10.138  12.246  19.787  0.00  0.00    +0.000 A 
ATOM     14  C   UNL     1       9.915  12.410  21.244  0.00  0.00    +0.000 C 
ATOM     15  N   UNL     1      10.735  13.233  19.105  0.00  0.00    +0.000 NA
BRANCH  10  17
ATOM     16  C   UNL     1      11.319  15.017  17.020  0.00  0.00    +0.000 C 
ATOM     17  C   UNL     1      11.537  13.523  16.843  0.00  0.00    +0.000 C 
ENDBRANCH  10  17
ENDBRANCH   8  12
ENDBRANCH   4   9
ENDBRANCH   1   5
BRANCH   1  18
ATOM     18  C   UNL     1       5.671   5.631  17.832  0.00  0.00    +0.000 C 
ATOM     19  F   UNL     1       5.072   6.847  17.752  0.00  0.00    +0.000 F 
ATOM     20  F   UNL     1       5.705   5.161  16.548  0.00  0.00    +0.000 F 
BRANCH  18  21
ATOM     21  C   UNL     1       4.848   4.679  18.682  0.00  0.00    +0.000 C 
ATOM     22  F   UNL     1       5.654   3.688  19.155  0.00  0.00    +0.000 F 
ATOM     23  F   UNL     1       4.379   5.316  19.786  0.00  0.00    +0.000 F 
BRANCH  21  24
ATOM     24  C   UNL     1       3.689   4.092  17.899  0.00  0.00    +0.000 C 
ATOM     25  F   UNL     1       2.930   5.094  17.378  0.00  0.00    +0.000 F 
ATOM     26  F   UNL     1       4.152   3.371  16.842  0.00  0.00    +0.000 F 
BRANCH  24  27
ATOM     27  C   UNL     1       2.838   3.211  18.779  0.00  0.00    +0.000 C 
ATOM     28  F   UNL     1       2.735   1.963  18.233  0.00  0.00    +0.000 F 
ATOM     29  F   UNL     1       3.436   3.021  19.990  0.00  0.00    +0.000 F 
BRANCH  27  30
ATOM     30  C   UNL     1       1.456   3.825  18.964  0.00  0.00    +0.000 C 
ATOM     31  F   UNL     1       1.457   4.995  19.640  0.00  0.00    +0.000 F 
ATOM     32  F   UNL     1       0.859   4.064  17.769  0.00  0.00    +0.000 F 
ATOM     33  F   UNL     1       0.629   2.985  19.638  0.00  0.00    +0.000 F 
ENDBRANCH  27  30
ENDBRANCH  24  27
ENDBRANCH  21  24
ENDBRANCH  18  21
ENDBRANCH   1  18
TORSDOF 9
ENDMDL
MODEL 4
REMARK VINA RESULT:      -8.6      0.873      1.511
REMARK  Name = 
REMARK  11 active torsions:
REMARK  status: ('A' for Active; 'I' for Inactive)
REMARK    1  A    between atoms: C_1  and  C_2
REMARK    2  A    between atoms: C_2  and  N_3
REMARK    3  A    between atoms: C_5  and  C_6
REMARK    4  A    between atoms: N_7  and  N_8
REMARK    5  A    between atoms: C_9  and  C_11
REMARK    6  A    between atoms: C_11  and  C_14
REMARK    7  A    between atoms: C_14  and  C_17
REMARK    8  A    between atoms: C_17  and  C_20
REMARK    9  A    between atoms: C_20  and  C_23
REMARK   10  A    between atoms: C_23  and  C_26
REMARK   11  A    between atoms: C_30  and  C_31
REMARK                            x       y       z     vdW  Elec       q    Type
REMARK                         _______ _______ _______ _____ _____    ______ ____
ROOT
ATOM      1  C   UNL     1       6.647   5.564  18.245  0.00  0.00    +0.000 C 
ATOM      2  F   UNL     1       7.377   4.527  17.728  0.00  0.00    +0.000 F 
ATOM      3  F   UNL     1       6.778   5.443  19.604  0.00  0.00    +0.000 F 
ENDROOT
BRANCH   1   5
ATOM      4  N   UNL     1       8.075   7.535  18.623  0.00  0.00    +0.000 N 
ATOM      5  C   UNL     1       7.191   6.895  17.746  0.00  0.00    +0.000 C 
ATOM      6  O   UNL     1       6.858   7.369  16.661  0.00  0.00    +0.000 OA
ATOM      7  H   UNL     1       8.355   7.102  19.499  0.00  0.00    +0.000 HD
BRANCH   4   9
ATOM      8  C   UNL     1       8.981   9.540  19.207  0.00  0.00    +0.000 C 
ATOM      9  N   UNL     1       8.570   8.760  18.261  0.00  0.00    +0.000 NA
BRANCH   8  12
ATOM     10  N   UNL     1      10.516  12.517  17.848  0.00  0.00    +0.000 N 
ATOM     11  C   UNL     1      10.069  11.241  17.667  0.00  0.00    +0.000 A 
ATOM     12  C   UNL     1       9.532  10.836  18.875  0.00  0.00    +0.000 A 
ATOM     13  C   UNL     1       9.671  11.976  19.712  0.00  0.00    +0.000 A 
ATOM     14  C   UNL     1       9.283  12.138  21.135  0.00  0.00    +0.000 C 
ATOM     15  N   UNL     1      10.258  12.999  19.077  0.00  0.00    +0.000 NA
BRANCH  10  17
ATOM     16  C   UNL     1      11.548  14.713  17.458  0.00  0.00    +0.000 C 
ATOM     17  C   UNL     1      11.270  13.324  16.905  0.00  0.00    +0.000 C 
ENDBRANCH  10  17
ENDBRANCH   8  12
ENDBRANCH   4   9
ENDBRANCH   1   5
BRANCH   1  18
ATOM     18  C   UNL     1       5.187   5.400  17.836  0.00  0.00    +0.000 C 
ATOM     19  F   UNL     1       4.462   6.503  18.153  0.00  0.00    +0.000 F 
ATOM     20  F   UNL     1       5.118   5.302  16.473  0.00  0.00    +0.000 F 
BRANCH  18  21
ATOM     21  C   UNL     1       4.572   4.155  18.450  0.00  0.00    +0.000 C 
ATOM     22  F   UNL     1       4.345   3.236  17.471  0.00  0.00    +0.000 F 
ATOM     23  F   UNL     1       5.451   3.562  19.299  0.00  0.00    +0.000 F 
BRANCH  21  24
ATOM     24  C   UNL     1       3.285   4.474  19.187  0.00  0.00    +0.000 C 
ATOM     25  F   UNL     1       3.515   5.440  20.119  0.00  0.00    +0.000 F 
ATOM     26  F   UNL     1       2.363   4.983  18.326  0.00  0.00    +0.000 F 
BRANCH  24  27
ATOM     27  C   UNL     1       2.729   3.242  19.855  0.00  0.00    +0.000 C 
ATOM     28  F   UNL     1       2.752   2.188  18.986  0.00  0.00    +0.000 F 
ATOM     29  F   UNL     1       3.523   2.861  20.897  0.00  0.00    +0.000 F 
BRANCH  27  30
ATOM     30  C   UNL     1       1.309   3.498  20.341  0.00  0.00    +0.000 C 
ATOM     31  F   UNL     1       1.040   4.796  20.603  0.00  0.00    +0.000 F 
ATOM     32  F   UNL     1       0.392   3.087  19.427  0.00  0.00    +0.000 F 
ATOM     33  F   UNL     1       1.043   2.807  21.479  0.00  0.00    +0.000 F 
ENDBRANCH  27  30
ENDBRANCH  24  27
ENDBRANCH  21  24
ENDBRANCH  18  21
ENDBRANCH   1  18
TORSDOF 9
ENDMDL
MODEL 5
REMARK VINA RESULT:      -8.3      1.765      2.581
REMARK  Name = 
REMARK  11 active torsions:
REMARK  status: ('A' for Active; 'I' for Inactive)
REMARK    1  A    between atoms: C_1  and  C_2
REMARK    2  A    between atoms: C_2  and  N_3
REMARK    3  A    between atoms: C_5  and  C_6
REMARK    4  A    between atoms: N_7  and  N_8
REMARK    5  A    between atoms: C_9  and  C_11
REMARK    6  A    between atoms: C_11  and  C_14
REMARK    7  A    between atoms: C_14  and  C_17
REMARK    8  A    between atoms: C_17  and  C_20
REMARK    9  A    between atoms: C_20  and  C_23
REMARK   10  A    between atoms: C_23  and  C_26
REMARK   11  A    between atoms: C_30  and  C_31
REMARK                            x       y       z     vdW  Elec       q    Type
REMARK                         _______ _______ _______ _____ _____    ______ ____
ROOT
ATOM      1  C   UNL     1       6.270   4.792  17.772  0.00  0.00    +0.000 C 
ATOM      2  F   UNL     1       6.961   4.407  16.655  0.00  0.00    +0.000 F 
ATOM      3  F   UNL     1       6.196   3.664  18.546  0.00  0.00    +0.000 F 
ENDROOT
BRANCH   1   5
ATOM      4  N   UNL     1       7.488   6.931  17.650  0.00  0.00    +0.000 N 
ATOM      5  C   UNL     1       7.006   5.916  18.488  0.00  0.00    +0.000 C 
ATOM      6  O   UNL     1       7.170   5.915  19.706  0.00  0.00    +0.000 OA
ATOM      7  H   UNL     1       7.307   6.919  16.650  0.00  0.00    +0.000 HD
BRANCH   4   9
ATOM      8  C   UNL     1       7.948   9.153  17.812  0.00  0.00    +0.000 C 
ATOM      9  N   UNL     1       8.200   7.953  18.219  0.00  0.00    +0.000 NA
BRANCH   8  12
ATOM     10  N   UNL     1       9.905  11.540  19.694  0.00  0.00    +0.000 N 
ATOM     11  C   UNL     1       9.538  10.246  19.462  0.00  0.00    +0.000 A 
ATOM     12  C   UNL     1       8.658  10.270  18.397  0.00  0.00    +0.000 A 
ATOM     13  C   UNL     1       8.597  11.643  18.032  0.00  0.00    +0.000 A 
ATOM     14  C   UNL     1       7.801  12.286  16.958  0.00  0.00    +0.000 C 
ATOM     15  N   UNL     1       9.368  12.407  18.817  0.00  0.00    +0.000 NA
BRANCH  10  17
ATOM     16  C   UNL     1       9.991  13.121  21.573  0.00  0.00    +0.000 C 
ATOM     17  C   UNL     1      10.717  12.038  20.790  0.00  0.00    +0.000 C 
ENDBRANCH  10  17
ENDBRANCH   8  12
ENDBRANCH   4   9
ENDBRANCH   1   5
BRANCH   1  18
ATOM     18  C   UNL     1       4.874   5.248  17.363  0.00  0.00    +0.000 C 
ATOM     19  F   UNL     1       4.584   6.468  17.884  0.00  0.00    +0.000 F 
ATOM     20  F   UNL     1       4.843   5.420  16.006  0.00  0.00    +0.000 F 
BRANCH  18  21
ATOM     21  C   UNL     1       3.818   4.229  17.753  0.00  0.00    +0.000 C 
ATOM     22  F   UNL     1       2.868   4.171  16.778  0.00  0.00    +0.000 F 
ATOM     23  F   UNL     1       4.357   2.984  17.801  0.00  0.00    +0.000 F 
BRANCH  21  24
ATOM     24  C   UNL     1       3.185   4.566  19.090  0.00  0.00    +0.000 C 
ATOM     25  F   UNL     1       4.113   5.133  19.909  0.00  0.00    +0.000 F 
ATOM     26  F   UNL     1       2.200   5.490  18.926  0.00  0.00    +0.000 F 
BRANCH  24  27
ATOM     27  C   UNL     1       2.617   3.329  19.741  0.00  0.00    +0.000 C 
ATOM     28  F   UNL     1       1.947   2.580  18.817  0.00  0.00    +0.000 F 
ATOM     29  F   UNL     1       3.619   2.523  20.195  0.00  0.00    +0.000 F 
BRANCH  27  30
ATOM     30  C   UNL     1       1.689   3.713  20.887  0.00  0.00    +0.000 C 
ATOM     31  F   UNL     1       1.502   2.735  21.799  0.00  0.00    +0.000 F 
ATOM     32  F   UNL     1       2.161   4.792  21.563  0.00  0.00    +0.000 F 
ATOM     33  F   UNL     1       0.459   4.062  20.430  0.00  0.00    +0.000 F 
ENDBRANCH  27  30
ENDBRANCH  24  27
ENDBRANCH  21  24
ENDBRANCH  18  21
ENDBRANCH   1  18
TORSDOF 9
ENDMDL
MODEL 6
REMARK VINA RESULT:      -8.3      0.930      1.724
REMARK  Name = 
REMARK  11 active torsions:
REMARK  status: ('A' for Active; 'I' for Inactive)
REMARK    1  A    between atoms: C_1  and  C_2
REMARK    2  A    between atoms: C_2  and  N_3
REMARK    3  A    between atoms: C_5  and  C_6
REMARK    4  A    between atoms: N_7  and  N_8
REMARK    5  A    between atoms: C_9  and  C_11
REMARK    6  A    between atoms: C_11  and  C_14
REMARK    7  A    between atoms: C_14  and  C_17
REMARK    8  A    between atoms: C_17  and  C_20
REMARK    9  A    between atoms: C_20  and  C_23
REMARK   10  A    between atoms: C_23  and  C_26
REMARK   11  A    between atoms: C_30  and  C_31
REMARK                            x       y       z     vdW  Elec       q    Type
REMARK                         _______ _______ _______ _____ _____    ______ ____
ROOT
ATOM      1  C   UNL     1       6.659   5.536  17.571  0.00  0.00    +0.000 C 
ATOM      2  F   UNL     1       6.194   4.983  16.408  0.00  0.00    +0.000 F 
ATOM      3  F   UNL     1       7.772   4.802  17.889  0.00  0.00    +0.000 F 
ENDROOT
BRANCH   1   5
ATOM      4  N   UNL     1       8.019   7.497  18.181  0.00  0.00    +0.000 N 
ATOM      5  C   UNL     1       6.998   7.005  17.359  0.00  0.00    +0.000 C 
ATOM      6  O   UNL     1       6.402   7.699  16.537  0.00  0.00    +0.000 OA
ATOM      7  H   UNL     1       8.514   6.890  18.829  0.00  0.00    +0.000 HD
BRANCH   4   9
ATOM      8  C   UNL     1       9.011   9.350  19.055  0.00  0.00    +0.000 C 
ATOM      9  N   UNL     1       8.348   8.823  18.079  0.00  0.00    +0.000 NA
BRANCH   8  12
ATOM     10  N   UNL     1      10.164  12.694  18.312  0.00  0.00    +0.000 N 
ATOM     11  C   UNL     1       9.868  11.433  17.883  0.00  0.00    +0.000 A 
ATOM     12  C   UNL     1       9.401  10.741  18.986  0.00  0.00    +0.000 A 
ATOM     13  C   UNL     1       9.420  11.706  20.029  0.00  0.00    +0.000 A 
ATOM     14  C   UNL     1       9.038  11.542  21.454  0.00  0.00    +0.000 C 
ATOM     15  N   UNL     1       9.872  12.894  19.609  0.00  0.00    +0.000 NA
BRANCH  10  17
ATOM     16  C   UNL     1      11.828  13.194  16.574  0.00  0.00    +0.000 C 
ATOM     17  C   UNL     1      10.803  13.752  17.549  0.00  0.00    +0.000 C 
ENDBRANCH  10  17
ENDBRANCH   8  12
ENDBRANCH   4   9
ENDBRANCH   1   5
BRANCH   1  18
ATOM     18  C   UNL     1       5.597   5.388  18.654  0.00  0.00    +0.000 C 
ATOM     19  F   UNL     1       6.141   5.502  19.894  0.00  0.00    +0.000 F 
ATOM     20  F   UNL     1       4.711   6.426  18.552  0.00  0.00    +0.000 F 
BRANCH  18  21
ATOM     21  C   UNL     1       4.838   4.080  18.517  0.00  0.00    +0.000 C 
ATOM     22  F   UNL     1       5.000   3.598  17.253  0.00  0.00    +0.000 F 
ATOM     23  F   UNL     1       5.373   3.135  19.332  0.00  0.00    +0.000 F 
BRANCH  21  24
ATOM     24  C   UNL     1       3.364   4.254  18.834  0.00  0.00    +0.000 C 
ATOM     25  F   UNL     1       3.222   4.860  20.044  0.00  0.00    +0.000 F 
ATOM     26  F   UNL     1       2.780   5.076  17.920  0.00  0.00    +0.000 F 
BRANCH  24  27
ATOM     27  C   UNL     1       2.656   2.922  18.843  0.00  0.00    +0.000 C 
ATOM     28  F   UNL     1       3.083   2.158  17.794  0.00  0.00    +0.000 F 
ATOM     29  F   UNL     1       2.987   2.210  19.959  0.00  0.00    +0.000 F 
BRANCH  27  30
ATOM     30  C   UNL     1       1.148   3.124  18.774  0.00  0.00    +0.000 C 
ATOM     31  F   UNL     1       0.630   3.789  19.829  0.00  0.00    +0.000 F 
ATOM     32  F   UNL     1       0.794   3.819  17.662  0.00  0.00    +0.000 F 
ATOM     33  F   UNL     1       0.494   1.937  18.701  0.00  0.00    +0.000 F 
ENDBRANCH  27  30
ENDBRANCH  24  27
ENDBRANCH  21  24
ENDBRANCH  18  21
ENDBRANCH   1  18
TORSDOF 9
ENDMDL
MODEL 7
REMARK VINA RESULT:      -8.3      1.091      1.986
REMARK  Name = 
REMARK  11 active torsions:
REMARK  status: ('A' for Active; 'I' for Inactive)
REMARK    1  A    between atoms: C_1  and  C_2
REMARK    2  A    between atoms: C_2  and  N_3
REMARK    3  A    between atoms: C_5  and  C_6
REMARK    4  A    between atoms: N_7  and  N_8
REMARK    5  A    between atoms: C_9  and  C_11
REMARK    6  A    between atoms: C_11  and  C_14
REMARK    7  A    between atoms: C_14  and  C_17
REMARK    8  A    between atoms: C_17  and  C_20
REMARK    9  A    between atoms: C_20  and  C_23
REMARK   10  A    between atoms: C_23  and  C_26
REMARK   11  A    between atoms: C_30  and  C_31
REMARK                            x       y       z     vdW  Elec       q    Type
REMARK                         _______ _______ _______ _____ _____    ______ ____
ROOT
ATOM      1  C   UNL     1       6.899   5.342  17.634  0.00  0.00    +0.000 C 
ATOM      2  F   UNL     1       6.655   4.713  16.443  0.00  0.00    +0.000 F 
ATOM      3  F   UNL     1       8.011   4.720  18.139  0.00  0.00    +0.000 F 
ENDROOT
BRANCH   1   5
ATOM      4  N   UNL     1       8.108   7.400  18.246  0.00  0.00    +0.000 N 
ATOM      5  C   UNL     1       7.142   6.828  17.409  0.00  0.00    +0.000 C 
ATOM      6  O   UNL     1       6.519   7.468  16.563  0.00  0.00    +0.000 OA
ATOM      7  H   UNL     1       8.627   6.836  18.913  0.00  0.00    +0.000 HD
BRANCH   4   9
ATOM      8  C   UNL     1       9.028   9.310  19.073  0.00  0.00    +0.000 C 
ATOM      9  N   UNL     1       8.347   8.743  18.132  0.00  0.00    +0.000 NA
BRANCH   8  12
ATOM     10  N   UNL     1       9.978  12.711  18.300  0.00  0.00    +0.000 N 
ATOM     11  C   UNL     1       9.779  11.425  17.887  0.00  0.00    +0.000 A 
ATOM     12  C   UNL     1       9.326  10.723  18.989  0.00  0.00    +0.000 A 
ATOM     13  C   UNL     1       9.248  11.704  20.014  0.00  0.00    +0.000 A 
ATOM     14  C   UNL     1       8.835  11.540  21.430  0.00  0.00    +0.000 C 
ATOM     15  N   UNL     1       9.633  12.913  19.584  0.00  0.00    +0.000 NA
BRANCH  10  17
ATOM     16  C   UNL     1      11.047  14.919  18.443  0.00  0.00    +0.000 C 
ATOM     17  C   UNL     1      10.567  13.796  17.537  0.00  0.00    +0.000 C 
ENDBRANCH  10  17
ENDBRANCH   8  12
ENDBRANCH   4   9
ENDBRANCH   1   5
BRANCH   1  18
ATOM     18  C   UNL     1       5.707   5.134  18.562  0.00  0.00    +0.000 C 
ATOM     19  F   UNL     1       6.074   4.476  19.692  0.00  0.00    +0.000 F 
ATOM     20  F   UNL     1       5.257   6.355  18.985  0.00  0.00    +0.000 F 
BRANCH  18  21
ATOM     21  C   UNL     1       4.573   4.409  17.859  0.00  0.00    +0.000 C 
ATOM     22  F   UNL     1       3.886   5.293  17.084  0.00  0.00    +0.000 F 
ATOM     23  F   UNL     1       5.067   3.484  16.996  0.00  0.00    +0.000 F 
BRANCH  21  24
ATOM     24  C   UNL     1       3.641   3.737  18.851  0.00  0.00    +0.000 C 
ATOM     25  F   UNL     1       4.293   2.722  19.481  0.00  0.00    +0.000 F 
ATOM     26  F   UNL     1       3.272   4.617  19.821  0.00  0.00    +0.000 F 
BRANCH  24  27
ATOM     27  C   UNL     1       2.413   3.203  18.156  0.00  0.00    +0.000 C 
ATOM     28  F   UNL     1       1.940   4.126  17.268  0.00  0.00    +0.000 F 
ATOM     29  F   UNL     1       2.725   2.110  17.402  0.00  0.00    +0.000 F 
BRANCH  27  30
ATOM     30  C   UNL     1       1.339   2.851  19.177  0.00  0.00    +0.000 C 
ATOM     31  F   UNL     1       1.738   1.963  20.115  0.00  0.00    +0.000 F 
ATOM     32  F   UNL     1       0.908   3.954  19.841  0.00  0.00    +0.000 F 
ATOM     33  F   UNL     1       0.243   2.319  18.578  0.00  0.00    +0.000 F 
ENDBRANCH  27  30
ENDBRANCH  24  27
ENDBRANCH  21  24
ENDBRANCH  18  21
ENDBRANCH   1  18
TORSDOF 9
ENDMDL
MODEL 8
REMARK VINA RESULT:      -8.3      1.418      2.671
REMARK  Name = 
REMARK  11 active torsions:
REMARK  status: ('A' for Active; 'I' for Inactive)
REMARK    1  A    between atoms: C_1  and  C_2
REMARK    2  A    between atoms: C_2  and  N_3
REMARK    3  A    between atoms: C_5  and  C_6
REMARK    4  A    between atoms: N_7  and  N_8
REMARK    5  A    between atoms: C_9  and  C_11
REMARK    6  A    between atoms: C_11  and  C_14
REMARK    7  A    between atoms: C_14  and  C_17
REMARK    8  A    between atoms: C_17  and  C_20
REMARK    9  A    between atoms: C_20  and  C_23
REMARK   10  A    between atoms: C_23  and  C_26
REMARK   11  A    between atoms: C_30  and  C_31
REMARK                            x       y       z     vdW  Elec       q    Type
REMARK                         _______ _______ _______ _____ _____    ______ ____
ROOT
ATOM      1  C   UNL     1       6.880   5.536  17.037  0.00  0.00    +0.000 C 
ATOM      2  F   UNL     1       7.326   5.886  15.791  0.00  0.00    +0.000 F 
ATOM      3  F   UNL     1       7.266   4.231  17.195  0.00  0.00    +0.000 F 
ENDROOT
BRANCH   1   5
ATOM      4  N   UNL     1       7.798   7.735  17.660  0.00  0.00    +0.000 N 
ATOM      5  C   UNL     1       7.504   6.437  18.094  0.00  0.00    +0.000 C 
ATOM      6  O   UNL     1       7.740   6.038  19.233  0.00  0.00    +0.000 OA
ATOM      7  H   UNL     1       7.562   8.044  16.721  0.00  0.00    +0.000 HD
BRANCH   4   9
ATOM      8  C   UNL     1       8.712   9.769  18.116  0.00  0.00    +0.000 C 
ATOM      9  N   UNL     1       8.403   8.589  18.544  0.00  0.00    +0.000 NA
BRANCH   8  12
ATOM     10  N   UNL     1       9.813  11.985  20.752  0.00  0.00    +0.000 N 
ATOM     11  C   UNL     1       8.995  10.977  20.332  0.00  0.00    +0.000 A 
ATOM     12  C   UNL     1       9.333  10.716  19.017  0.00  0.00    +0.000 A 
ATOM     13  C   UNL     1      10.408  11.608  18.755  0.00  0.00    +0.000 A 
ATOM     14  C   UNL     1      11.176  11.797  17.500  0.00  0.00    +0.000 C 
ATOM     15  N   UNL     1      10.703  12.367  19.818  0.00  0.00    +0.000 NA
BRANCH  10  17
ATOM     16  C   UNL     1       8.555  12.255  22.845  0.00  0.00    +0.000 C 
ATOM     17  C   UNL     1       9.755  12.691  22.019  0.00  0.00    +0.000 C 
ENDBRANCH  10  17
ENDBRANCH   8  12
ENDBRANCH   4   9
ENDBRANCH   1   5
BRANCH   1  18
ATOM     18  C   UNL     1       5.360   5.649  17.074  0.00  0.00    +0.000 C 
ATOM     19  F   UNL     1       4.966   6.743  17.775  0.00  0.00    +0.000 F 
ATOM     20  F   UNL     1       4.899   5.851  15.801  0.00  0.00    +0.000 F 
BRANCH  18  21
ATOM     21  C   UNL     1       4.720   4.391  17.633  0.00  0.00    +0.000 C 
ATOM     22  F   UNL     1       4.670   3.441  16.658  0.00  0.00    +0.000 F 
ATOM     23  F   UNL     1       5.499   3.859  18.611  0.00  0.00    +0.000 F 
BRANCH  21  24
ATOM     24  C   UNL     1       3.331   4.666  18.177  0.00  0.00    +0.000 C 
ATOM     25  F   UNL     1       3.400   4.909  19.515  0.00  0.00    +0.000 F 
ATOM     26  F   UNL     1       2.816   5.789  17.608  0.00  0.00    +0.000 F 
BRANCH  24  27
ATOM     27  C   UNL     1       2.412   3.498  17.917  0.00  0.00    +0.000 C 
ATOM     28  F   UNL     1       1.111   3.884  18.070  0.00  0.00    +0.000 F 
ATOM     29  F   UNL     1       2.512   3.088  16.620  0.00  0.00    +0.000 F 
BRANCH  27  30
ATOM     30  C   UNL     1       2.738   2.348  18.861  0.00  0.00    +0.000 C 
ATOM     31  F   UNL     1       3.627   1.460  18.364  0.00  0.00    +0.000 F 
ATOM     32  F   UNL     1       3.253   2.801  20.033  0.00  0.00    +0.000 F 
ATOM     33  F   UNL     1       1.624   1.644  19.186  0.00  0.00    +0.000 F 
ENDBRANCH  27  30
ENDBRANCH  24  27
ENDBRANCH  21  24
ENDBRANCH  18  21
ENDBRANCH   1  18
TORSDOF 9
ENDMDL
MODEL 9
REMARK VINA RESULT:      -8.1      1.584      2.571
REMARK  Name = 
REMARK  11 active torsions:
REMARK  status: ('A' for Active; 'I' for Inactive)
REMARK    1  A    between atoms: C_1  and  C_2
REMARK    2  A    between atoms: C_2  and  N_3
REMARK    3  A    between atoms: C_5  and  C_6
REMARK    4  A    between atoms: N_7  and  N_8
REMARK    5  A    between atoms: C_9  and  C_11
REMARK    6  A    between atoms: C_11  and  C_14
REMARK    7  A    between atoms: C_14  and  C_17
REMARK    8  A    between atoms: C_17  and  C_20
REMARK    9  A    between atoms: C_20  and  C_23
REMARK   10  A    between atoms: C_23  and  C_26
REMARK   11  A    between atoms: C_30  and  C_31
REMARK                            x       y       z     vdW  Elec       q    Type
REMARK                         _______ _______ _______ _____ _____    ______ ____
ROOT
ATOM      1  C   UNL     1       6.710   5.177  17.464  0.00  0.00    +0.000 C 
ATOM      2  F   UNL     1       6.243   5.661  16.272  0.00  0.00    +0.000 F 
ATOM      3  F   UNL     1       7.534   4.136  17.123  0.00  0.00    +0.000 F 
ENDROOT
BRANCH   1   5
ATOM      4  N   UNL     1       7.407   7.534  17.631  0.00  0.00    +0.000 N 
ATOM      5  C   UNL     1       7.464   6.264  18.218  0.00  0.00    +0.000 C 
ATOM      6  O   UNL     1       8.085   6.028  19.253  0.00  0.00    +0.000 OA
ATOM      7  H   UNL     1       6.858   7.703  16.792  0.00  0.00    +0.000 HD
BRANCH   4   9
ATOM      8  C   UNL     1       8.123   9.694  17.621  0.00  0.00    +0.000 C 
ATOM      9  N   UNL     1       8.100   8.553  18.228  0.00  0.00    +0.000 NA
BRANCH   8  12
ATOM     10  N   UNL     1      10.114  12.059  19.495  0.00  0.00    +0.000 N 
ATOM     11  C   UNL     1       9.795  10.764  19.204  0.00  0.00    +0.000 A 
ATOM     12  C   UNL     1       8.824  10.808  18.221  0.00  0.00    +0.000 A 
ATOM     13  C   UNL     1       8.660  12.196  17.962  0.00  0.00    +0.000 A 
ATOM     14  C   UNL     1       7.740  12.863  17.008  0.00  0.00    +0.000 C 
ATOM     15  N   UNL     1       9.458  12.950  18.731  0.00  0.00    +0.000 NA
BRANCH  10  17
ATOM     16  C   UNL     1      10.328  13.608  21.390  0.00  0.00    +0.000 C 
ATOM     17  C   UNL     1      10.993  12.529  20.550  0.00  0.00    +0.000 C 
ENDBRANCH  10  17
ENDBRANCH   8  12
ENDBRANCH   4   9
ENDBRANCH   1   5
BRANCH   1  18
ATOM     18  C   UNL     1       5.535   4.674  18.295  0.00  0.00    +0.000 C 
ATOM     19  F   UNL     1       5.904   3.634  19.088  0.00  0.00    +0.000 F 
ATOM     20  F   UNL     1       5.145   5.663  19.156  0.00  0.00    +0.000 F 
BRANCH  18  21
ATOM     21  C   UNL     1       4.355   4.292  17.419  0.00  0.00    +0.000 C 
ATOM     22  F   UNL     1       3.773   5.423  16.931  0.00  0.00    +0.000 F 
ATOM     23  F   UNL     1       4.780   3.608  16.326  0.00  0.00    +0.000 F 
BRANCH  21  24
ATOM     24  C   UNL     1       3.340   3.460  18.181  0.00  0.00    +0.000 C 
ATOM     25  F   UNL     1       2.924   2.420  17.408  0.00  0.00    +0.000 F 
ATOM     26  F   UNL     1       3.914   2.913  19.287  0.00  0.00    +0.000 F 
BRANCH  24  27
ATOM     27  C   UNL     1       2.155   4.301  18.588  0.00  0.00    +0.000 C 
ATOM     28  F   UNL     1       2.560   5.573  18.875  0.00  0.00    +0.000 F 
ATOM     29  F   UNL     1       1.280   4.431  17.550  0.00  0.00    +0.000 F 
BRANCH  27  30
ATOM     30  C   UNL     1       1.457   3.682  19.792  0.00  0.00    +0.000 C 
ATOM     31  F   UNL     1       0.331   4.326  20.171  0.00  0.00    +0.000 F 
ATOM     32  F   UNL     1       1.106   2.393  19.551  0.00  0.00    +0.000 F 
ATOM     33  F   UNL     1       2.274   3.653  20.876  0.00  0.00    +0.000 F 
ENDBRANCH  27  30
ENDBRANCH  24  27
ENDBRANCH  21  24
ENDBRANCH  18  21
ENDBRANCH   1  18
TORSDOF 9
ENDMDL
