MODEL 1
REMARK VINA RESULT:      -8.5      0.000      0.000
REMARK  Name = 
REMARK  5 active torsions:
REMARK  status: ('A' for Active; 'I' for Inactive)
REMARK    1  A    between atoms: C_4  and  C_5
REMARK    2  A    between atoms: C_12  and  C_13
REMARK    3  A    between atoms: N_16  and  C_17
REMARK    4  A    between atoms: C_29  and  C_30
REMARK    5  A    between atoms: C_30  and  N_31
REMARK                            x       y       z     vdW  Elec       q    Type
REMARK                         _______ _______ _______ _____ _____    ______ ____
ROOT
ATOM      1  C   UNL     1       3.444   5.865  17.903  0.00  0.00    +0.000 A 
ATOM      2  C   UNL     1       2.736   4.668  17.675  0.00  0.00    +0.000 A 
ATOM      3  C   UNL     1       3.377   3.525  17.209  0.00  0.00    +0.000 A 
ATOM      4  C   UNL     1       4.739   3.568  16.928  0.00  0.00    +0.000 A 
ATOM      5  C   UNL     1       5.469   4.732  17.103  0.00  0.00    +0.000 A 
ATOM      6  N   UNL     1       6.787   4.738  16.804  0.00  0.00    +0.000 NA
ATOM      7  C   UNL     1       7.454   5.900  17.012  0.00  0.00    +0.000 A 
ATOM      8  C   UNL     1       6.828   7.021  17.515  0.00  0.00    +0.000 A 
ATOM      9  N   UNL     1       5.519   7.006  17.821  0.00  0.00    +0.000 NA
ATOM     10  C   UNL     1       4.815   5.886  17.608  0.00  0.00    +0.000 A 
ENDROOT
BRANCH   1  14
ATOM     11  F   UNL     1       1.802  10.401  17.429  0.00  0.00    +0.000 F 
ATOM     12  C   UNL     1       1.942   9.333  18.233  0.00  0.00    +0.000 A 
ATOM     13  C   UNL     1       2.544   8.194  17.705  0.00  0.00    +0.000 A 
ATOM     14  C   UNL     1       2.734   7.043  18.483  0.00  0.00    +0.000 A 
ATOM     15  C   UNL     1       2.201   7.072  19.787  0.00  0.00    +0.000 A 
ATOM     16  C   UNL     1       1.574   8.218  20.291  0.00  0.00    +0.000 A 
ATOM     17  F   UNL     1       1.058   8.177  21.530  0.00  0.00    +0.000 F 
ATOM     18  C   UNL     1       1.503   9.393  19.548  0.00  0.00    +0.000 A 
BRANCH  18  19
ATOM     19  C   UNL     1       0.994  10.682  20.122  0.00  0.00    +0.000 C 
BRANCH  19  20
ATOM     20  N   UNL     1      -0.442  10.961  20.005  0.00  0.00    +0.000 NA
ATOM     21  C   UNL     1      -1.247  10.075  19.153  0.00  0.00    +0.000 C 
ATOM     22  C   UNL     1      -1.483  10.562  17.706  0.00  0.00    +0.000 C 
ATOM     23  O   UNL     1      -1.857  11.942  17.631  0.00  0.00    +0.000 OA
ATOM     24  C   UNL     1      -0.922  12.775  18.323  0.00  0.00    +0.000 C 
ATOM     25  C   UNL     1      -0.815  12.364  19.796  0.00  0.00    +0.000 C 
ENDBRANCH  19  20
ENDBRANCH  18  19
ENDBRANCH   1  14
BRANCH   8  26
ATOM     26  C   UNL     1       7.485   8.289  17.765  0.00  0.00    +0.000 A 
ATOM     27  C   UNL     1       7.261   9.594  17.293  0.00  0.00    +0.000 A 
ATOM     28  N   UNL     1       8.112  10.480  17.816  0.00  0.00    +0.000 NA
ATOM     29  N   UNL     1       8.862   9.753  18.670  0.00  0.00    +0.000 N 
ATOM     30  C   UNL     1       8.548   8.427  18.637  0.00  0.00    +0.000 A 
BRANCH  29  31
ATOM     31  C   UNL     1       9.946  10.349  19.451  0.00  0.00    +0.000 C 
ATOM     32  C   UNL     1       9.435  11.113  20.686  0.00  0.00    +0.000 C 
ATOM     33  C   UNL     1       8.837  12.464  20.307  0.00  0.00    +0.000 C 
ATOM     34  N   UNL     1       9.779  13.285  19.552  0.00  0.00    +0.000 NA
ATOM     35  C   UNL     1      10.225  12.607  18.331  0.00  0.00    +0.000 C 
ATOM     36  C   UNL     1      10.877  11.258  18.638  0.00  0.00    +0.000 C 
ATOM     37  H   UNL     1      10.589  13.508  20.129  0.00  0.00    +0.000 HD
ENDBRANCH  29  31
ENDBRANCH   8  26
TORSDOF 5
ENDMDL
MODEL 2
REMARK VINA RESULT:      -8.4      1.250      2.058
REMARK  Name = 
REMARK  5 active torsions:
REMARK  status: ('A' for Active; 'I' for Inactive)
REMARK    1  A    between atoms: C_4  and  C_5
REMARK    2  A    between atoms: C_12  and  C_13
REMARK    3  A    between atoms: N_16  and  C_17
REMARK    4  A    between atoms: C_29  and  C_30
REMARK    5  A    between atoms: C_30  and  N_31
REMARK                            x       y       z     vdW  Elec       q    Type
REMARK                         _______ _______ _______ _____ _____    ______ ____
ROOT
ATOM      1  C   UNL     1       3.509   5.846  17.863  0.00  0.00    +0.000 A 
ATOM      2  C   UNL     1       2.818   4.639  17.637  0.00  0.00    +0.000 A 
ATOM      3  C   UNL     1       3.481   3.495  17.202  0.00  0.00    +0.000 A 
ATOM      4  C   UNL     1       4.848   3.548  16.950  0.00  0.00    +0.000 A 
ATOM      5  C   UNL     1       5.563   4.722  17.124  0.00  0.00    +0.000 A 
ATOM      6  N   UNL     1       6.887   4.737  16.853  0.00  0.00    +0.000 NA
ATOM      7  C   UNL     1       7.537   5.909  17.058  0.00  0.00    +0.000 A 
ATOM      8  C   UNL     1       6.889   7.030  17.531  0.00  0.00    +0.000 A 
ATOM      9  N   UNL     1       5.575   7.006  17.810  0.00  0.00    +0.000 NA
ATOM     10  C   UNL     1       4.887   5.876  17.598  0.00  0.00    +0.000 A 
ENDROOT
BRANCH   1  14
ATOM     11  F   UNL     1       1.139   7.954  21.529  0.00  0.00    +0.000 F 
ATOM     12  C   UNL     1       1.563   8.053  20.256  0.00  0.00    +0.000 A 
ATOM     13  C   UNL     1       2.305   6.999  19.732  0.00  0.00    +0.000 A 
ATOM     14  C   UNL     1       2.776   7.024  18.411  0.00  0.00    +0.000 A 
ATOM     15  C   UNL     1       2.536   8.206  17.683  0.00  0.00    +0.000 A 
ATOM     16  C   UNL     1       1.811   9.268  18.237  0.00  0.00    +0.000 A 
ATOM     17  F   UNL     1       1.642  10.382  17.507  0.00  0.00    +0.000 F 
ATOM     18  C   UNL     1       1.247   9.177  19.507  0.00  0.00    +0.000 A 
BRANCH  18  19
ATOM     19  C   UNL     1       0.324  10.224  20.056  0.00  0.00    +0.000 C 
BRANCH  19  20
ATOM     20  N   UNL     1       0.755  10.953  21.255  0.00  0.00    +0.000 NA
ATOM     21  C   UNL     1      -0.112  10.901  22.440  0.00  0.00    +0.000 C 
ATOM     22  C   UNL     1      -1.091  12.082  22.613  0.00  0.00    +0.000 C 
ATOM     23  O   UNL     1      -0.478  13.358  22.393  0.00  0.00    +0.000 OA
ATOM     24  C   UNL     1       0.191  13.405  21.130  0.00  0.00    +0.000 C 
ATOM     25  C   UNL     1       1.262  12.312  21.040  0.00  0.00    +0.000 C 
ENDBRANCH  19  20
ENDBRANCH  18  19
ENDBRANCH   1  14
BRANCH   8  26
ATOM     26  C   UNL     1       7.528   8.308  17.777  0.00  0.00    +0.000 A 
ATOM     27  C   UNL     1       7.297   9.605  17.288  0.00  0.00    +0.000 A 
ATOM     28  N   UNL     1       8.131  10.506  17.814  0.00  0.00    +0.000 NA
ATOM     29  N   UNL     1       8.875   9.797  18.687  0.00  0.00    +0.000 N 
ATOM     30  C   UNL     1       8.576   8.467  18.665  0.00  0.00    +0.000 A 
BRANCH  29  31
ATOM     31  C   UNL     1       9.940  10.414  19.478  0.00  0.00    +0.000 C 
ATOM     32  C   UNL     1       9.403  11.172  20.706  0.00  0.00    +0.000 C 
ATOM     33  C   UNL     1       8.785  12.512  20.317  0.00  0.00    +0.000 C 
ATOM     34  N   UNL     1       9.721  13.347  19.569  0.00  0.00    +0.000 NA
ATOM     35  C   UNL     1      10.192  12.674  18.356  0.00  0.00    +0.000 C 
ATOM     36  C   UNL     1      10.864  11.337  18.672  0.00  0.00    +0.000 C 
ATOM     37  H   UNL     1      10.521  13.586  20.155  0.00  0.00    +0.000 HD
ENDBRANCH  29  31
ENDBRANCH   8  26
TORSDOF 5
ENDMDL
MODEL 3
REMARK VINA RESULT:      -8.4      0.970      1.247
REMARK  Name = 
REMARK  5 active torsions:
REMARK  status: ('A' for Active; 'I' for Inactive)
REMARK    1  A    between atoms: C_4  and  C_5
REMARK    2  A    between atoms: C_12  and  C_13
REMARK    3  A    between atoms: N_16  and  C_17
REMARK    4  A    between atoms: C_29  and  C_30
REMARK    5  A    between atoms: C_30  and  N_31
REMARK                            x       y       z     vdW  Elec       q    Type
REMARK                         _______ _______ _______ _____ _____    ______ ____
ROOT
ATOM      1  C   UNL     1       3.431   5.797  17.897  0.00  0.00    +0.000 A 
ATOM      2  C   UNL     1       2.731   4.596  17.660  0.00  0.00    +0.000 A 
ATOM      3  C   UNL     1       3.376   3.466  17.168  0.00  0.00    +0.000 A 
ATOM      4  C   UNL     1       4.734   3.527  16.869  0.00  0.00    +0.000 A 
ATOM      5  C   UNL     1       5.456   4.694  17.053  0.00  0.00    +0.000 A 
ATOM      6  N   UNL     1       6.769   4.718  16.736  0.00  0.00    +0.000 NA
ATOM      7  C   UNL     1       7.428   5.883  16.953  0.00  0.00    +0.000 A 
ATOM      8  C   UNL     1       6.798   6.990  17.481  0.00  0.00    +0.000 A 
ATOM      9  N   UNL     1       5.495   6.958  17.805  0.00  0.00    +0.000 NA
ATOM     10  C   UNL     1       4.798   5.835  17.584  0.00  0.00    +0.000 A 
ENDROOT
BRANCH   1  14
ATOM     11  F   UNL     1       1.561  10.246  17.453  0.00  0.00    +0.000 F 
ATOM     12  C   UNL     1       1.810   9.206  18.267  0.00  0.00    +0.000 A 
ATOM     13  C   UNL     1       2.418   8.080  17.719  0.00  0.00    +0.000 A 
ATOM     14  C   UNL     1       2.718   6.958  18.505  0.00  0.00    +0.000 A 
ATOM     15  C   UNL     1       2.289   6.999  19.846  0.00  0.00    +0.000 A 
ATOM     16  C   UNL     1       1.655   8.130  20.373  0.00  0.00    +0.000 A 
ATOM     17  F   UNL     1       1.239   8.100  21.649  0.00  0.00    +0.000 F 
ATOM     18  C   UNL     1       1.474   9.282  19.611  0.00  0.00    +0.000 A 
BRANCH  18  19
ATOM     19  C   UNL     1       0.956  10.563  20.195  0.00  0.00    +0.000 C 
BRANCH  19  20
ATOM     20  N   UNL     1      -0.449  10.602  20.616  0.00  0.00    +0.000 NA
ATOM     21  C   UNL     1      -1.394  11.366  19.789  0.00  0.00    +0.000 C 
ATOM     22  C   UNL     1      -1.675  12.813  20.248  0.00  0.00    +0.000 C 
ATOM     23  O   UNL     1      -1.913  12.921  21.656  0.00  0.00    +0.000 OA
ATOM     24  C   UNL     1      -0.856  12.322  22.411  0.00  0.00    +0.000 C 
ATOM     25  C   UNL     1      -0.693  10.844  22.042  0.00  0.00    +0.000 C 
ENDBRANCH  19  20
ENDBRANCH  18  19
ENDBRANCH   1  14
BRANCH   8  26
ATOM     26  C   UNL     1       7.447   8.260  17.742  0.00  0.00    +0.000 A 
ATOM     27  C   UNL     1       7.202   9.570  17.298  0.00  0.00    +0.000 A 
ATOM     28  N   UNL     1       8.054  10.456  17.821  0.00  0.00    +0.000 NA
ATOM     29  N   UNL     1       8.825   9.722  18.649  0.00  0.00    +0.000 N 
ATOM     30  C   UNL     1       8.524   8.393  18.599  0.00  0.00    +0.000 A 
BRANCH  29  31
ATOM     31  C   UNL     1       9.917  10.315  19.422  0.00  0.00    +0.000 C 
ATOM     32  C   UNL     1       9.416  11.090  20.654  0.00  0.00    +0.000 C 
ATOM     33  C   UNL     1       8.826  12.444  20.269  0.00  0.00    +0.000 C 
ATOM     34  N   UNL     1       9.771  13.253  19.505  0.00  0.00    +0.000 NA
ATOM     35  C   UNL     1      10.207  12.564  18.287  0.00  0.00    +0.000 C 
ATOM     36  C   UNL     1      10.851  11.213  18.599  0.00  0.00    +0.000 C 
ATOM     37  H   UNL     1      10.584  13.474  20.077  0.00  0.00    +0.000 HD
ENDBRANCH  29  31
ENDBRANCH   8  26
TORSDOF 5
ENDMDL
MODEL 4
REMARK VINA RESULT:      -8.3      3.366      7.331
REMARK  Name = 
REMARK  5 active torsions:
REMARK  status: ('A' for Active; 'I' for Inactive)
REMARK    1  A    between atoms: C_4  and  C_5
REMARK    2  A    between atoms: C_12  and  C_13
REMARK    3  A    between atoms: N_16  and  C_17
REMARK    4  A    between atoms: C_29  and  C_30
REMARK    5  A    between atoms: C_30  and  N_31
REMARK                            x       y       z     vdW  Elec       q    Type
REMARK                         _______ _______ _______ _____ _____    ______ ____
ROOT
ATOM      1  C   UNL     1       0.157  10.718  21.519  0.00  0.00    +0.000 A 
ATOM      2  C   UNL     1      -0.906  10.331  22.360  0.00  0.00    +0.000 A 
ATOM      3  C   UNL     1      -1.634  11.268  23.086  0.00  0.00    +0.000 A 
ATOM      4  C   UNL     1      -1.287  12.614  23.010  0.00  0.00    +0.000 A 
ATOM      5  C   UNL     1      -0.228  13.038  22.225  0.00  0.00    +0.000 A 
ATOM      6  N   UNL     1       0.087  14.351  22.191  0.00  0.00    +0.000 NA
ATOM      7  C   UNL     1       1.122  14.709  21.391  0.00  0.00    +0.000 A 
ATOM      8  C   UNL     1       1.816  13.785  20.638  0.00  0.00    +0.000 A 
ATOM      9  N   UNL     1       1.490  12.482  20.667  0.00  0.00    +0.000 NA
ATOM     10  C   UNL     1       0.491  12.079  21.463  0.00  0.00    +0.000 A 
ENDROOT
BRANCH   1  14
ATOM     11  F   UNL     1       2.126   9.388  17.295  0.00  0.00    +0.000 F 
ATOM     12  C   UNL     1       1.815   9.032  18.553  0.00  0.00    +0.000 A 
ATOM     13  C   UNL     1       1.218   9.987  19.372  0.00  0.00    +0.000 A 
ATOM     14  C   UNL     1       0.856   9.690  20.694  0.00  0.00    +0.000 A 
ATOM     15  C   UNL     1       1.212   8.412  21.170  0.00  0.00    +0.000 A 
ATOM     16  C   UNL     1       1.836   7.474  20.339  0.00  0.00    +0.000 A 
ATOM     17  F   UNL     1       2.180   6.284  20.857  0.00  0.00    +0.000 F 
ATOM     18  C   UNL     1       2.078   7.743  18.995  0.00  0.00    +0.000 A 
BRANCH  18  19
ATOM     19  C   UNL     1       2.586   6.701  18.042  0.00  0.00    +0.000 C 
BRANCH  19  20
ATOM     20  N   UNL     1       3.996   6.307  18.149  0.00  0.00    +0.000 NA
ATOM     21  C   UNL     1       4.908   6.720  17.074  0.00  0.00    +0.000 C 
ATOM     22  C   UNL     1       5.159   5.675  15.964  0.00  0.00    +0.000 C 
ATOM     23  O   UNL     1       5.413   4.362  16.474  0.00  0.00    +0.000 OA
ATOM     24  C   UNL     1       4.383   3.942  17.374  0.00  0.00    +0.000 C 
ATOM     25  C   UNL     1       4.253   4.919  18.547  0.00  0.00    +0.000 C 
ENDBRANCH  19  20
ENDBRANCH  18  19
ENDBRANCH   1  14
BRANCH   8  26
ATOM     26  C   UNL     1       2.925  14.105  19.761  0.00  0.00    +0.000 A 
ATOM     27  C   UNL     1       3.217  13.774  18.426  0.00  0.00    +0.000 A 
ATOM     28  N   UNL     1       4.363  14.315  18.005  0.00  0.00    +0.000 NA
ATOM     29  N   UNL     1       4.793  15.040  19.057  0.00  0.00    +0.000 N 
ATOM     30  C   UNL     1       3.983  14.907  20.146  0.00  0.00    +0.000 A 
BRANCH  29  31
ATOM     31  C   UNL     1       6.047  15.793  19.020  0.00  0.00    +0.000 C 
ATOM     32  C   UNL     1       7.005  15.292  17.925  0.00  0.00    +0.000 C 
ATOM     33  C   UNL     1       7.689  13.989  18.326  0.00  0.00    +0.000 C 
ATOM     34  N   UNL     1       8.388  14.110  19.602  0.00  0.00    +0.000 NA
ATOM     35  C   UNL     1       7.479  14.516  20.677  0.00  0.00    +0.000 C 
ATOM     36  C   UNL     1       6.787  15.843  20.364  0.00  0.00    +0.000 C 
ATOM     37  H   UNL     1       9.144  14.789  19.524  0.00  0.00    +0.000 HD
ENDBRANCH  29  31
ENDBRANCH   8  26
TORSDOF 5
ENDMDL
MODEL 5
REMARK VINA RESULT:      -8.2      3.427      7.515
REMARK  Name = 
REMARK  5 active torsions:
REMARK  status: ('A' for Active; 'I' for Inactive)
REMARK    1  A    between atoms: C_4  and  C_5
REMARK    2  A    between atoms: C_12  and  C_13
REMARK    3  A    between atoms: N_16  and  C_17
REMARK    4  A    between atoms: C_29  and  C_30
REMARK    5  A    between atoms: C_30  and  N_31
REMARK                            x       y       z     vdW  Elec       q    Type
REMARK                         _______ _______ _______ _____ _____    ______ ____
ROOT
ATOM      1  C   UNL     1       0.047  11.049  21.520  0.00  0.00    +0.000 A 
ATOM      2  C   UNL     1      -1.040  10.718  22.353  0.00  0.00    +0.000 A 
ATOM      3  C   UNL     1      -1.707  11.688  23.095  0.00  0.00    +0.000 A 
ATOM      4  C   UNL     1      -1.274  13.009  23.043  0.00  0.00    +0.000 A 
ATOM      5  C   UNL     1      -0.188  13.377  22.266  0.00  0.00    +0.000 A 
ATOM      6  N   UNL     1       0.213  14.667  22.254  0.00  0.00    +0.000 NA
ATOM      7  C   UNL     1       1.270  14.970  21.462  0.00  0.00    +0.000 A 
ATOM      8  C   UNL     1       1.904  14.017  20.693  0.00  0.00    +0.000 A 
ATOM      9  N   UNL     1       1.494  12.737  20.699  0.00  0.00    +0.000 NA
ATOM     10  C   UNL     1       0.469  12.387  21.488  0.00  0.00    +0.000 A 
ENDROOT
BRANCH   1  14
ATOM     11  F   UNL     1       1.859   6.573  21.098  0.00  0.00    +0.000 F 
ATOM     12  C   UNL     1       1.610   7.749  20.495  0.00  0.00    +0.000 A 
ATOM     13  C   UNL     1       0.965   8.737  21.233  0.00  0.00    +0.000 A 
ATOM     14  C   UNL     1       0.679   9.992  20.677  0.00  0.00    +0.000 A 
ATOM     15  C   UNL     1       0.994  10.161  19.314  0.00  0.00    +0.000 A 
ATOM     16  C   UNL     1       1.618   9.146  18.581  0.00  0.00    +0.000 A 
ATOM     17  F   UNL     1       1.866   9.352  17.277  0.00  0.00    +0.000 F 
ATOM     18  C   UNL     1       2.006   7.950  19.180  0.00  0.00    +0.000 A 
BRANCH  18  19
ATOM     19  C   UNL     1       2.827   6.918  18.466  0.00  0.00    +0.000 C 
BRANCH  19  20
ATOM     20  N   UNL     1       2.916   5.582  19.065  0.00  0.00    +0.000 NA
ATOM     21  C   UNL     1       4.251   5.064  19.397  0.00  0.00    +0.000 C 
ATOM     22  C   UNL     1       4.902   4.149  18.337  0.00  0.00    +0.000 C 
ATOM     23  O   UNL     1       4.004   3.160  17.819  0.00  0.00    +0.000 OA
ATOM     24  C   UNL     1       2.796   3.754  17.336  0.00  0.00    +0.000 C 
ATOM     25  C   UNL     1       2.091   4.538  18.449  0.00  0.00    +0.000 C 
ENDBRANCH  19  20
ENDBRANCH  18  19
ENDBRANCH   1  14
BRANCH   8  26
ATOM     26  C   UNL     1       3.033  14.278  19.822  0.00  0.00    +0.000 A 
ATOM     27  C   UNL     1       3.320  13.923  18.493  0.00  0.00    +0.000 A 
ATOM     28  N   UNL     1       4.493  14.408  18.076  0.00  0.00    +0.000 NA
ATOM     29  N   UNL     1       4.946  15.123  19.126  0.00  0.00    +0.000 N 
ATOM     30  C   UNL     1       4.123  15.035  20.209  0.00  0.00    +0.000 A 
BRANCH  29  31
ATOM     31  C   UNL     1       6.233  15.818  19.093  0.00  0.00    +0.000 C 
ATOM     32  C   UNL     1       7.143  15.325  17.954  0.00  0.00    +0.000 C 
ATOM     33  C   UNL     1       7.774  13.975  18.278  0.00  0.00    +0.000 C 
ATOM     34  N   UNL     1       8.505  14.004  19.541  0.00  0.00    +0.000 NA
ATOM     35  C   UNL     1       7.640  14.402  20.655  0.00  0.00    +0.000 C 
ATOM     36  C   UNL     1       7.004  15.772  20.419  0.00  0.00    +0.000 C 
ATOM     37  H   UNL     1       9.290  14.652  19.476  0.00  0.00    +0.000 HD
ENDBRANCH  29  31
ENDBRANCH   8  26
TORSDOF 5
ENDMDL
MODEL 6
REMARK VINA RESULT:      -8.2      0.349      1.410
REMARK  Name = 
REMARK  5 active torsions:
REMARK  status: ('A' for Active; 'I' for Inactive)
REMARK    1  A    between atoms: C_4  and  C_5
REMARK    2  A    between atoms: C_12  and  C_13
REMARK    3  A    between atoms: N_16  and  C_17
REMARK    4  A    between atoms: C_29  and  C_30
REMARK    5  A    between atoms: C_30  and  N_31
REMARK                            x       y       z     vdW  Elec       q    Type
REMARK                         _______ _______ _______ _____ _____    ______ ____
ROOT
ATOM      1  C   UNL     1       3.411   5.990  17.904  0.00  0.00    +0.000 A 
ATOM      2  C   UNL     1       2.674   4.809  17.685  0.00  0.00    +0.000 A 
ATOM      3  C   UNL     1       3.289   3.643  17.241  0.00  0.00    +0.000 A 
ATOM      4  C   UNL     1       4.654   3.646  16.973  0.00  0.00    +0.000 A 
ATOM      5  C   UNL     1       5.413   4.793  17.139  0.00  0.00    +0.000 A 
ATOM      6  N   UNL     1       6.733   4.760  16.853  0.00  0.00    +0.000 NA
ATOM      7  C   UNL     1       7.429   5.907  17.051  0.00  0.00    +0.000 A 
ATOM      8  C   UNL     1       6.827   7.051  17.532  0.00  0.00    +0.000 A 
ATOM      9  N   UNL     1       5.516   7.075  17.827  0.00  0.00    +0.000 NA
ATOM     10  C   UNL     1       4.785   5.971  17.622  0.00  0.00    +0.000 A 
ENDROOT
BRANCH   1  14
ATOM     11  F   UNL     1       1.070   8.144  21.561  0.00  0.00    +0.000 F 
ATOM     12  C   UNL     1       1.527   8.248  20.300  0.00  0.00    +0.000 A 
ATOM     13  C   UNL     1       2.226   7.166  19.770  0.00  0.00    +0.000 A 
ATOM     14  C   UNL     1       2.727   7.194  18.461  0.00  0.00    +0.000 A 
ATOM     15  C   UNL     1       2.566   8.401  17.753  0.00  0.00    +0.000 A 
ATOM     16  C   UNL     1       1.884   9.488  18.313  0.00  0.00    +0.000 A 
ATOM     17  F   UNL     1       1.789  10.624  17.604  0.00  0.00    +0.000 F 
ATOM     18  C   UNL     1       1.287   9.401  19.568  0.00  0.00    +0.000 A 
BRANCH  18  19
ATOM     19  C   UNL     1       0.407  10.484  20.120  0.00  0.00    +0.000 C 
BRANCH  19  20
ATOM     20  N   UNL     1      -1.015  10.457  19.760  0.00  0.00    +0.000 NA
ATOM     21  C   UNL     1      -1.420   9.623  18.620  0.00  0.00    +0.000 C 
ATOM     22  C   UNL     1      -1.544  10.351  17.263  0.00  0.00    +0.000 C 
ATOM     23  O   UNL     1      -2.245  11.596  17.353  0.00  0.00    +0.000 OA
ATOM     24  C   UNL     1      -1.678  12.442  18.358  0.00  0.00    +0.000 C 
ATOM     25  C   UNL     1      -1.700  11.753  19.727  0.00  0.00    +0.000 C 
ENDBRANCH  19  20
ENDBRANCH  18  19
ENDBRANCH   1  14
BRANCH   8  26
ATOM     26  C   UNL     1       7.515   8.305  17.772  0.00  0.00    +0.000 A 
ATOM     27  C   UNL     1       7.349   9.602  17.257  0.00  0.00    +0.000 A 
ATOM     28  N   UNL     1       8.210  10.476  17.786  0.00  0.00    +0.000 NA
ATOM     29  N   UNL     1       8.906   9.750  18.685  0.00  0.00    +0.000 N 
ATOM     30  C   UNL     1       8.552   8.434  18.677  0.00  0.00    +0.000 A 
BRANCH  29  31
ATOM     31  C   UNL     1       9.981  10.335  19.488  0.00  0.00    +0.000 C 
ATOM     32  C   UNL     1       9.455  11.091  20.721  0.00  0.00    +0.000 C 
ATOM     33  C   UNL     1       8.870  12.449  20.344  0.00  0.00    +0.000 C 
ATOM     34  N   UNL     1       9.828  13.270  19.610  0.00  0.00    +0.000 NA
ATOM     35  C   UNL     1      10.289  12.599  18.391  0.00  0.00    +0.000 C 
ATOM     36  C   UNL     1      10.930  11.245  18.697  0.00  0.00    +0.000 C 
ATOM     37  H   UNL     1      10.630  13.484  20.201  0.00  0.00    +0.000 HD
ENDBRANCH  29  31
ENDBRANCH   8  26
TORSDOF 5
ENDMDL
MODEL 7
REMARK VINA RESULT:      -8.1      3.433      7.398
REMARK  Name = 
REMARK  5 active torsions:
REMARK  status: ('A' for Active; 'I' for Inactive)
REMARK    1  A    between atoms: C_4  and  C_5
REMARK    2  A    between atoms: C_12  and  C_13
REMARK    3  A    between atoms: N_16  and  C_17
REMARK    4  A    between atoms: C_29  and  C_30
REMARK    5  A    between atoms: C_30  and  N_31
REMARK                            x       y       z     vdW  Elec       q    Type
REMARK                         _______ _______ _______ _____ _____    ______ ____
ROOT
ATOM      1  C   UNL     1       0.349   9.937  21.332  0.00  0.00    +0.000 A 
ATOM      2  C   UNL     1      -0.618   9.411  22.212  0.00  0.00    +0.000 A 
ATOM      3  C   UNL     1      -1.364  10.237  23.046  0.00  0.00    +0.000 A 
ATOM      4  C   UNL     1      -1.130  11.609  23.040  0.00  0.00    +0.000 A 
ATOM      5  C   UNL     1      -0.166  12.168  22.219  0.00  0.00    +0.000 A 
ATOM      6  N   UNL     1       0.042  13.502  22.254  0.00  0.00    +0.000 NA
ATOM      7  C   UNL     1       0.987  13.994  21.415  0.00  0.00    +0.000 A 
ATOM      8  C   UNL     1       1.696  13.181  20.557  0.00  0.00    +0.000 A 
ATOM      9  N   UNL     1       1.477  11.856  20.517  0.00  0.00    +0.000 NA
ATOM     10  C   UNL     1       0.571  11.322  21.348  0.00  0.00    +0.000 A 
ENDROOT
BRANCH   1  14
ATOM     11  F   UNL     1       2.514   5.684  20.481  0.00  0.00    +0.000 F 
ATOM     12  C   UNL     1       2.175   6.892  19.997  0.00  0.00    +0.000 A 
ATOM     13  C   UNL     1       1.450   7.746  20.823  0.00  0.00    +0.000 A 
ATOM     14  C   UNL     1       1.067   9.024  20.394  0.00  0.00    +0.000 A 
ATOM     15  C   UNL     1       1.373   9.356  19.059  0.00  0.00    +0.000 A 
ATOM     16  C   UNL     1       2.079   8.473  18.234  0.00  0.00    +0.000 A 
ATOM     17  F   UNL     1       2.315   8.829  16.961  0.00  0.00    +0.000 F 
ATOM     18  C   UNL     1       2.559   7.257  18.714  0.00  0.00    +0.000 A 
BRANCH  18  19
ATOM     19  C   UNL     1       3.462   6.370  17.909  0.00  0.00    +0.000 C 
BRANCH  19  20
ATOM     20  N   UNL     1       4.909   6.497  18.121  0.00  0.00    +0.000 NA
ATOM     21  C   UNL     1       5.747   6.834  16.962  0.00  0.00    +0.000 C 
ATOM     22  C   UNL     1       6.405   5.640  16.236  0.00  0.00    +0.000 C 
ATOM     23  O   UNL     1       6.999   4.694  17.131  0.00  0.00    +0.000 OA
ATOM     24  C   UNL     1       6.067   4.260  18.126  0.00  0.00    +0.000 C 
ATOM     25  C   UNL     1       5.539   5.451  18.933  0.00  0.00    +0.000 C 
ENDBRANCH  19  20
ENDBRANCH  18  19
ENDBRANCH   1  14
BRANCH   8  26
ATOM     26  C   UNL     1       2.712  13.645  19.633  0.00  0.00    +0.000 A 
ATOM     27  C   UNL     1       2.972  13.374  18.279  0.00  0.00    +0.000 A 
ATOM     28  N   UNL     1       4.022  14.056  17.813  0.00  0.00    +0.000 NA
ATOM     29  N   UNL     1       4.416  14.811  18.859  0.00  0.00    +0.000 N 
ATOM     30  C   UNL     1       3.685  14.563  19.983  0.00  0.00    +0.000 A 
BRANCH  29  31
ATOM     31  C   UNL     1       5.567  15.709  18.777  0.00  0.00    +0.000 C 
ATOM     32  C   UNL     1       6.636  15.213  17.787  0.00  0.00    +0.000 C 
ATOM     33  C   UNL     1       7.455  14.064  18.368  0.00  0.00    +0.000 C 
ATOM     34  N   UNL     1       8.066  14.422  19.645  0.00  0.00    +0.000 NA
ATOM     35  C   UNL     1       7.059  14.829  20.629  0.00  0.00    +0.000 C 
ATOM     36  C   UNL     1       6.225  16.010  20.131  0.00  0.00    +0.000 C 
ATOM     37  H   UNL     1       8.734  15.179  19.512  0.00  0.00    +0.000 HD
ENDBRANCH  29  31
ENDBRANCH   8  26
TORSDOF 5
ENDMDL
MODEL 8
REMARK VINA RESULT:      -8.0      3.923      7.888
REMARK  Name = 
REMARK  5 active torsions:
REMARK  status: ('A' for Active; 'I' for Inactive)
REMARK    1  A    between atoms: C_4  and  C_5
REMARK    2  A    between atoms: C_12  and  C_13
REMARK    3  A    between atoms: N_16  and  C_17
REMARK    4  A    between atoms: C_29  and  C_30
REMARK    5  A    between atoms: C_30  and  N_31
REMARK                            x       y       z     vdW  Elec       q    Type
REMARK                         _______ _______ _______ _____ _____    ______ ____
ROOT
ATOM      1  C   UNL     1       0.532   9.105  21.363  0.00  0.00    +0.000 A 
ATOM      2  C   UNL     1      -0.233   8.429  22.334  0.00  0.00    +0.000 A 
ATOM      3  C   UNL     1      -1.035   9.121  23.237  0.00  0.00    +0.000 A 
ATOM      4  C   UNL     1      -1.059  10.512  23.206  0.00  0.00    +0.000 A 
ATOM      5  C   UNL     1      -0.297  11.221  22.292  0.00  0.00    +0.000 A 
ATOM      6  N   UNL     1      -0.336  12.572  22.304  0.00  0.00    +0.000 NA
ATOM      7  C   UNL     1       0.417  13.212  21.376  0.00  0.00    +0.000 A 
ATOM      8  C   UNL     1       1.178  12.525  20.454  0.00  0.00    +0.000 A 
ATOM      9  N   UNL     1       1.204  11.181  20.438  0.00  0.00    +0.000 NA
ATOM     10  C   UNL     1       0.495  10.508  21.355  0.00  0.00    +0.000 A 
ENDROOT
BRANCH   1  14
ATOM     11  F   UNL     1       2.931   5.065  20.173  0.00  0.00    +0.000 F 
ATOM     12  C   UNL     1       2.537   6.294  19.794  0.00  0.00    +0.000 A 
ATOM     13  C   UNL     1       1.755   7.030  20.680  0.00  0.00    +0.000 A 
ATOM     14  C   UNL     1       1.311   8.321  20.361  0.00  0.00    +0.000 A 
ATOM     15  C   UNL     1       1.621   8.789  19.069  0.00  0.00    +0.000 A 
ATOM     16  C   UNL     1       2.386   8.024  18.181  0.00  0.00    +0.000 A 
ATOM     17  F   UNL     1       2.624   8.508  16.952  0.00  0.00    +0.000 F 
ATOM     18  C   UNL     1       2.921   6.794  18.559  0.00  0.00    +0.000 A 
BRANCH  18  19
ATOM     19  C   UNL     1       3.884   6.034  17.694  0.00  0.00    +0.000 C 
BRANCH  19  20
ATOM     20  N   UNL     1       4.923   6.797  16.995  0.00  0.00    +0.000 NA
ATOM     21  C   UNL     1       5.108   6.551  15.558  0.00  0.00    +0.000 C 
ATOM     22  C   UNL     1       6.217   5.543  15.184  0.00  0.00    +0.000 C 
ATOM     23  O   UNL     1       7.438   5.757  15.902  0.00  0.00    +0.000 OA
ATOM     24  C   UNL     1       7.213   5.797  17.314  0.00  0.00    +0.000 C 
ATOM     25  C   UNL     1       6.218   6.904  17.676  0.00  0.00    +0.000 C 
ENDBRANCH  19  20
ENDBRANCH  18  19
ENDBRANCH   1  14
BRANCH   8  26
ATOM     26  C   UNL     1       1.998  13.149  19.434  0.00  0.00    +0.000 A 
ATOM     27  C   UNL     1       2.567  12.675  18.239  0.00  0.00    +0.000 A 
ATOM     28  N   UNL     1       3.242  13.623  17.584  0.00  0.00    +0.000 NA
ATOM     29  N   UNL     1       3.069  14.731  18.333  0.00  0.00    +0.000 N 
ATOM     30  C   UNL     1       2.366  14.481  19.474  0.00  0.00    +0.000 A 
BRANCH  29  31
ATOM     31  C   UNL     1       3.671  16.014  17.972  0.00  0.00    +0.000 C 
ATOM     32  C   UNL     1       4.078  16.845  19.202  0.00  0.00    +0.000 C 
ATOM     33  C   UNL     1       2.869  17.492  19.872  0.00  0.00    +0.000 C 
ATOM     34  N   UNL     1       2.099  18.307  18.936  0.00  0.00    +0.000 NA
ATOM     35  C   UNL     1       1.638  17.519  17.790  0.00  0.00    +0.000 C 
ATOM     36  C   UNL     1       2.804  16.872  17.040  0.00  0.00    +0.000 C 
ATOM     37  H   UNL     1       2.665  19.087  18.604  0.00  0.00    +0.000 HD
ENDBRANCH  29  31
ENDBRANCH   8  26
TORSDOF 5
ENDMDL
MODEL 9
REMARK VINA RESULT:      -7.9      3.494      7.271
REMARK  Name = 
REMARK  5 active torsions:
REMARK  status: ('A' for Active; 'I' for Inactive)
REMARK    1  A    between atoms: C_4  and  C_5
REMARK    2  A    between atoms: C_12  and  C_13
REMARK    3  A    between atoms: N_16  and  C_17
REMARK    4  A    between atoms: C_29  and  C_30
REMARK    5  A    between atoms: C_30  and  N_31
REMARK                            x       y       z     vdW  Elec       q    Type
REMARK                         _______ _______ _______ _____ _____    ______ ____
ROOT
ATOM      1  C   UNL     1       0.461   9.502  21.379  0.00  0.00    +0.000 A 
ATOM      2  C   UNL     1      -0.458   8.899  22.260  0.00  0.00    +0.000 A 
ATOM      3  C   UNL     1      -1.291   9.663  23.073  0.00  0.00    +0.000 A 
ATOM      4  C   UNL     1      -1.194  11.051  23.043  0.00  0.00    +0.000 A 
ATOM      5  C   UNL     1      -0.281  11.687  22.219  0.00  0.00    +0.000 A 
ATOM      6  N   UNL     1      -0.205  13.036  22.231  0.00  0.00    +0.000 NA
ATOM      7  C   UNL     1       0.695  13.604  21.391  0.00  0.00    +0.000 A 
ATOM      8  C   UNL     1       1.490  12.849  20.554  0.00  0.00    +0.000 A 
ATOM      9  N   UNL     1       1.402  11.508  20.538  0.00  0.00    +0.000 NA
ATOM     10  C   UNL     1       0.545  10.903  21.370  0.00  0.00    +0.000 A 
ENDROOT
BRANCH   1  14
ATOM     11  F   UNL     1       2.495   8.792  17.037  0.00  0.00    +0.000 F 
ATOM     12  C   UNL     1       2.265   8.299  18.266  0.00  0.00    +0.000 A 
ATOM     13  C   UNL     1       1.562   9.095  19.167  0.00  0.00    +0.000 A 
ATOM     14  C   UNL     1       1.275   8.649  20.465  0.00  0.00    +0.000 A 
ATOM     15  C   UNL     1       1.813   7.399  20.831  0.00  0.00    +0.000 A 
ATOM     16  C   UNL     1       2.540   6.625  19.920  0.00  0.00    +0.000 A 
ATOM     17  F   UNL     1       3.056   5.457  20.336  0.00  0.00    +0.000 F 
ATOM     18  C   UNL     1       2.712   7.029  18.599  0.00  0.00    +0.000 A 
BRANCH  18  19
ATOM     19  C   UNL     1       3.335   6.144  17.559  0.00  0.00    +0.000 C 
BRANCH  19  20
ATOM     20  N   UNL     1       4.742   6.382  17.216  0.00  0.00    +0.000 NA
ATOM     21  C   UNL     1       5.158   6.154  15.825  0.00  0.00    +0.000 C 
ATOM     22  C   UNL     1       5.777   4.771  15.524  0.00  0.00    +0.000 C 
ATOM     23  O   UNL     1       6.745   4.364  16.497  0.00  0.00    +0.000 OA
ATOM     24  C   UNL     1       6.211   4.428  17.823  0.00  0.00    +0.000 C 
ATOM     25  C   UNL     1       5.737   5.848  18.151  0.00  0.00    +0.000 C 
ENDBRANCH  19  20
ENDBRANCH  18  19
ENDBRANCH   1  14
BRANCH   8  26
ATOM     26  C   UNL     1       2.464  13.395  19.630  0.00  0.00    +0.000 A 
ATOM     27  C   UNL     1       2.758  13.132  18.282  0.00  0.00    +0.000 A 
ATOM     28  N   UNL     1       3.743  13.903  17.813  0.00  0.00    +0.000 NA
ATOM     29  N   UNL     1       4.057  14.705  18.851  0.00  0.00    +0.000 N 
ATOM     30  C   UNL     1       3.344  14.404  19.974  0.00  0.00    +0.000 A 
BRANCH  29  31
ATOM     31  C   UNL     1       5.119  15.707  18.764  0.00  0.00    +0.000 C 
ATOM     32  C   UNL     1       6.288  15.255  17.871  0.00  0.00    +0.000 C 
ATOM     33  C   UNL     1       7.177  14.235  18.576  0.00  0.00    +0.000 C 
ATOM     34  N   UNL     1       7.674  14.738  19.854  0.00  0.00    +0.000 NA
ATOM     35  C   UNL     1       6.576  15.108  20.751  0.00  0.00    +0.000 C 
ATOM     36  C   UNL     1       5.663  16.164  20.125  0.00  0.00    +0.000 C 
ATOM     37  H   UNL     1       8.273  15.548  19.701  0.00  0.00    +0.000 HD
ENDBRANCH  29  31
ENDBRANCH   8  26
TORSDOF 5
ENDMDL
