MODEL 1
REMARK VINA RESULT:      -6.6      0.000      0.000
REMARK  Name = 
REMARK  12 active torsions:
REMARK  status: ('A' for Active; 'I' for Inactive)
REMARK    1  A    between atoms: C_1  and  C_2
REMARK    2  A    between atoms: C_2  and  C_3
REMARK    3  A    between atoms: C_3  and  C_4
REMARK    4  A    between atoms: C_3  and  N_6
REMARK    5  A    between atoms: C_4  and  O_5
REMARK    6  A    between atoms: N_9  and  S_10
REMARK    7  A    between atoms: S_10  and  C_13
REMARK    8  A    between atoms: C_13  and  C_14
REMARK    9  A    between atoms: C_13  and  C_15
REMARK   10  A    between atoms: C_15  and  C_16
REMARK   11  A    between atoms: C_16  and  C_17
REMARK   12  A    between atoms: C_16  and  C_18
REMARK                            x       y       z     vdW  Elec       q    Type
REMARK                         _______ _______ _______ _____ _____    ______ ____
ROOT
ATOM      1  N   UNL     1       6.585   5.667  15.000  0.00  0.00    +0.000 NA
ATOM      2  C   UNL     1       5.131   5.444  15.220  0.00  0.00    +0.000 C 
ATOM      3  C   UNL     1       4.768   4.251  16.137  0.00  0.00    +0.000 C 
ATOM      4  N   UNL     1       5.478   4.287  17.458  0.00  0.00    +0.000 NA
ATOM      5  C   UNL     1       6.952   4.490  17.224  0.00  0.00    +0.000 C 
ATOM      6  C   UNL     1       7.215   5.732  16.345  0.00  0.00    +0.000 C 
ENDROOT
BRANCH   4   7
ATOM      7  S   UNL     1       4.844   5.326  18.654  0.00  0.00    +0.000 S 
ATOM      8  O   UNL     1       5.843   5.442  19.694  0.00  0.00    +0.000 OA
ATOM      9  O   UNL     1       4.367   6.509  17.971  0.00  0.00    +0.000 OA
BRANCH   7  10
ATOM     10  C   UNL     1       3.414   4.435  19.337  0.00  0.00    +0.000 C 
ATOM     11  C   UNL     1       2.728   5.270  20.422  0.00  0.00    +0.000 C 
BRANCH  10  12
ATOM     12  C   UNL     1       2.400   4.093  18.221  0.00  0.00    +0.000 C 
BRANCH  12  13
ATOM     13  C   UNL     1       2.027   2.603  18.052  0.00  0.00    +0.000 C 
ATOM     14  C   UNL     1       3.164   1.654  18.434  0.00  0.00    +0.000 C 
ATOM     15  C   UNL     1       0.776   2.287  18.873  0.00  0.00    +0.000 C 
ENDBRANCH  12  13
ENDBRANCH  10  12
ENDBRANCH   7  10
ENDBRANCH   4   7
BRANCH   1  16
ATOM     16  C   UNL     1       7.223   4.714  14.042  0.00  0.00    +0.000 C 
BRANCH  16  18
ATOM     17  C   UNL     1       6.471   3.232  12.023  0.00  0.00    +0.000 C 
ATOM     18  C   UNL     1       6.137   3.797  13.399  0.00  0.00    +0.000 C 
ENDBRANCH  16  18
BRANCH  16  19
ATOM     19  C   UNL     1       8.015   5.449  12.915  0.00  0.00    +0.000 C 
BRANCH  19  20
ATOM     20  O   UNL     1       9.196   6.090  13.381  0.00  0.00    +0.000 OA
ATOM     21  H   UNL     1       9.558   5.552  14.108  0.00  0.00    +0.000 HD
ENDBRANCH  19  20
ENDBRANCH  16  19
ENDBRANCH   1  16
TORSDOF 8
ENDMDL
MODEL 2
REMARK VINA RESULT:      -6.5      2.164      6.441
REMARK  Name = 
REMARK  12 active torsions:
REMARK  status: ('A' for Active; 'I' for Inactive)
REMARK    1  A    between atoms: C_1  and  C_2
REMARK    2  A    between atoms: C_2  and  C_3
REMARK    3  A    between atoms: C_3  and  C_4
REMARK    4  A    between atoms: C_3  and  N_6
REMARK    5  A    between atoms: C_4  and  O_5
REMARK    6  A    between atoms: N_9  and  S_10
REMARK    7  A    between atoms: S_10  and  C_13
REMARK    8  A    between atoms: C_13  and  C_14
REMARK    9  A    between atoms: C_13  and  C_15
REMARK   10  A    between atoms: C_15  and  C_16
REMARK   11  A    between atoms: C_16  and  C_17
REMARK   12  A    between atoms: C_16  and  C_18
REMARK                            x       y       z     vdW  Elec       q    Type
REMARK                         _______ _______ _______ _____ _____    ______ ____
ROOT
ATOM      1  N   UNL     1       2.831   4.665  18.848  0.00  0.00    +0.000 NA
ATOM      2  C   UNL     1       4.071   5.035  19.580  0.00  0.00    +0.000 C 
ATOM      3  C   UNL     1       5.287   4.105  19.348  0.00  0.00    +0.000 C 
ATOM      4  N   UNL     1       5.601   3.898  17.896  0.00  0.00    +0.000 NA
ATOM      5  C   UNL     1       4.344   3.501  17.168  0.00  0.00    +0.000 C 
ATOM      6  C   UNL     1       3.207   4.516  17.418  0.00  0.00    +0.000 C 
ENDROOT
BRANCH   4   7
ATOM      7  S   UNL     1       6.468   5.135  17.104  0.00  0.00    +0.000 S 
ATOM      8  O   UNL     1       6.192   6.371  17.806  0.00  0.00    +0.000 OA
ATOM      9  O   UNL     1       7.831   4.670  16.966  0.00  0.00    +0.000 OA
BRANCH   7  10
ATOM     10  C   UNL     1       5.723   5.244  15.449  0.00  0.00    +0.000 C 
ATOM     11  C   UNL     1       5.106   6.628  15.226  0.00  0.00    +0.000 C 
BRANCH  10  12
ATOM     12  C   UNL     1       6.779   4.960  14.355  0.00  0.00    +0.000 C 
BRANCH  12  13
ATOM     13  C   UNL     1       6.452   3.836  13.347  0.00  0.00    +0.000 C 
ATOM     14  C   UNL     1       4.956   3.712  13.053  0.00  0.00    +0.000 C 
ATOM     15  C   UNL     1       7.229   4.065  12.049  0.00  0.00    +0.000 C 
ENDBRANCH  12  13
ENDBRANCH  10  12
ENDBRANCH   7  10
ENDBRANCH   4   7
BRANCH   1  16
ATOM     16  C   UNL     1       2.083   3.511  19.434  0.00  0.00    +0.000 C 
BRANCH  16  18
ATOM     17  C   UNL     1       1.794   2.790  21.931  0.00  0.00    +0.000 C 
ATOM     18  C   UNL     1       1.594   3.869  20.872  0.00  0.00    +0.000 C 
ENDBRANCH  16  18
BRANCH  16  19
ATOM     19  C   UNL     1       0.859   3.093  18.558  0.00  0.00    +0.000 C 
BRANCH  19  20
ATOM     20  O   UNL     1       0.849   1.709  18.228  0.00  0.00    +0.000 OA
ATOM     21  H   UNL     1       1.378   1.593  17.420  0.00  0.00    +0.000 HD
ENDBRANCH  19  20
ENDBRANCH  16  19
ENDBRANCH   1  16
TORSDOF 8
ENDMDL
MODEL 3
REMARK VINA RESULT:      -6.4      0.987      1.409
REMARK  Name = 
REMARK  12 active torsions:
REMARK  status: ('A' for Active; 'I' for Inactive)
REMARK    1  A    between atoms: C_1  and  C_2
REMARK    2  A    between atoms: C_2  and  C_3
REMARK    3  A    between atoms: C_3  and  C_4
REMARK    4  A    between atoms: C_3  and  N_6
REMARK    5  A    between atoms: C_4  and  O_5
REMARK    6  A    between atoms: N_9  and  S_10
REMARK    7  A    between atoms: S_10  and  C_13
REMARK    8  A    between atoms: C_13  and  C_14
REMARK    9  A    between atoms: C_13  and  C_15
REMARK   10  A    between atoms: C_15  and  C_16
REMARK   11  A    between atoms: C_16  and  C_17
REMARK   12  A    between atoms: C_16  and  C_18
REMARK                            x       y       z     vdW  Elec       q    Type
REMARK                         _______ _______ _______ _____ _____    ______ ____
ROOT
ATOM      1  N   UNL     1       6.295   5.374  14.771  0.00  0.00    +0.000 NA
ATOM      2  C   UNL     1       5.102   4.646  15.279  0.00  0.00    +0.000 C 
ATOM      3  C   UNL     1       5.389   3.524  16.306  0.00  0.00    +0.000 C 
ATOM      4  N   UNL     1       6.228   3.984  17.461  0.00  0.00    +0.000 NA
ATOM      5  C   UNL     1       7.445   4.699  16.936  0.00  0.00    +0.000 C 
ATOM      6  C   UNL     1       7.054   5.833  15.963  0.00  0.00    +0.000 C 
ENDROOT
BRANCH   4   7
ATOM      7  S   UNL     1       5.436   4.842  18.705  0.00  0.00    +0.000 S 
ATOM      8  O   UNL     1       6.361   4.939  19.814  0.00  0.00    +0.000 OA
ATOM      9  O   UNL     1       4.893   6.042  18.107  0.00  0.00    +0.000 OA
BRANCH   7  10
ATOM     10  C   UNL     1       4.057   3.770  19.208  0.00  0.00    +0.000 C 
ATOM     11  C   UNL     1       4.566   2.604  20.062  0.00  0.00    +0.000 C 
BRANCH  10  12
ATOM     12  C   UNL     1       3.000   4.575  20.000  0.00  0.00    +0.000 C 
BRANCH  12  13
ATOM     13  C   UNL     1       1.544   4.501  19.490  0.00  0.00    +0.000 C 
ATOM     14  C   UNL     1       1.448   4.321  17.974  0.00  0.00    +0.000 C 
ATOM     15  C   UNL     1       0.803   3.370  20.206  0.00  0.00    +0.000 C 
ENDBRANCH  12  13
ENDBRANCH  10  12
ENDBRANCH   7  10
ENDBRANCH   4   7
BRANCH   1  16
ATOM     16  C   UNL     1       7.095   4.625  13.755  0.00  0.00    +0.000 C 
BRANCH  16  18
ATOM     17  C   UNL     1       6.810   2.958  11.760  0.00  0.00    +0.000 C 
ATOM     18  C   UNL     1       6.167   3.663  12.949  0.00  0.00    +0.000 C 
ENDBRANCH  16  18
BRANCH  16  19
ATOM     19  C   UNL     1       7.838   5.578  12.766  0.00  0.00    +0.000 C 
BRANCH  19  20
ATOM     20  O   UNL     1       9.099   6.022  13.252  0.00  0.00    +0.000 OA
ATOM     21  H   UNL     1       9.249   5.602  14.117  0.00  0.00    +0.000 HD
ENDBRANCH  19  20
ENDBRANCH  16  19
ENDBRANCH   1  16
TORSDOF 8
ENDMDL
MODEL 4
REMARK VINA RESULT:      -6.4      0.860      1.120
REMARK  Name = 
REMARK  12 active torsions:
REMARK  status: ('A' for Active; 'I' for Inactive)
REMARK    1  A    between atoms: C_1  and  C_2
REMARK    2  A    between atoms: C_2  and  C_3
REMARK    3  A    between atoms: C_3  and  C_4
REMARK    4  A    between atoms: C_3  and  N_6
REMARK    5  A    between atoms: C_4  and  O_5
REMARK    6  A    between atoms: N_9  and  S_10
REMARK    7  A    between atoms: S_10  and  C_13
REMARK    8  A    between atoms: C_13  and  C_14
REMARK    9  A    between atoms: C_13  and  C_15
REMARK   10  A    between atoms: C_15  and  C_16
REMARK   11  A    between atoms: C_16  and  C_17
REMARK   12  A    between atoms: C_16  and  C_18
REMARK                            x       y       z     vdW  Elec       q    Type
REMARK                         _______ _______ _______ _____ _____    ______ ____
ROOT
ATOM      1  N   UNL     1       6.652   5.622  15.035  0.00  0.00    +0.000 NA
ATOM      2  C   UNL     1       5.190   5.572  15.301  0.00  0.00    +0.000 C 
ATOM      3  C   UNL     1       4.717   4.426  16.228  0.00  0.00    +0.000 C 
ATOM      4  N   UNL     1       5.467   4.372  17.526  0.00  0.00    +0.000 NA
ATOM      5  C   UNL     1       6.947   4.400  17.245  0.00  0.00    +0.000 C 
ATOM      6  C   UNL     1       7.327   5.607  16.359  0.00  0.00    +0.000 C 
ENDROOT
BRANCH   4   7
ATOM      7  S   UNL     1       4.998   5.472  18.742  0.00  0.00    +0.000 S 
ATOM      8  O   UNL     1       5.993   5.401  19.791  0.00  0.00    +0.000 OA
ATOM      9  O   UNL     1       4.727   6.733  18.085  0.00  0.00    +0.000 OA
BRANCH   7  10
ATOM     10  C   UNL     1       3.436   4.811  19.394  0.00  0.00    +0.000 C 
ATOM     11  C   UNL     1       2.242   5.422  18.653  0.00  0.00    +0.000 C 
BRANCH  10  12
ATOM     12  C   UNL     1       3.399   3.271  19.265  0.00  0.00    +0.000 C 
BRANCH  12  13
ATOM     13  C   UNL     1       2.409   2.519  20.183  0.00  0.00    +0.000 C 
ATOM     14  C   UNL     1       2.212   3.201  21.538  0.00  0.00    +0.000 C 
ATOM     15  C   UNL     1       1.065   2.357  19.471  0.00  0.00    +0.000 C 
ENDBRANCH  12  13
ENDBRANCH  10  12
ENDBRANCH   7  10
ENDBRANCH   4   7
BRANCH   1  16
ATOM     16  C   UNL     1       7.143   4.605  14.057  0.00  0.00    +0.000 C 
BRANCH  16  18
ATOM     17  C   UNL     1       6.099   3.266  12.067  0.00  0.00    +0.000 C 
ATOM     18  C   UNL     1       5.941   3.785  13.492  0.00  0.00    +0.000 C 
ENDBRANCH  16  18
BRANCH  16  19
ATOM     19  C   UNL     1       7.931   5.253  12.874  0.00  0.00    +0.000 C 
BRANCH  19  20
ATOM     20  O   UNL     1       9.027   6.053  13.298  0.00  0.00    +0.000 OA
ATOM     21  H   UNL     1       9.766   5.893  12.685  0.00  0.00    +0.000 HD
ENDBRANCH  19  20
ENDBRANCH  16  19
ENDBRANCH   1  16
TORSDOF 8
ENDMDL
MODEL 5
REMARK VINA RESULT:      -6.4      2.092      6.354
REMARK  Name = 
REMARK  12 active torsions:
REMARK  status: ('A' for Active; 'I' for Inactive)
REMARK    1  A    between atoms: C_1  and  C_2
REMARK    2  A    between atoms: C_2  and  C_3
REMARK    3  A    between atoms: C_3  and  C_4
REMARK    4  A    between atoms: C_3  and  N_6
REMARK    5  A    between atoms: C_4  and  O_5
REMARK    6  A    between atoms: N_9  and  S_10
REMARK    7  A    between atoms: S_10  and  C_13
REMARK    8  A    between atoms: C_13  and  C_14
REMARK    9  A    between atoms: C_13  and  C_15
REMARK   10  A    between atoms: C_15  and  C_16
REMARK   11  A    between atoms: C_16  and  C_17
REMARK   12  A    between atoms: C_16  and  C_18
REMARK                            x       y       z     vdW  Elec       q    Type
REMARK                         _______ _______ _______ _____ _____    ______ ____
ROOT
ATOM      1  N   UNL     1       3.688   3.672  18.706  0.00  0.00    +0.000 NA
ATOM      2  C   UNL     1       3.518   4.675  17.621  0.00  0.00    +0.000 C 
ATOM      3  C   UNL     1       4.134   6.068  17.896  0.00  0.00    +0.000 C 
ATOM      4  N   UNL     1       5.576   6.004  18.303  0.00  0.00    +0.000 NA
ATOM      5  C   UNL     1       5.734   5.004  19.417  0.00  0.00    +0.000 C 
ATOM      6  C   UNL     1       5.138   3.632  19.028  0.00  0.00    +0.000 C 
ENDROOT
BRANCH   4   7
ATOM      7  S   UNL     1       6.727   5.804  17.059  0.00  0.00    +0.000 S 
ATOM      8  O   UNL     1       7.254   7.116  16.748  0.00  0.00    +0.000 OA
ATOM      9  O   UNL     1       7.619   4.746  17.480  0.00  0.00    +0.000 OA
BRANCH   7  10
ATOM     10  C   UNL     1       5.772   5.221  15.626  0.00  0.00    +0.000 C 
ATOM     11  C   UNL     1       5.234   6.408  14.819  0.00  0.00    +0.000 C 
BRANCH  10  12
ATOM     12  C   UNL     1       6.644   4.324  14.718  0.00  0.00    +0.000 C 
BRANCH  12  13
ATOM     13  C   UNL     1       6.623   4.636  13.205  0.00  0.00    +0.000 C 
ATOM     14  C   UNL     1       7.942   5.218  12.695  0.00  0.00    +0.000 C 
ATOM     15  C   UNL     1       6.264   3.373  12.421  0.00  0.00    +0.000 C 
ENDBRANCH  12  13
ENDBRANCH  10  12
ENDBRANCH   7  10
ENDBRANCH   4   7
BRANCH   1  16
ATOM     16  C   UNL     1       2.779   3.861  19.877  0.00  0.00    +0.000 C 
BRANCH  16  18
ATOM     17  C   UNL     1       0.698   2.568  18.961  0.00  0.00    +0.000 C 
ATOM     18  C   UNL     1       1.294   3.902  19.398  0.00  0.00    +0.000 C 
ENDBRANCH  16  18
BRANCH  16  19
ATOM     19  C   UNL     1       2.949   2.736  20.946  0.00  0.00    +0.000 C 
BRANCH  19  20
ATOM     20  O   UNL     1       2.425   3.087  22.221  0.00  0.00    +0.000 OA
ATOM     21  H   UNL     1       2.956   3.826  22.567  0.00  0.00    +0.000 HD
ENDBRANCH  19  20
ENDBRANCH  16  19
ENDBRANCH   1  16
TORSDOF 8
ENDMDL
MODEL 6
REMARK VINA RESULT:      -6.3      2.157      6.409
REMARK  Name = 
REMARK  12 active torsions:
REMARK  status: ('A' for Active; 'I' for Inactive)
REMARK    1  A    between atoms: C_1  and  C_2
REMARK    2  A    between atoms: C_2  and  C_3
REMARK    3  A    between atoms: C_3  and  C_4
REMARK    4  A    between atoms: C_3  and  N_6
REMARK    5  A    between atoms: C_4  and  O_5
REMARK    6  A    between atoms: N_9  and  S_10
REMARK    7  A    between atoms: S_10  and  C_13
REMARK    8  A    between atoms: C_13  and  C_14
REMARK    9  A    between atoms: C_13  and  C_15
REMARK   10  A    between atoms: C_15  and  C_16
REMARK   11  A    between atoms: C_16  and  C_17
REMARK   12  A    between atoms: C_16  and  C_18
REMARK                            x       y       z     vdW  Elec       q    Type
REMARK                         _______ _______ _______ _____ _____    ______ ____
ROOT
ATOM      1  N   UNL     1       4.145   4.972  18.919  0.00  0.00    +0.000 NA
ATOM      2  C   UNL     1       4.348   3.820  18.001  0.00  0.00    +0.000 C 
ATOM      3  C   UNL     1       4.100   4.108  16.501  0.00  0.00    +0.000 C 
ATOM      4  N   UNL     1       4.863   5.296  15.995  0.00  0.00    +0.000 NA
ATOM      5  C   UNL     1       4.632   6.463  16.918  0.00  0.00    +0.000 C 
ATOM      6  C   UNL     1       4.958   6.094  18.382  0.00  0.00    +0.000 C 
ENDROOT
BRANCH   4   7
ATOM      7  S   UNL     1       6.509   5.060  15.618  0.00  0.00    +0.000 S 
ATOM      8  O   UNL     1       7.204   6.288  15.941  0.00  0.00    +0.000 OA
ATOM      9  O   UNL     1       6.908   3.817  16.241  0.00  0.00    +0.000 OA
BRANCH   7  10
ATOM     10  C   UNL     1       6.550   4.843  13.814  0.00  0.00    +0.000 C 
ATOM     11  C   UNL     1       7.947   5.150  13.266  0.00  0.00    +0.000 C 
BRANCH  10  12
ATOM     12  C   UNL     1       6.143   3.401  13.428  0.00  0.00    +0.000 C 
BRANCH  12  13
ATOM     13  C   UNL     1       5.827   3.142  11.938  0.00  0.00    +0.000 C 
ATOM     14  C   UNL     1       6.275   1.759  11.462  0.00  0.00    +0.000 C 
ATOM     15  C   UNL     1       4.330   3.330  11.688  0.00  0.00    +0.000 C 
ENDBRANCH  12  13
ENDBRANCH  10  12
ENDBRANCH   7  10
ENDBRANCH   4   7
BRANCH   1  16
ATOM     16  C   UNL     1       2.715   5.298  19.202  0.00  0.00    +0.000 C 
BRANCH  16  18
ATOM     17  C   UNL     1       0.939   3.466  19.779  0.00  0.00    +0.000 C 
ATOM     18  C   UNL     1       1.796   4.136  18.710  0.00  0.00    +0.000 C 
ENDBRANCH  16  18
BRANCH  16  19
ATOM     19  C   UNL     1       2.454   5.559  20.719  0.00  0.00    +0.000 C 
BRANCH  19  20
ATOM     20  O   UNL     1       1.940   6.857  20.988  0.00  0.00    +0.000 OA
ATOM     21  H   UNL     1       2.232   7.446  20.271  0.00  0.00    +0.000 HD
ENDBRANCH  19  20
ENDBRANCH  16  19
ENDBRANCH   1  16
TORSDOF 8
ENDMDL
MODEL 7
REMARK VINA RESULT:      -6.2      1.693      2.398
REMARK  Name = 
REMARK  12 active torsions:
REMARK  status: ('A' for Active; 'I' for Inactive)
REMARK    1  A    between atoms: C_1  and  C_2
REMARK    2  A    between atoms: C_2  and  C_3
REMARK    3  A    between atoms: C_3  and  C_4
REMARK    4  A    between atoms: C_3  and  N_6
REMARK    5  A    between atoms: C_4  and  O_5
REMARK    6  A    between atoms: N_9  and  S_10
REMARK    7  A    between atoms: S_10  and  C_13
REMARK    8  A    between atoms: C_13  and  C_14
REMARK    9  A    between atoms: C_13  and  C_15
REMARK   10  A    between atoms: C_15  and  C_16
REMARK   11  A    between atoms: C_16  and  C_17
REMARK   12  A    between atoms: C_16  and  C_18
REMARK                            x       y       z     vdW  Elec       q    Type
REMARK                         _______ _______ _______ _____ _____    ______ ____
ROOT
ATOM      1  N   UNL     1       6.643   4.274  15.572  0.00  0.00    +0.000 NA
ATOM      2  C   UNL     1       6.901   5.372  16.541  0.00  0.00    +0.000 C 
ATOM      3  C   UNL     1       5.670   6.225  16.931  0.00  0.00    +0.000 C 
ATOM      4  N   UNL     1       4.509   5.401  17.402  0.00  0.00    +0.000 NA
ATOM      5  C   UNL     1       4.240   4.307  16.402  0.00  0.00    +0.000 C 
ATOM      6  C   UNL     1       5.513   3.479  16.120  0.00  0.00    +0.000 C 
ENDROOT
BRANCH   4   7
ATOM      7  S   UNL     1       4.556   4.837  19.011  0.00  0.00    +0.000 S 
ATOM      8  O   UNL     1       4.556   3.390  18.959  0.00  0.00    +0.000 OA
ATOM      9  O   UNL     1       5.637   5.538  19.669  0.00  0.00    +0.000 OA
BRANCH   7  10
ATOM     10  C   UNL     1       2.983   5.379  19.744  0.00  0.00    +0.000 C 
ATOM     11  C   UNL     1       2.742   6.865  19.462  0.00  0.00    +0.000 C 
BRANCH  10  12
ATOM     12  C   UNL     1       1.806   4.544  19.188  0.00  0.00    +0.000 C 
BRANCH  12  13
ATOM     13  C   UNL     1       1.237   3.443  20.110  0.00  0.00    +0.000 C 
ATOM     14  C   UNL     1       1.335   2.043  19.502  0.00  0.00    +0.000 C 
ATOM     15  C   UNL     1       1.949   3.484  21.463  0.00  0.00    +0.000 C 
ENDBRANCH  12  13
ENDBRANCH  10  12
ENDBRANCH   7  10
ENDBRANCH   4   7
BRANCH   1  16
ATOM     16  C   UNL     1       6.481   4.720  14.155  0.00  0.00    +0.000 C 
BRANCH  16  18
ATOM     17  C   UNL     1       7.932   5.561  12.147  0.00  0.00    +0.000 C 
ATOM     18  C   UNL     1       7.794   5.402  13.658  0.00  0.00    +0.000 C 
ENDBRANCH  16  18
BRANCH  16  19
ATOM     19  C   UNL     1       6.116   3.539  13.200  0.00  0.00    +0.000 C 
BRANCH  19  20
ATOM     20  O   UNL     1       4.863   3.707  12.550  0.00  0.00    +0.000 OA
ATOM     21  H   UNL     1       4.248   4.109  13.189  0.00  0.00    +0.000 HD
ENDBRANCH  19  20
ENDBRANCH  16  19
ENDBRANCH   1  16
TORSDOF 8
ENDMDL
MODEL 8
REMARK VINA RESULT:      -6.0      1.964      6.431
REMARK  Name = 
REMARK  12 active torsions:
REMARK  status: ('A' for Active; 'I' for Inactive)
REMARK    1  A    between atoms: C_1  and  C_2
REMARK    2  A    between atoms: C_2  and  C_3
REMARK    3  A    between atoms: C_3  and  C_4
REMARK    4  A    between atoms: C_3  and  N_6
REMARK    5  A    between atoms: C_4  and  O_5
REMARK    6  A    between atoms: N_9  and  S_10
REMARK    7  A    between atoms: S_10  and  C_13
REMARK    8  A    between atoms: C_13  and  C_14
REMARK    9  A    between atoms: C_13  and  C_15
REMARK   10  A    between atoms: C_15  and  C_16
REMARK   11  A    between atoms: C_16  and  C_17
REMARK   12  A    between atoms: C_16  and  C_18
REMARK                            x       y       z     vdW  Elec       q    Type
REMARK                         _______ _______ _______ _____ _____    ______ ____
ROOT
ATOM      1  N   UNL     1       3.588   4.738  19.896  0.00  0.00    +0.000 NA
ATOM      2  C   UNL     1       4.619   3.986  19.132  0.00  0.00    +0.000 C 
ATOM      3  C   UNL     1       4.365   3.861  17.610  0.00  0.00    +0.000 C 
ATOM      4  N   UNL     1       4.109   5.182  16.946  0.00  0.00    +0.000 NA
ATOM      5  C   UNL     1       3.048   5.925  17.713  0.00  0.00    +0.000 C 
ATOM      6  C   UNL     1       3.416   6.044  19.209  0.00  0.00    +0.000 C 
ENDROOT
BRANCH   4   7
ATOM      7  S   UNL     1       5.468   6.146  16.583  0.00  0.00    +0.000 S 
ATOM      8  O   UNL     1       4.990   7.305  15.859  0.00  0.00    +0.000 OA
ATOM      9  O   UNL     1       6.204   6.316  17.817  0.00  0.00    +0.000 OA
BRANCH   7  10
ATOM     10  C   UNL     1       6.467   5.139  15.446  0.00  0.00    +0.000 C 
ATOM     11  C   UNL     1       7.292   4.109  16.223  0.00  0.00    +0.000 C 
BRANCH  10  12
ATOM     12  C   UNL     1       5.564   4.417  14.419  0.00  0.00    +0.000 C 
BRANCH  12  13
ATOM     13  C   UNL     1       6.268   3.775  13.203  0.00  0.00    +0.000 C 
ATOM     14  C   UNL     1       5.294   3.346  12.104  0.00  0.00    +0.000 C 
ATOM     15  C   UNL     1       7.309   4.744  12.639  0.00  0.00    +0.000 C 
ENDBRANCH  12  13
ENDBRANCH  10  12
ENDBRANCH   7  10
ENDBRANCH   4   7
BRANCH   1  16
ATOM     16  C   UNL     1       2.326   3.980  20.151  0.00  0.00    +0.000 C 
BRANCH  16  18
ATOM     17  C   UNL     1       0.981   2.184  18.806  0.00  0.00    +0.000 C 
ATOM     18  C   UNL     1       2.333   2.645  19.341  0.00  0.00    +0.000 C 
ENDBRANCH  16  18
BRANCH  16  19
ATOM     19  C   UNL     1       2.119   3.666  21.667  0.00  0.00    +0.000 C 
BRANCH  19  20
ATOM     20  O   UNL     1       2.769   2.474  22.090  0.00  0.00    +0.000 OA
ATOM     21  H   UNL     1       2.527   1.767  21.466  0.00  0.00    +0.000 HD
ENDBRANCH  19  20
ENDBRANCH  16  19
ENDBRANCH   1  16
TORSDOF 8
ENDMDL
MODEL 9
REMARK VINA RESULT:      -6.0      1.577      2.356
REMARK  Name = 
REMARK  12 active torsions:
REMARK  status: ('A' for Active; 'I' for Inactive)
REMARK    1  A    between atoms: C_1  and  C_2
REMARK    2  A    between atoms: C_2  and  C_3
REMARK    3  A    between atoms: C_3  and  C_4
REMARK    4  A    between atoms: C_3  and  N_6
REMARK    5  A    between atoms: C_4  and  O_5
REMARK    6  A    between atoms: N_9  and  S_10
REMARK    7  A    between atoms: S_10  and  C_13
REMARK    8  A    between atoms: C_13  and  C_14
REMARK    9  A    between atoms: C_13  and  C_15
REMARK   10  A    between atoms: C_15  and  C_16
REMARK   11  A    between atoms: C_16  and  C_17
REMARK   12  A    between atoms: C_16  and  C_18
REMARK                            x       y       z     vdW  Elec       q    Type
REMARK                         _______ _______ _______ _____ _____    ______ ____
ROOT
ATOM      1  N   UNL     1       6.912   4.440  15.278  0.00  0.00    +0.000 NA
ATOM      2  C   UNL     1       7.045   5.626  16.166  0.00  0.00    +0.000 C 
ATOM      3  C   UNL     1       5.716   6.304  16.579  0.00  0.00    +0.000 C 
ATOM      4  N   UNL     1       4.722   5.345  17.163  0.00  0.00    +0.000 NA
ATOM      5  C   UNL     1       4.578   4.160  16.246  0.00  0.00    +0.000 C 
ATOM      6  C   UNL     1       5.949   3.520  15.936  0.00  0.00    +0.000 C 
ENDROOT
BRANCH   4   7
ATOM      7  S   UNL     1       4.937   4.901  18.797  0.00  0.00    +0.000 S 
ATOM      8  O   UNL     1       6.204   4.209  18.890  0.00  0.00    +0.000 OA
ATOM      9  O   UNL     1       4.700   6.089  19.588  0.00  0.00    +0.000 OA
BRANCH   7  10
ATOM     10  C   UNL     1       3.610   3.706  19.135  0.00  0.00    +0.000 C 
ATOM     11  C   UNL     1       4.196   2.368  19.598  0.00  0.00    +0.000 C 
BRANCH  10  12
ATOM     12  C   UNL     1       2.643   4.253  20.211  0.00  0.00    +0.000 C 
BRANCH  12  13
ATOM     13  C   UNL     1       1.282   3.536  20.353  0.00  0.00    +0.000 C 
ATOM     14  C   UNL     1       0.880   2.759  19.099  0.00  0.00    +0.000 C 
ATOM     15  C   UNL     1       1.314   2.604  21.566  0.00  0.00    +0.000 C 
ENDBRANCH  12  13
ENDBRANCH  10  12
ENDBRANCH   7  10
ENDBRANCH   4   7
BRANCH   1  16
ATOM     16  C   UNL     1       6.613   4.763  13.850  0.00  0.00    +0.000 C 
BRANCH  16  18
ATOM     17  C   UNL     1       7.846   6.015  11.912  0.00  0.00    +0.000 C 
ATOM     18  C   UNL     1       7.941   5.033  13.075  0.00  0.00    +0.000 C 
ENDBRANCH  16  18
BRANCH  16  19
ATOM     19  C   UNL     1       5.820   3.621  13.138  0.00  0.00    +0.000 C 
BRANCH  19  20
ATOM     20  O   UNL     1       6.639   2.785  12.330  0.00  0.00    +0.000 OA
ATOM     21  H   UNL     1       7.463   2.614  12.819  0.00  0.00    +0.000 HD
ENDBRANCH  19  20
ENDBRANCH  16  19
ENDBRANCH   1  16
TORSDOF 8
ENDMDL
