MODEL 1
REMARK VINA RESULT:      -7.6      0.000      0.000
REMARK  Name = 
REMARK  10 active torsions:
REMARK  status: ('A' for Active; 'I' for Inactive)
REMARK    1  A    between atoms: C_1  and  C_2
REMARK    2  A    between atoms: C_8  and  N_9
REMARK    3  A    between atoms: C_10  and  C_12
REMARK    4  A    between atoms: C_14  and  C_15
REMARK    5  A    between atoms: C_16  and  C_17
REMARK    6  A    between atoms: C_19  and  C_20
REMARK    7  A    between atoms: N_22  and  C_23
REMARK    8  A    between atoms: C_23  and  C_24
REMARK    9  A    between atoms: C_23  and  C_25
REMARK   10  A    between atoms: C_23  and  C_26
REMARK                            x       y       z     vdW  Elec       q    Type
REMARK                         _______ _______ _______ _____ _____    ______ ____
ROOT
ATOM      1  C   UNL     1       2.380   7.650  18.983  0.00  0.00    +0.000 A 
ATOM      2  N   UNL     1       2.007   8.973  18.942  0.00  0.00    +0.000 NA
ATOM      3  C   UNL     1       1.137   9.398  19.892  0.00  0.00    +0.000 A 
ATOM      4  C   UNL     1       0.715  10.834  19.796  0.00  0.00    +0.000 C 
ATOM      5  C   UNL     1       0.670   8.539  20.894  0.00  0.00    +0.000 A 
ATOM      6  C   UNL     1      -0.135   9.014  22.069  0.00  0.00    +0.000 C 
ATOM      7  N   UNL     1       1.008   7.222  20.916  0.00  0.00    +0.000 NA
ATOM      8  C   UNL     1       1.885   6.784  19.949  0.00  0.00    +0.000 A 
ENDROOT
BRANCH   1  10
ATOM      9  N   UNL     1       4.170   6.220  18.201  0.00  0.00    +0.000 N 
ATOM     10  C   UNL     1       3.300   7.264  17.872  0.00  0.00    +0.000 C 
ATOM     11  O   UNL     1       3.314   7.924  16.838  0.00  0.00    +0.000 OA
ATOM     12  H   UNL     1       4.196   5.992  19.191  0.00  0.00    +0.000 HD
BRANCH   9  20
ATOM     13  C   UNL     1       6.912   5.590  19.162  0.00  0.00    +0.000 C 
ATOM     14  C   UNL     1       6.414   5.295  17.774  0.00  0.00    +0.000 A 
ATOM     15  C   UNL     1       7.337   4.733  16.863  0.00  0.00    +0.000 A 
ATOM     16  C   UNL     1       6.945   4.381  15.576  0.00  0.00    +0.000 A 
ATOM     17  C   UNL     1       5.634   4.586  15.190  0.00  0.00    +0.000 A 
ATOM     18  F   UNL     1       5.239   4.200  13.971  0.00  0.00    +0.000 F 
ATOM     19  C   UNL     1       4.712   5.181  16.049  0.00  0.00    +0.000 A 
ATOM     20  C   UNL     1       5.094   5.574  17.338  0.00  0.00    +0.000 A 
ENDBRANCH   9  20
ENDBRANCH   1  10
BRANCH   8  21
ATOM     21  C   UNL     1       2.338   5.368  20.144  0.00  0.00    +0.000 C 
ATOM     22  O   UNL     1       3.379   5.110  20.740  0.00  0.00    +0.000 OA
ATOM     23  N   UNL     1       1.441   4.401  19.697  0.00  0.00    +0.000 N 
ATOM     24  H   UNL     1       0.536   4.755  19.397  0.00  0.00    +0.000 HD
BRANCH  23  25
ATOM     25  C   UNL     1       1.644   2.942  19.793  0.00  0.00    +0.000 C 
ATOM     26  C   UNL     1       0.630   2.179  18.925  0.00  0.00    +0.000 C 
ATOM     27  C   UNL     1       3.058   2.594  19.291  0.00  0.00    +0.000 C 
ATOM     28  C   UNL     1       1.537   2.473  21.255  0.00  0.00    +0.000 C 
ENDBRANCH  23  25
ENDBRANCH   8  21
TORSDOF 4
ENDMDL
MODEL 2
REMARK VINA RESULT:      -7.3      4.041      7.232
REMARK  Name = 
REMARK  10 active torsions:
REMARK  status: ('A' for Active; 'I' for Inactive)
REMARK    1  A    between atoms: C_1  and  C_2
REMARK    2  A    between atoms: C_8  and  N_9
REMARK    3  A    between atoms: C_10  and  C_12
REMARK    4  A    between atoms: C_14  and  C_15
REMARK    5  A    between atoms: C_16  and  C_17
REMARK    6  A    between atoms: C_19  and  C_20
REMARK    7  A    between atoms: N_22  and  C_23
REMARK    8  A    between atoms: C_23  and  C_24
REMARK    9  A    between atoms: C_23  and  C_25
REMARK   10  A    between atoms: C_23  and  C_26
REMARK                            x       y       z     vdW  Elec       q    Type
REMARK                         _______ _______ _______ _____ _____    ______ ____
ROOT
ATOM      1  C   UNL     1       1.084  12.888  18.702  0.00  0.00    +0.000 A 
ATOM      2  N   UNL     1       2.015  13.874  18.924  0.00  0.00    +0.000 NA
ATOM      3  C   UNL     1       1.559  15.150  18.989  0.00  0.00    +0.000 A 
ATOM      4  C   UNL     1       2.603  16.208  19.188  0.00  0.00    +0.000 C 
ATOM      5  C   UNL     1       0.195  15.447  18.878  0.00  0.00    +0.000 A 
ATOM      6  C   UNL     1      -0.369  16.812  19.138  0.00  0.00    +0.000 C 
ATOM      7  N   UNL     1      -0.724  14.477  18.623  0.00  0.00    +0.000 NA
ATOM      8  C   UNL     1      -0.265  13.182  18.548  0.00  0.00    +0.000 A 
ENDROOT
BRANCH   1  10
ATOM      9  N   UNL     1       1.161  10.609  19.516  0.00  0.00    +0.000 N 
ATOM     10  C   UNL     1       1.684  11.525  18.597  0.00  0.00    +0.000 C 
ATOM     11  O   UNL     1       2.625  11.333  17.835  0.00  0.00    +0.000 OA
ATOM     12  H   UNL     1       0.592  11.026  20.247  0.00  0.00    +0.000 HD
BRANCH   9  20
ATOM     13  C   UNL     1       0.447   9.088  21.968  0.00  0.00    +0.000 C 
ATOM     14  C   UNL     1       1.153   8.494  20.781  0.00  0.00    +0.000 A 
ATOM     15  C   UNL     1       1.544   7.138  20.874  0.00  0.00    +0.000 A 
ATOM     16  C   UNL     1       2.155   6.497  19.802  0.00  0.00    +0.000 A 
ATOM     17  C   UNL     1       2.378   7.200  18.634  0.00  0.00    +0.000 A 
ATOM     18  F   UNL     1       2.918   6.572  17.582  0.00  0.00    +0.000 F 
ATOM     19  C   UNL     1       2.047   8.548  18.526  0.00  0.00    +0.000 A 
ATOM     20  C   UNL     1       1.462   9.224  19.605  0.00  0.00    +0.000 A 
ENDBRANCH   9  20
ENDBRANCH   1  10
BRANCH   8  21
ATOM     21  C   UNL     1      -1.357  12.160  18.435  0.00  0.00    +0.000 C 
ATOM     22  O   UNL     1      -1.817  11.610  19.430  0.00  0.00    +0.000 OA
ATOM     23  N   UNL     1      -1.860  11.983  17.149  0.00  0.00    +0.000 N 
ATOM     24  H   UNL     1      -1.517  12.641  16.454  0.00  0.00    +0.000 HD
BRANCH  23  25
ATOM     25  C   UNL     1      -2.948  11.056  16.780  0.00  0.00    +0.000 C 
ATOM     26  C   UNL     1      -2.959  10.781  15.268  0.00  0.00    +0.000 C 
ATOM     27  C   UNL     1      -2.736   9.713  17.506  0.00  0.00    +0.000 C 
ATOM     28  C   UNL     1      -4.313  11.615  17.220  0.00  0.00    +0.000 C 
ENDBRANCH  23  25
ENDBRANCH   8  21
TORSDOF 4
ENDMDL
MODEL 3
REMARK VINA RESULT:      -7.3      2.760      6.110
REMARK  Name = 
REMARK  10 active torsions:
REMARK  status: ('A' for Active; 'I' for Inactive)
REMARK    1  A    between atoms: C_1  and  C_2
REMARK    2  A    between atoms: C_8  and  N_9
REMARK    3  A    between atoms: C_10  and  C_12
REMARK    4  A    between atoms: C_14  and  C_15
REMARK    5  A    between atoms: C_16  and  C_17
REMARK    6  A    between atoms: C_19  and  C_20
REMARK    7  A    between atoms: N_22  and  C_23
REMARK    8  A    between atoms: C_23  and  C_24
REMARK    9  A    between atoms: C_23  and  C_25
REMARK   10  A    between atoms: C_23  and  C_26
REMARK                            x       y       z     vdW  Elec       q    Type
REMARK                         _______ _______ _______ _____ _____    ______ ____
ROOT
ATOM      1  C   UNL     1       4.063   6.181  18.075  0.00  0.00    +0.000 A 
ATOM      2  N   UNL     1       5.089   7.054  17.799  0.00  0.00    +0.000 NA
ATOM      3  C   UNL     1       6.325   6.520  17.633  0.00  0.00    +0.000 A 
ATOM      4  C   UNL     1       7.431   7.501  17.378  0.00  0.00    +0.000 C 
ATOM      5  C   UNL     1       6.541   5.139  17.698  0.00  0.00    +0.000 A 
ATOM      6  C   UNL     1       7.846   4.497  17.330  0.00  0.00    +0.000 C 
ATOM      7  N   UNL     1       5.536   4.276  18.005  0.00  0.00    +0.000 NA
ATOM      8  C   UNL     1       4.281   4.813  18.183  0.00  0.00    +0.000 A 
ENDROOT
BRANCH   1  10
ATOM      9  N   UNL     1       2.686   7.591  19.481  0.00  0.00    +0.000 N 
ATOM     10  C   UNL     1       2.752   6.862  18.289  0.00  0.00    +0.000 C 
ATOM     11  O   UNL     1       1.828   6.659  17.509  0.00  0.00    +0.000 OA
ATOM     12  H   UNL     1       3.451   7.412  20.125  0.00  0.00    +0.000 HD
BRANCH   9  20
ATOM     13  C   UNL     1       1.944  10.018  17.932  0.00  0.00    +0.000 C 
ATOM     14  C   UNL     1       1.270   9.589  19.206  0.00  0.00    +0.000 A 
ATOM     15  C   UNL     1       0.258  10.435  19.716  0.00  0.00    +0.000 A 
ATOM     16  C   UNL     1      -0.451  10.087  20.860  0.00  0.00    +0.000 A 
ATOM     17  C   UNL     1      -0.158   8.898  21.501  0.00  0.00    +0.000 A 
ATOM     18  F   UNL     1      -0.874   8.534  22.572  0.00  0.00    +0.000 F 
ATOM     19  C   UNL     1       0.864   8.067  21.050  0.00  0.00    +0.000 A 
ATOM     20  C   UNL     1       1.615   8.413  19.919  0.00  0.00    +0.000 A 
ENDBRANCH   9  20
ENDBRANCH   1  10
BRANCH   8  21
ATOM     21  C   UNL     1       3.203   3.785  18.349  0.00  0.00    +0.000 C 
ATOM     22  O   UNL     1       2.839   3.088  17.407  0.00  0.00    +0.000 OA
ATOM     23  N   UNL     1       2.746   3.623  19.655  0.00  0.00    +0.000 N 
ATOM     24  H   UNL     1       3.269   4.131  20.363  0.00  0.00    +0.000 HD
BRANCH  23  25
ATOM     25  C   UNL     1       1.709   2.664  20.082  0.00  0.00    +0.000 C 
ATOM     26  C   UNL     1       0.368   2.943  19.383  0.00  0.00    +0.000 C 
ATOM     27  C   UNL     1       2.153   1.237  19.705  0.00  0.00    +0.000 C 
ATOM     28  C   UNL     1       1.522   2.708  21.609  0.00  0.00    +0.000 C 
ENDBRANCH  23  25
ENDBRANCH   8  21
TORSDOF 4
ENDMDL
MODEL 4
REMARK VINA RESULT:      -7.3      2.558      5.965
REMARK  Name = 
REMARK  10 active torsions:
REMARK  status: ('A' for Active; 'I' for Inactive)
REMARK    1  A    between atoms: C_1  and  C_2
REMARK    2  A    between atoms: C_8  and  N_9
REMARK    3  A    between atoms: C_10  and  C_12
REMARK    4  A    between atoms: C_14  and  C_15
REMARK    5  A    between atoms: C_16  and  C_17
REMARK    6  A    between atoms: C_19  and  C_20
REMARK    7  A    between atoms: N_22  and  C_23
REMARK    8  A    between atoms: C_23  and  C_24
REMARK    9  A    between atoms: C_23  and  C_25
REMARK   10  A    between atoms: C_23  and  C_26
REMARK                            x       y       z     vdW  Elec       q    Type
REMARK                         _______ _______ _______ _____ _____    ______ ____
ROOT
ATOM      1  C   UNL     1       4.208   6.990  17.866  0.00  0.00    +0.000 A 
ATOM      2  N   UNL     1       5.383   7.604  17.500  0.00  0.00    +0.000 NA
ATOM      3  C   UNL     1       6.515   6.860  17.571  0.00  0.00    +0.000 A 
ATOM      4  C   UNL     1       7.786   7.569  17.208  0.00  0.00    +0.000 C 
ATOM      5  C   UNL     1       6.485   5.515  17.958  0.00  0.00    +0.000 A 
ATOM      6  C   UNL     1       7.677   4.609  17.862  0.00  0.00    +0.000 C 
ATOM      7  N   UNL     1       5.330   4.916  18.354  0.00  0.00    +0.000 NA
ATOM      8  C   UNL     1       4.179   5.669  18.293  0.00  0.00    +0.000 A 
ENDROOT
BRANCH   1  10
ATOM      9  N   UNL     1       2.365   8.047  19.027  0.00  0.00    +0.000 N 
ATOM     10  C   UNL     1       3.025   7.899  17.803  0.00  0.00    +0.000 C 
ATOM     11  O   UNL     1       2.657   8.343  16.720  0.00  0.00    +0.000 OA
ATOM     12  H   UNL     1       2.653   7.384  19.741  0.00  0.00    +0.000 HD
BRANCH   9  20
ATOM     13  C   UNL     1       1.534   8.526  21.841  0.00  0.00    +0.000 C 
ATOM     14  C   UNL     1       0.845   9.120  20.643  0.00  0.00    +0.000 A 
ATOM     15  C   UNL     1      -0.303   9.909  20.885  0.00  0.00    +0.000 A 
ATOM     16  C   UNL     1      -0.968  10.538  19.838  0.00  0.00    +0.000 A 
ATOM     17  C   UNL     1      -0.496  10.386  18.549  0.00  0.00    +0.000 A 
ATOM     18  F   UNL     1      -1.102  11.032  17.546  0.00  0.00    +0.000 F 
ATOM     19  C   UNL     1       0.604   9.577  18.273  0.00  0.00    +0.000 A 
ATOM     20  C   UNL     1       1.270   8.907  19.307  0.00  0.00    +0.000 A 
ENDBRANCH   9  20
ENDBRANCH   1  10
BRANCH   8  21
ATOM     21  C   UNL     1       2.932   4.888  18.581  0.00  0.00    +0.000 C 
ATOM     22  O   UNL     1       1.968   4.927  17.823  0.00  0.00    +0.000 OA
ATOM     23  N   UNL     1       3.009   4.056  19.695  0.00  0.00    +0.000 N 
ATOM     24  H   UNL     1       3.931   3.981  20.118  0.00  0.00    +0.000 HD
BRANCH  23  25
ATOM     25  C   UNL     1       1.927   3.174  20.175  0.00  0.00    +0.000 C 
ATOM     26  C   UNL     1       1.697   1.998  19.213  0.00  0.00    +0.000 C 
ATOM     27  C   UNL     1       2.319   2.595  21.549  0.00  0.00    +0.000 C 
ATOM     28  C   UNL     1       0.619   3.965  20.356  0.00  0.00    +0.000 C 
ENDBRANCH  23  25
ENDBRANCH   8  21
TORSDOF 4
ENDMDL
MODEL 5
REMARK VINA RESULT:      -7.3      3.811      6.665
REMARK  Name = 
REMARK  10 active torsions:
REMARK  status: ('A' for Active; 'I' for Inactive)
REMARK    1  A    between atoms: C_1  and  C_2
REMARK    2  A    between atoms: C_8  and  N_9
REMARK    3  A    between atoms: C_10  and  C_12
REMARK    4  A    between atoms: C_14  and  C_15
REMARK    5  A    between atoms: C_16  and  C_17
REMARK    6  A    between atoms: C_19  and  C_20
REMARK    7  A    between atoms: N_22  and  C_23
REMARK    8  A    between atoms: C_23  and  C_24
REMARK    9  A    between atoms: C_23  and  C_25
REMARK   10  A    between atoms: C_23  and  C_26
REMARK                            x       y       z     vdW  Elec       q    Type
REMARK                         _______ _______ _______ _____ _____    ______ ____
ROOT
ATOM      1  C   UNL     1       0.723  11.676  18.511  0.00  0.00    +0.000 A 
ATOM      2  N   UNL     1       1.948  12.261  18.727  0.00  0.00    +0.000 NA
ATOM      3  C   UNL     1       1.973  13.611  18.852  0.00  0.00    +0.000 A 
ATOM      4  C   UNL     1       3.329  14.225  19.043  0.00  0.00    +0.000 C 
ATOM      5  C   UNL     1       0.800  14.373  18.805  0.00  0.00    +0.000 A 
ATOM      6  C   UNL     1       0.761  15.838  19.130  0.00  0.00    +0.000 C 
ATOM      7  N   UNL     1      -0.409  13.802  18.556  0.00  0.00    +0.000 NA
ATOM      8  C   UNL     1      -0.439  12.432  18.420  0.00  0.00    +0.000 A 
ENDROOT
BRANCH   1  10
ATOM      9  N   UNL     1       1.993   9.636  18.810  0.00  0.00    +0.000 N 
ATOM     10  C   UNL     1       0.800  10.195  18.339  0.00  0.00    +0.000 C 
ATOM     11  O   UNL     1      -0.086   9.608  17.726  0.00  0.00    +0.000 OA
ATOM     12  H   UNL     1       2.716  10.315  19.028  0.00  0.00    +0.000 HD
BRANCH   9  20
ATOM     13  C   UNL     1       1.122   7.995  21.130  0.00  0.00    +0.000 C 
ATOM     14  C   UNL     1       1.940   7.470  19.983  0.00  0.00    +0.000 A 
ATOM     15  C   UNL     1       2.360   6.122  20.054  0.00  0.00    +0.000 A 
ATOM     16  C   UNL     1       3.075   5.542  19.011  0.00  0.00    +0.000 A 
ATOM     17  C   UNL     1       3.374   6.299  17.895  0.00  0.00    +0.000 A 
ATOM     18  F   UNL     1       4.015   5.731  16.867  0.00  0.00    +0.000 F 
ATOM     19  C   UNL     1       3.014   7.642  17.815  0.00  0.00    +0.000 A 
ATOM     20  C   UNL     1       2.324   8.257  18.867  0.00  0.00    +0.000 A 
ENDBRANCH   9  20
ENDBRANCH   1  10
BRANCH   8  21
ATOM     21  C   UNL     1      -1.824  11.867  18.318  0.00  0.00    +0.000 C 
ATOM     22  O   UNL     1      -2.578  11.855  19.286  0.00  0.00    +0.000 OA
ATOM     23  N   UNL     1      -2.201  11.471  17.037  0.00  0.00    +0.000 N 
ATOM     24  H   UNL     1      -1.546  11.714  16.298  0.00  0.00    +0.000 HD
BRANCH  23  25
ATOM     25  C   UNL     1      -3.514  10.905  16.672  0.00  0.00    +0.000 C 
ATOM     26  C   UNL     1      -4.651  11.897  16.965  0.00  0.00    +0.000 C 
ATOM     27  C   UNL     1      -3.529  10.595  15.163  0.00  0.00    +0.000 C 
ATOM     28  C   UNL     1      -3.765   9.585  17.424  0.00  0.00    +0.000 C 
ENDBRANCH  23  25
ENDBRANCH   8  21
TORSDOF 4
ENDMDL
MODEL 6
REMARK VINA RESULT:      -7.2      2.372      6.437
REMARK  Name = 
REMARK  10 active torsions:
REMARK  status: ('A' for Active; 'I' for Inactive)
REMARK    1  A    between atoms: C_1  and  C_2
REMARK    2  A    between atoms: C_8  and  N_9
REMARK    3  A    between atoms: C_10  and  C_12
REMARK    4  A    between atoms: C_14  and  C_15
REMARK    5  A    between atoms: C_16  and  C_17
REMARK    6  A    between atoms: C_19  and  C_20
REMARK    7  A    between atoms: N_22  and  C_23
REMARK    8  A    between atoms: C_23  and  C_24
REMARK    9  A    between atoms: C_23  and  C_25
REMARK   10  A    between atoms: C_23  and  C_26
REMARK                            x       y       z     vdW  Elec       q    Type
REMARK                         _______ _______ _______ _____ _____    ______ ____
ROOT
ATOM      1  C   UNL     1       3.034   4.822  19.364  0.00  0.00    +0.000 A 
ATOM      2  N   UNL     1       2.324   4.193  20.358  0.00  0.00    +0.000 NA
ATOM      3  C   UNL     1       2.841   3.040  20.851  0.00  0.00    +0.000 A 
ATOM      4  C   UNL     1       2.022   2.354  21.905  0.00  0.00    +0.000 C 
ATOM      5  C   UNL     1       4.065   2.534  20.398  0.00  0.00    +0.000 A 
ATOM      6  C   UNL     1       4.763   1.376  21.049  0.00  0.00    +0.000 C 
ATOM      7  N   UNL     1       4.753   3.134  19.390  0.00  0.00    +0.000 NA
ATOM      8  C   UNL     1       4.227   4.300  18.880  0.00  0.00    +0.000 A 
ENDROOT
BRANCH   1  10
ATOM      9  N   UNL     1       2.308   7.093  19.785  0.00  0.00    +0.000 N 
ATOM     10  C   UNL     1       2.364   6.054  18.851  0.00  0.00    +0.000 C 
ATOM     11  O   UNL     1       1.833   6.040  17.746  0.00  0.00    +0.000 OA
ATOM     12  H   UNL     1       2.553   6.819  20.733  0.00  0.00    +0.000 HD
BRANCH   9  20
ATOM     13  C   UNL     1       0.269   8.237  21.621  0.00  0.00    +0.000 C 
ATOM     14  C   UNL     1       0.824   8.954  20.421  0.00  0.00    +0.000 A 
ATOM     15  C   UNL     1       0.291  10.231  20.129  0.00  0.00    +0.000 A 
ATOM     16  C   UNL     1       0.785  10.984  19.070  0.00  0.00    +0.000 A 
ATOM     17  C   UNL     1       1.809  10.472  18.297  0.00  0.00    +0.000 A 
ATOM     18  F   UNL     1       2.323  11.215  17.309  0.00  0.00    +0.000 F 
ATOM     19  C   UNL     1       2.323   9.198  18.530  0.00  0.00    +0.000 A 
ATOM     20  C   UNL     1       1.818   8.408  19.570  0.00  0.00    +0.000 A 
ENDBRANCH   9  20
ENDBRANCH   1  10
BRANCH   8  21
ATOM     21  C   UNL     1       5.126   4.987  17.896  0.00  0.00    +0.000 C 
ATOM     22  O   UNL     1       5.941   5.829  18.260  0.00  0.00    +0.000 OA
ATOM     23  N   UNL     1       5.030   4.515  16.589  0.00  0.00    +0.000 N 
ATOM     24  H   UNL     1       4.453   3.687  16.469  0.00  0.00    +0.000 HD
BRANCH  23  25
ATOM     25  C   UNL     1       5.821   5.009  15.445  0.00  0.00    +0.000 C 
ATOM     26  C   UNL     1       7.329   4.894  15.717  0.00  0.00    +0.000 C 
ATOM     27  C   UNL     1       5.495   4.161  14.201  0.00  0.00    +0.000 C 
ATOM     28  C   UNL     1       5.457   6.470  15.123  0.00  0.00    +0.000 C 
ENDBRANCH  23  25
ENDBRANCH   8  21
TORSDOF 4
ENDMDL
MODEL 7
REMARK VINA RESULT:      -7.2      1.047      1.270
REMARK  Name = 
REMARK  10 active torsions:
REMARK  status: ('A' for Active; 'I' for Inactive)
REMARK    1  A    between atoms: C_1  and  C_2
REMARK    2  A    between atoms: C_8  and  N_9
REMARK    3  A    between atoms: C_10  and  C_12
REMARK    4  A    between atoms: C_14  and  C_15
REMARK    5  A    between atoms: C_16  and  C_17
REMARK    6  A    between atoms: C_19  and  C_20
REMARK    7  A    between atoms: N_22  and  C_23
REMARK    8  A    between atoms: C_23  and  C_24
REMARK    9  A    between atoms: C_23  and  C_25
REMARK   10  A    between atoms: C_23  and  C_26
REMARK                            x       y       z     vdW  Elec       q    Type
REMARK                         _______ _______ _______ _____ _____    ______ ____
ROOT
ATOM      1  C   UNL     1       2.442   6.974  18.775  0.00  0.00    +0.000 A 
ATOM      2  N   UNL     1       2.275   8.251  18.294  0.00  0.00    +0.000 NA
ATOM      3  C   UNL     1       1.630   9.133  19.097  0.00  0.00    +0.000 A 
ATOM      4  C   UNL     1       1.424  10.506  18.528  0.00  0.00    +0.000 C 
ATOM      5  C   UNL     1       1.188   8.773  20.375  0.00  0.00    +0.000 A 
ATOM      6  C   UNL     1       0.648   9.763  21.365  0.00  0.00    +0.000 C 
ATOM      7  N   UNL     1       1.320   7.501  20.840  0.00  0.00    +0.000 NA
ATOM      8  C   UNL     1       1.967   6.600  20.026  0.00  0.00    +0.000 A 
ENDROOT
BRANCH   1  10
ATOM      9  N   UNL     1       4.400   6.485  17.438  0.00  0.00    +0.000 N 
ATOM     10  C   UNL     1       3.118   6.063  17.804  0.00  0.00    +0.000 C 
ATOM     11  O   UNL     1       2.500   5.117  17.327  0.00  0.00    +0.000 OA
ATOM     12  H   UNL     1       4.627   7.434  17.723  0.00  0.00    +0.000 HD
BRANCH   9  20
ATOM     13  C   UNL     1       7.208   6.100  18.337  0.00  0.00    +0.000 C 
ATOM     14  C   UNL     1       6.671   5.628  17.013  0.00  0.00    +0.000 A 
ATOM     15  C   UNL     1       7.586   5.013  16.128  0.00  0.00    +0.000 A 
ATOM     16  C   UNL     1       7.163   4.501  14.907  0.00  0.00    +0.000 A 
ATOM     17  C   UNL     1       5.829   4.598  14.561  0.00  0.00    +0.000 A 
ATOM     18  F   UNL     1       5.407   4.060  13.410  0.00  0.00    +0.000 F 
ATOM     19  C   UNL     1       4.911   5.239  15.390  0.00  0.00    +0.000 A 
ATOM     20  C   UNL     1       5.322   5.793  16.609  0.00  0.00    +0.000 A 
ENDBRANCH   9  20
ENDBRANCH   1  10
BRANCH   8  21
ATOM     21  C   UNL     1       2.221   5.273  20.677  0.00  0.00    +0.000 C 
ATOM     22  O   UNL     1       2.581   5.198  21.847  0.00  0.00    +0.000 OA
ATOM     23  N   UNL     1       1.913   4.167  19.888  0.00  0.00    +0.000 N 
ATOM     24  H   UNL     1       1.445   4.377  19.010  0.00  0.00    +0.000 HD
BRANCH  23  25
ATOM     25  C   UNL     1       2.054   2.758  20.305  0.00  0.00    +0.000 C 
ATOM     26  C   UNL     1       1.344   2.498  21.644  0.00  0.00    +0.000 C 
ATOM     27  C   UNL     1       1.410   1.849  19.240  0.00  0.00    +0.000 C 
ATOM     28  C   UNL     1       3.539   2.370  20.417  0.00  0.00    +0.000 C 
ENDBRANCH  23  25
ENDBRANCH   8  21
TORSDOF 4
ENDMDL
MODEL 8
REMARK VINA RESULT:      -7.1      2.757      6.116
REMARK  Name = 
REMARK  10 active torsions:
REMARK  status: ('A' for Active; 'I' for Inactive)
REMARK    1  A    between atoms: C_1  and  C_2
REMARK    2  A    between atoms: C_8  and  N_9
REMARK    3  A    between atoms: C_10  and  C_12
REMARK    4  A    between atoms: C_14  and  C_15
REMARK    5  A    between atoms: C_16  and  C_17
REMARK    6  A    between atoms: C_19  and  C_20
REMARK    7  A    between atoms: N_22  and  C_23
REMARK    8  A    between atoms: C_23  and  C_24
REMARK    9  A    between atoms: C_23  and  C_25
REMARK   10  A    between atoms: C_23  and  C_26
REMARK                            x       y       z     vdW  Elec       q    Type
REMARK                         _______ _______ _______ _____ _____    ______ ____
ROOT
ATOM      1  C   UNL     1       4.316   5.909  18.517  0.00  0.00    +0.000 A 
ATOM      2  N   UNL     1       5.187   6.734  17.846  0.00  0.00    +0.000 NA
ATOM      3  C   UNL     1       6.466   6.304  17.714  0.00  0.00    +0.000 A 
ATOM      4  C   UNL     1       7.404   7.244  17.016  0.00  0.00    +0.000 C 
ATOM      5  C   UNL     1       6.874   5.057  18.203  0.00  0.00    +0.000 A 
ATOM      6  C   UNL     1       8.220   4.462  17.909  0.00  0.00    +0.000 C 
ATOM      7  N   UNL     1       6.024   4.254  18.898  0.00  0.00    +0.000 NA
ATOM      8  C   UNL     1       4.726   4.690  19.042  0.00  0.00    +0.000 A 
ENDROOT
BRANCH   1  10
ATOM      9  N   UNL     1       2.831   7.421  19.690  0.00  0.00    +0.000 N 
ATOM     10  C   UNL     1       2.946   6.487  18.654  0.00  0.00    +0.000 C 
ATOM     11  O   UNL     1       2.030   6.048  17.966  0.00  0.00    +0.000 OA
ATOM     12  H   UNL     1       3.626   7.444  20.323  0.00  0.00    +0.000 HD
BRANCH   9  20
ATOM     13  C   UNL     1       1.920   9.554  17.830  0.00  0.00    +0.000 C 
ATOM     14  C   UNL     1       1.263   9.242  19.147  0.00  0.00    +0.000 A 
ATOM     15  C   UNL     1       0.178  10.061  19.536  0.00  0.00    +0.000 A 
ATOM     16  C   UNL     1      -0.519   9.809  20.713  0.00  0.00    +0.000 A 
ATOM     17  C   UNL     1      -0.140   8.743  21.506  0.00  0.00    +0.000 A 
ATOM     18  F   UNL     1      -0.841   8.465  22.612  0.00  0.00    +0.000 F 
ATOM     19  C   UNL     1       0.953   7.946  21.174  0.00  0.00    +0.000 A 
ATOM     20  C   UNL     1       1.691   8.202  20.011  0.00  0.00    +0.000 A 
ENDBRANCH   9  20
ENDBRANCH   1  10
BRANCH   8  21
ATOM     21  C   UNL     1       3.816   3.677  19.669  0.00  0.00    +0.000 C 
ATOM     22  O   UNL     1       4.143   3.069  20.682  0.00  0.00    +0.000 OA
ATOM     23  N   UNL     1       2.559   3.575  19.076  0.00  0.00    +0.000 N 
ATOM     24  H   UNL     1       2.357   4.273  18.365  0.00  0.00    +0.000 HD
BRANCH  23  25
ATOM     25  C   UNL     1       1.480   2.671  19.518  0.00  0.00    +0.000 C 
ATOM     26  C   UNL     1       1.169   2.859  21.012  0.00  0.00    +0.000 C 
ATOM     27  C   UNL     1       0.199   2.985  18.722  0.00  0.00    +0.000 C 
ATOM     28  C   UNL     1       1.854   1.203  19.243  0.00  0.00    +0.000 C 
ENDBRANCH  23  25
ENDBRANCH   8  21
TORSDOF 4
ENDMDL
MODEL 9
REMARK VINA RESULT:      -7.0      2.818      6.555
REMARK  Name = 
REMARK  10 active torsions:
REMARK  status: ('A' for Active; 'I' for Inactive)
REMARK    1  A    between atoms: C_1  and  C_2
REMARK    2  A    between atoms: C_8  and  N_9
REMARK    3  A    between atoms: C_10  and  C_12
REMARK    4  A    between atoms: C_14  and  C_15
REMARK    5  A    between atoms: C_16  and  C_17
REMARK    6  A    between atoms: C_19  and  C_20
REMARK    7  A    between atoms: N_22  and  C_23
REMARK    8  A    between atoms: C_23  and  C_24
REMARK    9  A    between atoms: C_23  and  C_25
REMARK   10  A    between atoms: C_23  and  C_26
REMARK                            x       y       z     vdW  Elec       q    Type
REMARK                         _______ _______ _______ _____ _____    ______ ____
ROOT
ATOM      1  C   UNL     1       3.048   4.534  19.479  0.00  0.00    +0.000 A 
ATOM      2  N   UNL     1       2.399   3.832  20.467  0.00  0.00    +0.000 NA
ATOM      3  C   UNL     1       3.015   2.720  20.940  0.00  0.00    +0.000 A 
ATOM      4  C   UNL     1       2.262   1.951  21.986  0.00  0.00    +0.000 C 
ATOM      5  C   UNL     1       4.274   2.325  20.474  0.00  0.00    +0.000 A 
ATOM      6  C   UNL     1       5.071   1.221  21.104  0.00  0.00    +0.000 C 
ATOM      7  N   UNL     1       4.903   2.997  19.472  0.00  0.00    +0.000 NA
ATOM      8  C   UNL     1       4.278   4.122  18.983  0.00  0.00    +0.000 A 
ENDROOT
BRANCH   1  10
ATOM      9  N   UNL     1       2.360   6.829  19.825  0.00  0.00    +0.000 N 
ATOM     10  C   UNL     1       2.274   5.712  18.988  0.00  0.00    +0.000 C 
ATOM     11  O   UNL     1       1.559   5.598  17.998  0.00  0.00    +0.000 OA
ATOM     12  H   UNL     1       2.771   6.640  20.735  0.00  0.00    +0.000 HD
BRANCH   9  20
ATOM     13  C   UNL     1       3.143   8.350  17.394  0.00  0.00    +0.000 C 
ATOM     14  C   UNL     1       2.201   8.865  18.446  0.00  0.00    +0.000 A 
ATOM     15  C   UNL     1       1.708  10.180  18.283  0.00  0.00    +0.000 A 
ATOM     16  C   UNL     1       0.792  10.715  19.182  0.00  0.00    +0.000 A 
ATOM     17  C   UNL     1       0.362   9.945  20.246  0.00  0.00    +0.000 A 
ATOM     18  F   UNL     1      -0.559  10.436  21.084  0.00  0.00    +0.000 F 
ATOM     19  C   UNL     1       0.864   8.664  20.461  0.00  0.00    +0.000 A 
ATOM     20  C   UNL     1       1.813   8.117  19.587  0.00  0.00    +0.000 A 
ENDBRANCH   9  20
ENDBRANCH   1  10
BRANCH   8  21
ATOM     21  C   UNL     1       5.111   4.896  18.005  0.00  0.00    +0.000 C 
ATOM     22  O   UNL     1       5.842   5.809  18.376  0.00  0.00    +0.000 OA
ATOM     23  N   UNL     1       5.063   4.426  16.695  0.00  0.00    +0.000 N 
ATOM     24  H   UNL     1       4.566   3.548  16.568  0.00  0.00    +0.000 HD
BRANCH  23  25
ATOM     25  C   UNL     1       5.806   5.000  15.556  0.00  0.00    +0.000 C 
ATOM     26  C   UNL     1       7.323   4.962  15.802  0.00  0.00    +0.000 C 
ATOM     27  C   UNL     1       5.508   4.174  14.290  0.00  0.00    +0.000 C 
ATOM     28  C   UNL     1       5.356   6.447  15.287  0.00  0.00    +0.000 C 
ENDBRANCH  23  25
ENDBRANCH   8  21
TORSDOF 4
ENDMDL
