MODEL 1
REMARK VINA RESULT:      -7.8      0.000      0.000
REMARK  Name = 
REMARK  6 active torsions:
REMARK  status: ('A' for Active; 'I' for Inactive)
REMARK    1  A    between atoms: C_1  and  N_2
REMARK    2  A    between atoms: C_5  and  O_6
REMARK    3  A    between atoms: C_5  and  C_7
REMARK    4  A    between atoms: C_7  and  C_8
REMARK    5  A    between atoms: C_8  and  C_10
REMARK    6  A    between atoms: C_14  and  N_15
REMARK                            x       y       z     vdW  Elec       q    Type
REMARK                         _______ _______ _______ _____ _____    ______ ____
ROOT
ATOM      1  C   UNL     1      -0.503   9.719  20.981  0.00  0.00    +0.000 C 
ENDROOT
BRANCH   1   6
ATOM      2  C   UNL     1      -3.759  13.206  20.577  0.00  0.00    +0.000 C 
ATOM      3  N   UNL     1      -2.676  12.352  20.176  0.00  0.00    +0.000 N 
ATOM      4  C   UNL     1      -1.578  12.028  20.976  0.00  0.00    +0.000 C 
ATOM      5  O   UNL     1      -1.296  12.481  22.080  0.00  0.00    +0.000 OA
ATOM      6  C   UNL     1      -0.712  11.011  20.183  0.00  0.00    +0.000 C 
ATOM      7  C   UNL     1      -1.475  10.875  18.897  0.00  0.00    +0.000 A 
ATOM      8  C   UNL     1      -1.198  10.100  17.782  0.00  0.00    +0.000 A 
ATOM      9  C   UNL     1      -2.117  10.109  16.729  0.00  0.00    +0.000 A 
ATOM     10  C   UNL     1      -3.287  10.886  16.804  0.00  0.00    +0.000 A 
ATOM     11  C   UNL     1      -3.551  11.676  17.926  0.00  0.00    +0.000 A 
ATOM     12  C   UNL     1      -2.630  11.660  18.958  0.00  0.00    +0.000 A 
BRANCH   6  13
ATOM     13  O   UNL     1       0.576  11.562  19.892  0.00  0.00    +0.000 OA
ATOM     14  H   UNL     1       0.676  11.521  18.922  0.00  0.00    +0.000 HD
ENDBRANCH   6  13
ENDBRANCH   1   6
BRANCH   1  15
ATOM     15  C   UNL     1       0.946   9.309  21.174  0.00  0.00    +0.000 C 
ATOM     16  O   UNL     1       1.672   9.791  22.037  0.00  0.00    +0.000 OA
BRANCH  15  17
ATOM     17  C   UNL     1       1.523   8.269  20.269  0.00  0.00    +0.000 A 
ATOM     18  C   UNL     1       1.828   8.638  18.952  0.00  0.00    +0.000 A 
ATOM     19  C   UNL     1       2.388   7.716  18.071  0.00  0.00    +0.000 A 
ATOM     20  C   UNL     1       2.657   6.417  18.500  0.00  0.00    +0.000 A 
ATOM     21  C   UNL     1       2.342   6.028  19.809  0.00  0.00    +0.000 A 
ATOM     22  C   UNL     1       1.769   6.958  20.693  0.00  0.00    +0.000 A 
BRANCH  21  23
ATOM     23  N   UNL     1       2.611   4.701  20.247  0.00  0.00    +0.000 N 
ATOM     24  C   UNL     1       2.031   4.060  21.325  0.00  0.00    +0.000 A 
ATOM     25  C   UNL     1       2.514   2.771  21.396  0.00  0.00    +0.000 A 
ATOM     26  C   UNL     1       3.451   2.617  20.355  0.00  0.00    +0.000 A 
ATOM     27  C   UNL     1       3.492   3.808  19.664  0.00  0.00    +0.000 A 
ENDBRANCH  21  23
ENDBRANCH  15  17
ENDBRANCH   1  15
TORSDOF 5
ENDMDL
MODEL 2
REMARK VINA RESULT:      -7.7      2.266      3.137
REMARK  Name = 
REMARK  6 active torsions:
REMARK  status: ('A' for Active; 'I' for Inactive)
REMARK    1  A    between atoms: C_1  and  N_2
REMARK    2  A    between atoms: C_5  and  O_6
REMARK    3  A    between atoms: C_5  and  C_7
REMARK    4  A    between atoms: C_7  and  C_8
REMARK    5  A    between atoms: C_8  and  C_10
REMARK    6  A    between atoms: C_14  and  N_15
REMARK                            x       y       z     vdW  Elec       q    Type
REMARK                         _______ _______ _______ _____ _____    ______ ____
ROOT
ATOM      1  C   UNL     1       1.054   9.351  19.454  0.00  0.00    +0.000 C 
ENDROOT
BRANCH   1   6
ATOM      2  C   UNL     1      -1.538  12.826  21.486  0.00  0.00    +0.000 C 
ATOM      3  N   UNL     1      -0.965  12.051  20.420  0.00  0.00    +0.000 N 
ATOM      4  C   UNL     1       0.364  11.626  20.370  0.00  0.00    +0.000 C 
ATOM      5  O   UNL     1       1.273  11.917  21.138  0.00  0.00    +0.000 OA
ATOM      6  C   UNL     1       0.519  10.743  19.101  0.00  0.00    +0.000 C 
ATOM      7  C   UNL     1      -0.862  10.787  18.510  0.00  0.00    +0.000 A 
ATOM      8  C   UNL     1      -1.351  10.184  17.362  0.00  0.00    +0.000 A 
ATOM      9  C   UNL     1      -2.709  10.336  17.067  0.00  0.00    +0.000 A 
ATOM     10  C   UNL     1      -3.548  11.082  17.914  0.00  0.00    +0.000 A 
ATOM     11  C   UNL     1      -3.043  11.699  19.061  0.00  0.00    +0.000 A 
ATOM     12  C   UNL     1      -1.696  11.543  19.337  0.00  0.00    +0.000 A 
BRANCH   6  13
ATOM     13  O   UNL     1       1.429  11.343  18.175  0.00  0.00    +0.000 OA
ATOM     14  H   UNL     1       1.472  10.743  17.407  0.00  0.00    +0.000 HD
ENDBRANCH   6  13
ENDBRANCH   1   6
BRANCH   1  15
ATOM     15  C   UNL     1       1.871   8.680  18.364  0.00  0.00    +0.000 C 
ATOM     16  O   UNL     1       1.989   9.139  17.233  0.00  0.00    +0.000 OA
BRANCH  15  17
ATOM     17  C   UNL     1       2.567   7.395  18.679  0.00  0.00    +0.000 A 
ATOM     18  C   UNL     1       2.168   6.694  19.825  0.00  0.00    +0.000 A 
ATOM     19  C   UNL     1       2.767   5.480  20.154  0.00  0.00    +0.000 A 
ATOM     20  C   UNL     1       3.765   4.951  19.337  0.00  0.00    +0.000 A 
ATOM     21  C   UNL     1       4.187   5.649  18.198  0.00  0.00    +0.000 A 
ATOM     22  C   UNL     1       3.588   6.877  17.872  0.00  0.00    +0.000 A 
BRANCH  21  23
ATOM     23  N   UNL     1       5.209   5.112  17.366  0.00  0.00    +0.000 N 
ATOM     24  C   UNL     1       6.564   5.098  17.638  0.00  0.00    +0.000 A 
ATOM     25  C   UNL     1       7.222   4.448  16.616  0.00  0.00    +0.000 A 
ATOM     26  C   UNL     1       6.253   4.082  15.660  0.00  0.00    +0.000 A 
ATOM     27  C   UNL     1       5.030   4.496  16.142  0.00  0.00    +0.000 A 
ENDBRANCH  21  23
ENDBRANCH  15  17
ENDBRANCH   1  15
TORSDOF 5
ENDMDL
MODEL 3
REMARK VINA RESULT:      -7.6      2.428      8.243
REMARK  Name = 
REMARK  6 active torsions:
REMARK  status: ('A' for Active; 'I' for Inactive)
REMARK    1  A    between atoms: C_1  and  N_2
REMARK    2  A    between atoms: C_5  and  O_6
REMARK    3  A    between atoms: C_5  and  C_7
REMARK    4  A    between atoms: C_7  and  C_8
REMARK    5  A    between atoms: C_8  and  C_10
REMARK    6  A    between atoms: C_14  and  N_15
REMARK                            x       y       z     vdW  Elec       q    Type
REMARK                         _______ _______ _______ _____ _____    ______ ____
ROOT
ATOM      1  C   UNL     1       1.802   7.063  17.829  0.00  0.00    +0.000 C 
ENDROOT
BRANCH   1   6
ATOM      2  C   UNL     1       4.987   3.718  16.570  0.00  0.00    +0.000 C 
ATOM      3  N   UNL     1       4.063   4.413  17.422  0.00  0.00    +0.000 N 
ATOM      4  C   UNL     1       3.999   5.801  17.562  0.00  0.00    +0.000 C 
ATOM      5  O   UNL     1       4.757   6.638  17.087  0.00  0.00    +0.000 OA
ATOM      6  C   UNL     1       2.802   6.116  18.501  0.00  0.00    +0.000 C 
ATOM      7  C   UNL     1       2.287   4.744  18.834  0.00  0.00    +0.000 A 
ATOM      8  C   UNL     1       1.222   4.371  19.638  0.00  0.00    +0.000 A 
ATOM      9  C   UNL     1       0.913   3.011  19.731  0.00  0.00    +0.000 A 
ATOM     10  C   UNL     1       1.667   2.054  19.029  0.00  0.00    +0.000 A 
ATOM     11  C   UNL     1       2.749   2.438  18.233  0.00  0.00    +0.000 A 
ATOM     12  C   UNL     1       3.045   3.787  18.154  0.00  0.00    +0.000 A 
BRANCH   6  13
ATOM     13  O   UNL     1       3.254   6.736  19.708  0.00  0.00    +0.000 OA
ATOM     14  H   UNL     1       2.977   6.150  20.436  0.00  0.00    +0.000 HD
ENDBRANCH   6  13
ENDBRANCH   1   6
BRANCH   1  15
ATOM     15  C   UNL     1       2.019   8.538  18.118  0.00  0.00    +0.000 C 
ATOM     16  O   UNL     1       3.100   9.100  17.973  0.00  0.00    +0.000 OA
BRANCH  15  17
ATOM     17  C   UNL     1       0.864   9.351  18.604  0.00  0.00    +0.000 A 
ATOM     18  C   UNL     1       0.907   9.835  19.919  0.00  0.00    +0.000 A 
ATOM     19  C   UNL     1      -0.133  10.616  20.418  0.00  0.00    +0.000 A 
ATOM     20  C   UNL     1      -1.223  10.928  19.607  0.00  0.00    +0.000 A 
ATOM     21  C   UNL     1      -1.288  10.437  18.296  0.00  0.00    +0.000 A 
ATOM     22  C   UNL     1      -0.242   9.642  17.797  0.00  0.00    +0.000 A 
BRANCH  21  23
ATOM     23  N   UNL     1      -2.402  10.750  17.468  0.00  0.00    +0.000 N 
ATOM     24  C   UNL     1      -2.553  10.415  16.136  0.00  0.00    +0.000 A 
ATOM     25  C   UNL     1      -3.785  10.850  15.698  0.00  0.00    +0.000 A 
ATOM     26  C   UNL     1      -4.404  11.512  16.778  0.00  0.00    +0.000 A 
ATOM     27  C   UNL     1      -3.541  11.435  17.850  0.00  0.00    +0.000 A 
ENDBRANCH  21  23
ENDBRANCH  15  17
ENDBRANCH   1  15
TORSDOF 5
ENDMDL
MODEL 4
REMARK VINA RESULT:      -7.5      3.842      8.739
REMARK  Name = 
REMARK  6 active torsions:
REMARK  status: ('A' for Active; 'I' for Inactive)
REMARK    1  A    between atoms: C_1  and  N_2
REMARK    2  A    between atoms: C_5  and  O_6
REMARK    3  A    between atoms: C_5  and  C_7
REMARK    4  A    between atoms: C_7  and  C_8
REMARK    5  A    between atoms: C_8  and  C_10
REMARK    6  A    between atoms: C_14  and  N_15
REMARK                            x       y       z     vdW  Elec       q    Type
REMARK                         _______ _______ _______ _____ _____    ______ ____
ROOT
ATOM      1  C   UNL     1       3.020   5.239  17.744  0.00  0.00    +0.000 C 
ENDROOT
BRANCH   1   6
ATOM      2  C   UNL     1       7.631   5.815  18.895  0.00  0.00    +0.000 C 
ATOM      3  N   UNL     1       6.490   5.226  18.251  0.00  0.00    +0.000 N 
ATOM      4  C   UNL     1       5.278   4.940  18.883  0.00  0.00    +0.000 C 
ATOM      5  O   UNL     1       5.015   5.035  20.077  0.00  0.00    +0.000 OA
ATOM      6  C   UNL     1       4.305   4.405  17.797  0.00  0.00    +0.000 C 
ATOM      7  C   UNL     1       5.158   4.433  16.561  0.00  0.00    +0.000 A 
ATOM      8  C   UNL     1       4.844   4.070  15.261  0.00  0.00    +0.000 A 
ATOM      9  C   UNL     1       5.815   4.254  14.273  0.00  0.00    +0.000 A 
ATOM     10  C   UNL     1       7.075   4.790  14.596  0.00  0.00    +0.000 A 
ATOM     11  C   UNL     1       7.389   5.139  15.912  0.00  0.00    +0.000 A 
ATOM     12  C   UNL     1       6.418   4.947  16.879  0.00  0.00    +0.000 A 
BRANCH   6  13
ATOM     13  O   UNL     1       3.939   3.049  18.067  0.00  0.00    +0.000 OA
ATOM     14  H   UNL     1       4.723   2.509  17.856  0.00  0.00    +0.000 HD
ENDBRANCH   6  13
ENDBRANCH   1   6
BRANCH   1  15
ATOM     15  C   UNL     1       3.226   6.743  17.785  0.00  0.00    +0.000 C 
ATOM     16  O   UNL     1       4.040   7.330  17.079  0.00  0.00    +0.000 OA
BRANCH  15  17
ATOM     17  C   UNL     1       2.402   7.554  18.731  0.00  0.00    +0.000 A 
ATOM     18  C   UNL     1       2.153   7.027  20.005  0.00  0.00    +0.000 A 
ATOM     19  C   UNL     1       1.409   7.749  20.936  0.00  0.00    +0.000 A 
ATOM     20  C   UNL     1       0.913   9.009  20.605  0.00  0.00    +0.000 A 
ATOM     21  C   UNL     1       1.138   9.542  19.329  0.00  0.00    +0.000 A 
ATOM     22  C   UNL     1       1.882   8.808  18.389  0.00  0.00    +0.000 A 
BRANCH  21  23
ATOM     23  N   UNL     1       0.628  10.826  18.988  0.00  0.00    +0.000 N 
ATOM     24  C   UNL     1       1.353  11.999  18.902  0.00  0.00    +0.000 A 
ATOM     25  C   UNL     1       0.517  13.017  18.496  0.00  0.00    +0.000 A 
ATOM     26  C   UNL     1      -0.775  12.470  18.364  0.00  0.00    +0.000 A 
ATOM     27  C   UNL     1      -0.682  11.129  18.666  0.00  0.00    +0.000 A 
ENDBRANCH  21  23
ENDBRANCH  15  17
ENDBRANCH   1  15
TORSDOF 5
ENDMDL
MODEL 5
REMARK VINA RESULT:      -7.5      1.385      2.159
REMARK  Name = 
REMARK  6 active torsions:
REMARK  status: ('A' for Active; 'I' for Inactive)
REMARK    1  A    between atoms: C_1  and  N_2
REMARK    2  A    between atoms: C_5  and  O_6
REMARK    3  A    between atoms: C_5  and  C_7
REMARK    4  A    between atoms: C_7  and  C_8
REMARK    5  A    between atoms: C_8  and  C_10
REMARK    6  A    between atoms: C_14  and  N_15
REMARK                            x       y       z     vdW  Elec       q    Type
REMARK                         _______ _______ _______ _____ _____    ______ ____
ROOT
ATOM      1  C   UNL     1       1.174   9.272  19.297  0.00  0.00    +0.000 C 
ENDROOT
BRANCH   1   6
ATOM      2  C   UNL     1      -1.628  12.301  21.725  0.00  0.00    +0.000 C 
ATOM      3  N   UNL     1      -0.998  11.710  20.577  0.00  0.00    +0.000 N 
ATOM      4  C   UNL     1       0.352  11.360  20.502  0.00  0.00    +0.000 C 
ATOM      5  O   UNL     1       1.231  11.585  21.325  0.00  0.00    +0.000 OA
ATOM      6  C   UNL     1       0.575  10.672  19.126  0.00  0.00    +0.000 C 
ATOM      7  C   UNL     1      -0.795  10.732  18.513  0.00  0.00    +0.000 A 
ATOM      8  C   UNL     1      -1.233  10.273  17.281  0.00  0.00    +0.000 A 
ATOM      9  C   UNL     1      -2.591  10.399  16.977  0.00  0.00    +0.000 A 
ATOM     10  C   UNL     1      -3.482  10.978  17.897  0.00  0.00    +0.000 A 
ATOM     11  C   UNL     1      -3.030  11.452  19.131  0.00  0.00    +0.000 A 
ATOM     12  C   UNL     1      -1.682  11.324  19.416  0.00  0.00    +0.000 A 
BRANCH   6  13
ATOM     13  O   UNL     1       1.469  11.439  18.315  0.00  0.00    +0.000 OA
ATOM     14  H   UNL     1       1.850  10.817  17.668  0.00  0.00    +0.000 HD
ENDBRANCH   6  13
ENDBRANCH   1   6
BRANCH   1  15
ATOM     15  C   UNL     1       2.032   8.793  18.138  0.00  0.00    +0.000 C 
ATOM     16  O   UNL     1       2.189   9.438  17.107  0.00  0.00    +0.000 OA
BRANCH  15  17
ATOM     17  C   UNL     1       2.719   7.472  18.254  0.00  0.00    +0.000 A 
ATOM     18  C   UNL     1       3.863   7.255  17.475  0.00  0.00    +0.000 A 
ATOM     19  C   UNL     1       4.557   6.049  17.559  0.00  0.00    +0.000 A 
ATOM     20  C   UNL     1       4.118   5.051  18.427  0.00  0.00    +0.000 A 
ATOM     21  C   UNL     1       2.965   5.247  19.199  0.00  0.00    +0.000 A 
ATOM     22  C   UNL     1       2.262   6.460  19.107  0.00  0.00    +0.000 A 
BRANCH  21  23
ATOM     23  N   UNL     1       2.512   4.227  20.083  0.00  0.00    +0.000 N 
ATOM     24  C   UNL     1       3.278   3.212  20.623  0.00  0.00    +0.000 A 
ATOM     25  C   UNL     1       2.494   2.457  21.469  0.00  0.00    +0.000 A 
ATOM     26  C   UNL     1       1.192   2.994  21.424  0.00  0.00    +0.000 A 
ATOM     27  C   UNL     1       1.228   4.077  20.572  0.00  0.00    +0.000 A 
ENDBRANCH  21  23
ENDBRANCH  15  17
ENDBRANCH   1  15
TORSDOF 5
ENDMDL
MODEL 6
REMARK VINA RESULT:      -7.5      3.969      8.371
REMARK  Name = 
REMARK  6 active torsions:
REMARK  status: ('A' for Active; 'I' for Inactive)
REMARK    1  A    between atoms: C_1  and  N_2
REMARK    2  A    between atoms: C_5  and  O_6
REMARK    3  A    between atoms: C_5  and  C_7
REMARK    4  A    between atoms: C_7  and  C_8
REMARK    5  A    between atoms: C_8  and  C_10
REMARK    6  A    between atoms: C_14  and  N_15
REMARK                            x       y       z     vdW  Elec       q    Type
REMARK                         _______ _______ _______ _____ _____    ______ ____
ROOT
ATOM      1  C   UNL     1       3.356   4.933  17.736  0.00  0.00    +0.000 C 
ENDROOT
BRANCH   1   6
ATOM      2  C   UNL     1       7.729   6.871  17.936  0.00  0.00    +0.000 C 
ATOM      3  N   UNL     1       6.730   5.885  17.632  0.00  0.00    +0.000 N 
ATOM      4  C   UNL     1       5.722   5.476  18.507  0.00  0.00    +0.000 C 
ATOM      5  O   UNL     1       5.579   5.790  19.683  0.00  0.00    +0.000 OA
ATOM      6  C   UNL     1       4.818   4.474  17.736  0.00  0.00    +0.000 C 
ATOM      7  C   UNL     1       5.488   4.407  16.393  0.00  0.00    +0.000 A 
ATOM      8  C   UNL     1       5.142   3.675  15.269  0.00  0.00    +0.000 A 
ATOM      9  C   UNL     1       5.908   3.844  14.112  0.00  0.00    +0.000 A 
ATOM     10  C   UNL     1       6.999   4.732  14.097  0.00  0.00    +0.000 A 
ATOM     11  C   UNL     1       7.350   5.454  15.240  0.00  0.00    +0.000 A 
ATOM     12  C   UNL     1       6.585   5.273  16.379  0.00  0.00    +0.000 A 
BRANCH   6  13
ATOM     13  O   UNL     1       4.873   3.177  18.337  0.00  0.00    +0.000 OA
ATOM     14  H   UNL     1       5.478   2.647  17.785  0.00  0.00    +0.000 HD
ENDBRANCH   6  13
ENDBRANCH   1   6
BRANCH   1  15
ATOM     15  C   UNL     1       2.867   5.525  19.047  0.00  0.00    +0.000 C 
ATOM     16  O   UNL     1       2.841   4.898  20.100  0.00  0.00    +0.000 OA
BRANCH  15  17
ATOM     17  C   UNL     1       2.391   6.941  19.059  0.00  0.00    +0.000 A 
ATOM     18  C   UNL     1       2.617   7.722  17.917  0.00  0.00    +0.000 A 
ATOM     19  C   UNL     1       2.175   9.042  17.866  0.00  0.00    +0.000 A 
ATOM     20  C   UNL     1       1.496   9.593  18.951  0.00  0.00    +0.000 A 
ATOM     21  C   UNL     1       1.279   8.831  20.107  0.00  0.00    +0.000 A 
ATOM     22  C   UNL     1       1.732   7.502  20.160  0.00  0.00    +0.000 A 
BRANCH  21  23
ATOM     23  N   UNL     1       0.590   9.393  21.218  0.00  0.00    +0.000 N 
ATOM     24  C   UNL     1      -0.395  10.361  21.167  0.00  0.00    +0.000 A 
ATOM     25  C   UNL     1      -0.852  10.608  22.444  0.00  0.00    +0.000 A 
ATOM     26  C   UNL     1      -0.101   9.798  23.320  0.00  0.00    +0.000 A 
ATOM     27  C   UNL     1       0.771   9.063  22.548  0.00  0.00    +0.000 A 
ENDBRANCH  21  23
ENDBRANCH  15  17
ENDBRANCH   1  15
TORSDOF 5
ENDMDL
MODEL 7
REMARK VINA RESULT:      -7.3      1.627      2.644
REMARK  Name = 
REMARK  6 active torsions:
REMARK  status: ('A' for Active; 'I' for Inactive)
REMARK    1  A    between atoms: C_1  and  N_2
REMARK    2  A    between atoms: C_5  and  O_6
REMARK    3  A    between atoms: C_5  and  C_7
REMARK    4  A    between atoms: C_7  and  C_8
REMARK    5  A    between atoms: C_8  and  C_10
REMARK    6  A    between atoms: C_14  and  N_15
REMARK                            x       y       z     vdW  Elec       q    Type
REMARK                         _______ _______ _______ _____ _____    ______ ____
ROOT
ATOM      1  C   UNL     1      -0.155   8.857  20.695  0.00  0.00    +0.000 C 
ENDROOT
BRANCH   1   6
ATOM      2  C   UNL     1      -2.469  13.027  21.119  0.00  0.00    +0.000 C 
ATOM      3  N   UNL     1      -1.693  12.001  20.478  0.00  0.00    +0.000 N 
ATOM      4  C   UNL     1      -0.616  11.335  21.065  0.00  0.00    +0.000 C 
ATOM      5  O   UNL     1      -0.088  11.569  22.146  0.00  0.00    +0.000 OA
ATOM      6  C   UNL     1      -0.139  10.251  20.058  0.00  0.00    +0.000 C 
ATOM      7  C   UNL     1      -1.074  10.456  18.900  0.00  0.00    +0.000 A 
ATOM      8  C   UNL     1      -1.145   9.783  17.692  0.00  0.00    +0.000 A 
ATOM      9  C   UNL     1      -2.163  10.135  16.801  0.00  0.00    +0.000 A 
ATOM     10  C   UNL     1      -3.084  11.147  17.127  0.00  0.00    +0.000 A 
ATOM     11  C   UNL     1      -2.995  11.832  18.342  0.00  0.00    +0.000 A 
ATOM     12  C   UNL     1      -1.980  11.474  19.211  0.00  0.00    +0.000 A 
BRANCH   6  13
ATOM     13  O   UNL     1       1.195  10.519  19.619  0.00  0.00    +0.000 OA
ATOM     14  H   UNL     1       1.199  11.443  19.308  0.00  0.00    +0.000 HD
ENDBRANCH   6  13
ENDBRANCH   1   6
BRANCH   1  15
ATOM     15  C   UNL     1       1.205   8.323  21.110  0.00  0.00    +0.000 C 
ATOM     16  O   UNL     1       1.921   8.876  21.939  0.00  0.00    +0.000 OA
BRANCH  15  17
ATOM     17  C   UNL     1       1.703   7.064  20.480  0.00  0.00    +0.000 A 
ATOM     18  C   UNL     1       1.253   5.843  21.001  0.00  0.00    +0.000 A 
ATOM     19  C   UNL     1       1.668   4.639  20.439  0.00  0.00    +0.000 A 
ATOM     20  C   UNL     1       2.531   4.641  19.343  0.00  0.00    +0.000 A 
ATOM     21  C   UNL     1       3.003   5.852  18.822  0.00  0.00    +0.000 A 
ATOM     22  C   UNL     1       2.590   7.066  19.396  0.00  0.00    +0.000 A 
BRANCH  21  23
ATOM     23  N   UNL     1       3.888   5.856  17.707  0.00  0.00    +0.000 N 
ATOM     24  C   UNL     1       4.360   4.747  17.032  0.00  0.00    +0.000 A 
ATOM     25  C   UNL     1       5.151   5.162  15.981  0.00  0.00    +0.000 A 
ATOM     26  C   UNL     1       5.204   6.569  16.027  0.00  0.00    +0.000 A 
ATOM     27  C   UNL     1       4.422   6.971  17.088  0.00  0.00    +0.000 A 
ENDBRANCH  21  23
ENDBRANCH  15  17
ENDBRANCH   1  15
TORSDOF 5
ENDMDL
MODEL 8
REMARK VINA RESULT:      -7.3      3.040      8.030
REMARK  Name = 
REMARK  6 active torsions:
REMARK  status: ('A' for Active; 'I' for Inactive)
REMARK    1  A    between atoms: C_1  and  N_2
REMARK    2  A    between atoms: C_5  and  O_6
REMARK    3  A    between atoms: C_5  and  C_7
REMARK    4  A    between atoms: C_7  and  C_8
REMARK    5  A    between atoms: C_8  and  C_10
REMARK    6  A    between atoms: C_14  and  N_15
REMARK                            x       y       z     vdW  Elec       q    Type
REMARK                         _______ _______ _______ _____ _____    ______ ____
ROOT
ATOM      1  C   UNL     1       1.509   5.277  20.756  0.00  0.00    +0.000 C 
ENDROOT
BRANCH   1   6
ATOM      2  C   UNL     1       4.700   1.708  20.774  0.00  0.00    +0.000 C 
ATOM      3  N   UNL     1       3.570   2.473  20.324  0.00  0.00    +0.000 N 
ATOM      4  C   UNL     1       2.584   3.003  21.158  0.00  0.00    +0.000 C 
ATOM      5  O   UNL     1       2.449   2.828  22.364  0.00  0.00    +0.000 OA
ATOM      6  C   UNL     1       1.618   3.830  20.265  0.00  0.00    +0.000 C 
ATOM      7  C   UNL     1       2.208   3.643  18.896  0.00  0.00    +0.000 A 
ATOM      8  C   UNL     1       1.786   4.143  17.675  0.00  0.00    +0.000 A 
ATOM      9  C   UNL     1       2.562   3.865  16.546  0.00  0.00    +0.000 A 
ATOM     10  C   UNL     1       3.735   3.096  16.653  0.00  0.00    +0.000 A 
ATOM     11  C   UNL     1       4.145   2.582  17.886  0.00  0.00    +0.000 A 
ATOM     12  C   UNL     1       3.365   2.863  18.993  0.00  0.00    +0.000 A 
BRANCH   6  13
ATOM     13  O   UNL     1       0.306   3.261  20.276  0.00  0.00    +0.000 OA
ATOM     14  H   UNL     1       0.421   2.316  20.490  0.00  0.00    +0.000 HD
ENDBRANCH   6  13
ENDBRANCH   1   6
BRANCH   1  15
ATOM     15  C   UNL     1       2.481   6.251  20.112  0.00  0.00    +0.000 C 
ATOM     16  O   UNL     1       3.666   5.995  19.927  0.00  0.00    +0.000 OA
BRANCH  15  17
ATOM     17  C   UNL     1       1.974   7.589  19.682  0.00  0.00    +0.000 A 
ATOM     18  C   UNL     1       2.260   8.014  18.377  0.00  0.00    +0.000 A 
ATOM     19  C   UNL     1       1.794   9.243  17.916  0.00  0.00    +0.000 A 
ATOM     20  C   UNL     1       1.032  10.058  18.751  0.00  0.00    +0.000 A 
ATOM     21  C   UNL     1       0.753   9.655  20.064  0.00  0.00    +0.000 A 
ATOM     22  C   UNL     1       1.231   8.419  20.530  0.00  0.00    +0.000 A 
BRANCH  21  23
ATOM     23  N   UNL     1      -0.022  10.488  20.920  0.00  0.00    +0.000 N 
ATOM     24  C   UNL     1      -0.210  10.318  22.278  0.00  0.00    +0.000 A 
ATOM     25  C   UNL     1      -0.979  11.355  22.760  0.00  0.00    +0.000 A 
ATOM     26  C   UNL     1      -1.313  12.174  21.663  0.00  0.00    +0.000 A 
ATOM     27  C   UNL     1      -0.713  11.626  20.550  0.00  0.00    +0.000 A 
ENDBRANCH  21  23
ENDBRANCH  15  17
ENDBRANCH   1  15
TORSDOF 5
ENDMDL
MODEL 9
REMARK VINA RESULT:      -7.3      2.354      8.212
REMARK  Name = 
REMARK  6 active torsions:
REMARK  status: ('A' for Active; 'I' for Inactive)
REMARK    1  A    between atoms: C_1  and  N_2
REMARK    2  A    between atoms: C_5  and  O_6
REMARK    3  A    between atoms: C_5  and  C_7
REMARK    4  A    between atoms: C_7  and  C_8
REMARK    5  A    between atoms: C_8  and  C_10
REMARK    6  A    between atoms: C_14  and  N_15
REMARK                            x       y       z     vdW  Elec       q    Type
REMARK                         _______ _______ _______ _____ _____    ______ ____
ROOT
ATOM      1  C   UNL     1       2.340   7.526  19.382  0.00  0.00    +0.000 C 
ENDROOT
BRANCH   1   6
ATOM      2  C   UNL     1       3.432   3.039  20.644  0.00  0.00    +0.000 C 
ATOM      3  N   UNL     1       3.315   4.180  19.781  0.00  0.00    +0.000 N 
ATOM      4  C   UNL     1       2.189   5.002  19.696  0.00  0.00    +0.000 C 
ATOM      5  O   UNL     1       1.102   4.843  20.239  0.00  0.00    +0.000 OA
ATOM      6  C   UNL     1       2.534   6.159  18.717  0.00  0.00    +0.000 C 
ATOM      7  C   UNL     1       3.939   5.821  18.304  0.00  0.00    +0.000 A 
ATOM      8  C   UNL     1       4.790   6.487  17.438  0.00  0.00    +0.000 A 
ATOM      9  C   UNL     1       6.085   5.988  17.275  0.00  0.00    +0.000 A 
ATOM     10  C   UNL     1       6.505   4.840  17.970  0.00  0.00    +0.000 A 
ATOM     11  C   UNL     1       5.635   4.165  18.829  0.00  0.00    +0.000 A 
ATOM     12  C   UNL     1       4.355   4.669  18.978  0.00  0.00    +0.000 A 
BRANCH   6  13
ATOM     13  O   UNL     1       1.696   6.109  17.559  0.00  0.00    +0.000 OA
ATOM     14  H   UNL     1       0.797   5.915  17.882  0.00  0.00    +0.000 HD
ENDBRANCH   6  13
ENDBRANCH   1   6
BRANCH   1  15
ATOM     15  C   UNL     1       1.915   8.643  18.445  0.00  0.00    +0.000 C 
ATOM     16  O   UNL     1       2.472   8.872  17.376  0.00  0.00    +0.000 OA
BRANCH  15  17
ATOM     17  C   UNL     1       0.765   9.511  18.840  0.00  0.00    +0.000 A 
ATOM     18  C   UNL     1       0.802  10.120  20.102  0.00  0.00    +0.000 A 
ATOM     19  C   UNL     1      -0.232  10.956  20.513  0.00  0.00    +0.000 A 
ATOM     20  C   UNL     1      -1.312  11.200  19.665  0.00  0.00    +0.000 A 
ATOM     21  C   UNL     1      -1.372  10.584  18.408  0.00  0.00    +0.000 A 
ATOM     22  C   UNL     1      -0.331   9.734  17.998  0.00  0.00    +0.000 A 
BRANCH  21  23
ATOM     23  N   UNL     1      -2.475  10.828  17.542  0.00  0.00    +0.000 N 
ATOM     24  C   UNL     1      -3.664  11.443  17.884  0.00  0.00    +0.000 A 
ATOM     25  C   UNL     1      -4.460  11.539  16.763  0.00  0.00    +0.000 A 
ATOM     26  C   UNL     1      -3.763  10.930  15.700  0.00  0.00    +0.000 A 
ATOM     27  C   UNL     1      -2.551  10.506  16.200  0.00  0.00    +0.000 A 
ENDBRANCH  21  23
ENDBRANCH  15  17
ENDBRANCH   1  15
TORSDOF 5
ENDMDL
