MODEL 1
REMARK VINA RESULT:      -7.9      0.000      0.000
REMARK  Name = 
REMARK  6 active torsions:
REMARK  status: ('A' for Active; 'I' for Inactive)
REMARK    1  A    between atoms: C_2  and  C_3
REMARK    2  A    between atoms: C_8  and  C_9
REMARK    3  A    between atoms: C_9  and  O_10
REMARK    4  A    between atoms: O_10  and  C_11
REMARK    5  A    between atoms: C_19  and  O_21
REMARK    6  A    between atoms: O_21  and  C_22
REMARK                            x       y       z     vdW  Elec       q    Type
REMARK                         _______ _______ _______ _____ _____    ______ ____
ROOT
ATOM      1  C   UNL     1      -0.157  11.027  20.868  0.00  0.00    +0.000 A 
ATOM      2  C   UNL     1      -0.148   9.982  21.760  0.00  0.00    +0.000 A 
ATOM      3  N   UNL     1       0.448   8.790  21.520  0.00  0.00    +0.000 NA
ATOM      4  C   UNL     1       1.066   8.627  20.338  0.00  0.00    +0.000 A 
ATOM      5  N   UNL     1       1.705   7.453  20.052  0.00  0.00    +0.000 N 
ATOM      6  C   UNL     1       1.820   6.374  21.032  0.00  0.00    +0.000 C 
ATOM      7  C   UNL     1       1.528   5.032  20.328  0.00  0.00    +0.000 C 
ATOM      8  N   UNL     1       2.331   4.875  19.109  0.00  0.00    +0.000 N 
ATOM      9  C   UNL     1       3.302   3.899  19.036  0.00  0.00    +0.000 C 
ATOM     10  O   UNL     1       3.588   3.154  19.963  0.00  0.00    +0.000 OA
ATOM     11  C   UNL     1       2.215   5.984  18.154  0.00  0.00    +0.000 C 
ATOM     12  C   UNL     1       2.524   7.329  18.843  0.00  0.00    +0.000 C 
ATOM     13  N   UNL     1       1.055   9.576  19.390  0.00  0.00    +0.000 NA
ATOM     14  C   UNL     1       0.440  10.739  19.666  0.00  0.00    +0.000 A 
ENDROOT
BRANCH   1  15
ATOM     15  O   UNL     1      -0.722  12.213  21.224  0.00  0.00    +0.000 OA
BRANCH  15  16
ATOM     16  C   UNL     1      -2.011  12.070  21.827  0.00  0.00    +0.000 C 
BRANCH  16  22
ATOM     17  C   UNL     1      -3.530  13.529  23.266  0.00  0.00    +0.000 A 
ATOM     18  C   UNL     1      -3.639  14.515  24.239  0.00  0.00    +0.000 A 
ATOM     19  N   UNL     1      -2.582  15.151  24.799  0.00  0.00    +0.000 NA
ATOM     20  C   UNL     1      -1.356  14.791  24.367  0.00  0.00    +0.000 A 
ATOM     21  C   UNL     1      -1.138  13.821  23.402  0.00  0.00    +0.000 A 
ATOM     22  C   UNL     1      -2.241  13.171  22.832  0.00  0.00    +0.000 A 
BRANCH  17  24
ATOM     23  N   UNL     1      -5.685  12.411  22.353  0.00  0.00    +0.000 NA
ATOM     24  C   UNL     1      -4.720  12.910  22.768  0.00  0.00    +0.000 C 
ENDBRANCH  17  24
ENDBRANCH  16  22
ENDBRANCH  15  16
ENDBRANCH   1  15
BRANCH   9  25
ATOM     25  O   UNL     1       3.911   3.867  17.824  0.00  0.00    +0.000 OA
BRANCH  25  26
ATOM     26  C   UNL     1       5.350   4.012  17.746  0.00  0.00    +0.000 C 
ATOM     27  C   UNL     1       6.033   4.198  16.380  0.00  0.00    +0.000 C 
ATOM     28  C   UNL     1       7.140   4.984  17.117  0.00  0.00    +0.000 C 
ATOM     29  F   UNL     1       7.649   6.044  16.447  0.00  0.00    +0.000 F 
ATOM     30  F   UNL     1       8.201   4.227  17.498  0.00  0.00    +0.000 F 
ATOM     31  C   UNL     1       6.090   5.288  18.245  0.00  0.00    +0.000 C 
ATOM     32  F   UNL     1       5.454   6.479  18.155  0.00  0.00    +0.000 F 
ATOM     33  F   UNL     1       6.556   5.214  19.517  0.00  0.00    +0.000 F 
ENDBRANCH  25  26
ENDBRANCH   9  25
TORSDOF 6
ENDMDL
MODEL 2
REMARK VINA RESULT:      -7.9      0.970      1.324
REMARK  Name = 
REMARK  6 active torsions:
REMARK  status: ('A' for Active; 'I' for Inactive)
REMARK    1  A    between atoms: C_2  and  C_3
REMARK    2  A    between atoms: C_8  and  C_9
REMARK    3  A    between atoms: C_9  and  O_10
REMARK    4  A    between atoms: O_10  and  C_11
REMARK    5  A    between atoms: C_19  and  O_21
REMARK    6  A    between atoms: O_21  and  C_22
REMARK                            x       y       z     vdW  Elec       q    Type
REMARK                         _______ _______ _______ _____ _____    ______ ____
ROOT
ATOM      1  C   UNL     1      -0.086  10.759  21.552  0.00  0.00    +0.000 A 
ATOM      2  C   UNL     1      -0.105   9.606  22.299  0.00  0.00    +0.000 A 
ATOM      3  N   UNL     1       0.466   8.442  21.908  0.00  0.00    +0.000 NA
ATOM      4  C   UNL     1       1.088   8.421  20.717  0.00  0.00    +0.000 A 
ATOM      5  N   UNL     1       1.703   7.281  20.282  0.00  0.00    +0.000 N 
ATOM      6  C   UNL     1       1.787   6.080  21.112  0.00  0.00    +0.000 C 
ATOM      7  C   UNL     1       1.472   4.850  20.237  0.00  0.00    +0.000 C 
ATOM      8  N   UNL     1       2.279   4.835  19.011  0.00  0.00    +0.000 N 
ATOM      9  C   UNL     1       3.228   3.855  18.815  0.00  0.00    +0.000 C 
ATOM     10  O   UNL     1       3.492   2.989  19.637  0.00  0.00    +0.000 OA
ATOM     11  C   UNL     1       2.194   6.062  18.210  0.00  0.00    +0.000 C 
ATOM     12  C   UNL     1       2.527   7.298  19.070  0.00  0.00    +0.000 C 
ATOM     13  N   UNL     1       1.104   9.487  19.902  0.00  0.00    +0.000 NA
ATOM     14  C   UNL     1       0.513  10.617  20.325  0.00  0.00    +0.000 A 
ENDROOT
BRANCH   1  15
ATOM     15  O   UNL     1      -0.628  11.900  22.059  0.00  0.00    +0.000 OA
BRANCH  15  16
ATOM     16  C   UNL     1      -1.680  12.437  21.253  0.00  0.00    +0.000 C 
BRANCH  16  22
ATOM     17  C   UNL     1      -4.184  12.784  21.590  0.00  0.00    +0.000 A 
ATOM     18  C   UNL     1      -5.230  13.035  22.468  0.00  0.00    +0.000 A 
ATOM     19  N   UNL     1      -5.073  13.257  23.795  0.00  0.00    +0.000 NA
ATOM     20  C   UNL     1      -3.811  13.231  24.271  0.00  0.00    +0.000 A 
ATOM     21  C   UNL     1      -2.699  12.990  23.481  0.00  0.00    +0.000 A 
ATOM     22  C   UNL     1      -2.878  12.762  22.109  0.00  0.00    +0.000 A 
BRANCH  17  24
ATOM     23  N   UNL     1      -4.721  12.350  19.089  0.00  0.00    +0.000 NA
ATOM     24  C   UNL     1      -4.478  12.539  20.211  0.00  0.00    +0.000 C 
ENDBRANCH  17  24
ENDBRANCH  16  22
ENDBRANCH  15  16
ENDBRANCH   1  15
BRANCH   9  25
ATOM     25  O   UNL     1       3.846   3.969  17.611  0.00  0.00    +0.000 OA
BRANCH  25  26
ATOM     26  C   UNL     1       5.288   4.080  17.558  0.00  0.00    +0.000 C 
ATOM     27  C   UNL     1       6.000   4.231  16.203  0.00  0.00    +0.000 C 
ATOM     28  C   UNL     1       7.111   5.003  16.949  0.00  0.00    +0.000 C 
ATOM     29  F   UNL     1       7.656   6.041  16.274  0.00  0.00    +0.000 F 
ATOM     30  F   UNL     1       8.147   4.229  17.360  0.00  0.00    +0.000 F 
ATOM     31  C   UNL     1       6.047   5.347  18.052  0.00  0.00    +0.000 C 
ATOM     32  F   UNL     1       5.440   6.550  17.933  0.00  0.00    +0.000 F 
ATOM     33  F   UNL     1       6.489   5.282  19.334  0.00  0.00    +0.000 F 
ENDBRANCH  25  26
ENDBRANCH   9  25
TORSDOF 6
ENDMDL
MODEL 3
REMARK VINA RESULT:      -7.8      1.437      1.952
REMARK  Name = 
REMARK  6 active torsions:
REMARK  status: ('A' for Active; 'I' for Inactive)
REMARK    1  A    between atoms: C_2  and  C_3
REMARK    2  A    between atoms: C_8  and  C_9
REMARK    3  A    between atoms: C_9  and  O_10
REMARK    4  A    between atoms: O_10  and  C_11
REMARK    5  A    between atoms: C_19  and  O_21
REMARK    6  A    between atoms: O_21  and  C_22
REMARK                            x       y       z     vdW  Elec       q    Type
REMARK                         _______ _______ _______ _____ _____    ______ ____
ROOT
ATOM      1  C   UNL     1      -0.099  11.580  20.202  0.00  0.00    +0.000 A 
ATOM      2  C   UNL     1      -0.022  10.676  21.234  0.00  0.00    +0.000 A 
ATOM      3  N   UNL     1       0.568   9.461  21.131  0.00  0.00    +0.000 NA
ATOM      4  C   UNL     1       1.110   9.128  19.948  0.00  0.00    +0.000 A 
ATOM      5  N   UNL     1       1.739   7.925  19.793  0.00  0.00    +0.000 N 
ATOM      6  C   UNL     1       1.927   6.999  20.910  0.00  0.00    +0.000 C 
ATOM      7  C   UNL     1       1.603   5.570  20.429  0.00  0.00    +0.000 C 
ATOM      8  N   UNL     1       2.326   5.237  19.195  0.00  0.00    +0.000 N 
ATOM      9  C   UNL     1       3.299   4.260  19.201  0.00  0.00    +0.000 C 
ATOM     10  O   UNL     1       3.651   3.658  20.206  0.00  0.00    +0.000 OA
ATOM     11  C   UNL     1       2.138   6.195  18.100  0.00  0.00    +0.000 C 
ATOM     12  C   UNL     1       2.479   7.626  18.564  0.00  0.00    +0.000 C 
ATOM     13  N   UNL     1       1.028   9.929  18.875  0.00  0.00    +0.000 NA
ATOM     14  C   UNL     1       0.422  11.120  19.019  0.00  0.00    +0.000 A 
ENDROOT
BRANCH   1  15
ATOM     15  O   UNL     1      -0.651  12.805  20.419  0.00  0.00    +0.000 OA
BRANCH  15  16
ATOM     16  C   UNL     1      -1.848  13.031  19.672  0.00  0.00    +0.000 C 
BRANCH  16  22
ATOM     17  C   UNL     1      -4.307  12.506  20.098  0.00  0.00    +0.000 A 
ATOM     18  C   UNL     1      -5.343  12.384  21.015  0.00  0.00    +0.000 A 
ATOM     19  N   UNL     1      -5.221  12.642  22.339  0.00  0.00    +0.000 NA
ATOM     20  C   UNL     1      -4.009  13.044  22.772  0.00  0.00    +0.000 A 
ATOM     21  C   UNL     1      -2.911  13.197  21.941  0.00  0.00    +0.000 A 
ATOM     22  C   UNL     1      -3.053  12.927  20.573  0.00  0.00    +0.000 A 
BRANCH  17  24
ATOM     23  N   UNL     1      -4.740  11.914  17.610  0.00  0.00    +0.000 NA
ATOM     24  C   UNL     1      -4.552  12.180  18.726  0.00  0.00    +0.000 C 
ENDBRANCH  17  24
ENDBRANCH  16  22
ENDBRANCH  15  16
ENDBRANCH   1  15
BRANCH   9  25
ATOM     25  O   UNL     1       3.829   4.052  17.969  0.00  0.00    +0.000 OA
BRANCH  25  26
ATOM     26  C   UNL     1       5.263   4.135  17.788  0.00  0.00    +0.000 C 
ATOM     27  C   UNL     1       5.855   4.248  16.372  0.00  0.00    +0.000 C 
ATOM     28  C   UNL     1       7.041   5.013  17.003  0.00  0.00    +0.000 C 
ATOM     29  F   UNL     1       7.542   6.027  16.262  0.00  0.00    +0.000 F 
ATOM     30  F   UNL     1       8.095   4.226  17.337  0.00  0.00    +0.000 F 
ATOM     31  C   UNL     1       6.084   5.396  18.188  0.00  0.00    +0.000 C 
ATOM     32  F   UNL     1       5.490   6.608  18.099  0.00  0.00    +0.000 F 
ATOM     33  F   UNL     1       6.636   5.346  19.428  0.00  0.00    +0.000 F 
ENDBRANCH  25  26
ENDBRANCH   9  25
TORSDOF 6
ENDMDL
MODEL 4
REMARK VINA RESULT:      -7.7      5.122     11.276
REMARK  Name = 
REMARK  6 active torsions:
REMARK  status: ('A' for Active; 'I' for Inactive)
REMARK    1  A    between atoms: C_2  and  C_3
REMARK    2  A    between atoms: C_8  and  C_9
REMARK    3  A    between atoms: C_9  and  O_10
REMARK    4  A    between atoms: O_10  and  C_11
REMARK    5  A    between atoms: C_19  and  O_21
REMARK    6  A    between atoms: O_21  and  C_22
REMARK                            x       y       z     vdW  Elec       q    Type
REMARK                         _______ _______ _______ _____ _____    ______ ____
ROOT
ATOM      1  C   UNL     1       2.825   4.870  18.898  0.00  0.00    +0.000 A 
ATOM      2  C   UNL     1       2.755   5.891  17.981  0.00  0.00    +0.000 A 
ATOM      3  N   UNL     1       2.302   7.135  18.268  0.00  0.00    +0.000 NA
ATOM      4  C   UNL     1       1.901   7.378  19.527  0.00  0.00    +0.000 A 
ATOM      5  N   UNL     1       1.457   8.621  19.881  0.00  0.00    +0.000 N 
ATOM      6  C   UNL     1       1.482   9.747  18.947  0.00  0.00    +0.000 C 
ATOM      7  C   UNL     1       0.150  10.517  19.065  0.00  0.00    +0.000 C 
ATOM      8  N   UNL     1      -0.159  10.852  20.461  0.00  0.00    +0.000 N 
ATOM      9  C   UNL     1      -0.172  12.167  20.875  0.00  0.00    +0.000 C 
ATOM     10  O   UNL     1       0.113  13.110  20.151  0.00  0.00    +0.000 OA
ATOM     11  C   UNL     1      -0.153   9.707  21.379  0.00  0.00    +0.000 C 
ATOM     12  C   UNL     1       1.182   8.940  21.284  0.00  0.00    +0.000 C 
ATOM     13  N   UNL     1       1.883   6.421  20.467  0.00  0.00    +0.000 NA
ATOM     14  C   UNL     1       2.329   5.197  20.135  0.00  0.00    +0.000 A 
ENDROOT
BRANCH   1  15
ATOM     15  O   UNL     1       3.359   3.672  18.533  0.00  0.00    +0.000 OA
BRANCH  15  16
ATOM     16  C   UNL     1       4.775   3.602  18.714  0.00  0.00    +0.000 C 
BRANCH  16  22
ATOM     17  C   UNL     1       6.612   5.080  17.743  0.00  0.00    +0.000 A 
ATOM     18  C   UNL     1       7.232   5.600  16.613  0.00  0.00    +0.000 A 
ATOM     19  N   UNL     1       6.819   5.367  15.345  0.00  0.00    +0.000 NA
ATOM     20  C   UNL     1       5.734   4.581  15.192  0.00  0.00    +0.000 A 
ATOM     21  C   UNL     1       5.044   4.014  16.251  0.00  0.00    +0.000 A 
ATOM     22  C   UNL     1       5.482   4.265  17.558  0.00  0.00    +0.000 A 
BRANCH  17  24
ATOM     23  N   UNL     1       7.590   5.618  20.085  0.00  0.00    +0.000 NA
ATOM     24  C   UNL     1       7.157   5.377  19.032  0.00  0.00    +0.000 C 
ENDBRANCH  17  24
ENDBRANCH  16  22
ENDBRANCH  15  16
ENDBRANCH   1  15
BRANCH   9  25
ATOM     25  O   UNL     1      -0.522  12.293  22.180  0.00  0.00    +0.000 OA
BRANCH  25  26
ATOM     26  C   UNL     1      -1.823  12.830  22.519  0.00  0.00    +0.000 C 
ATOM     27  C   UNL     1      -2.761  12.045  23.453  0.00  0.00    +0.000 C 
ATOM     28  C   UNL     1      -3.354  13.404  23.888  0.00  0.00    +0.000 C 
ATOM     29  F   UNL     1      -3.693  13.503  25.194  0.00  0.00    +0.000 F 
ATOM     30  F   UNL     1      -4.448  13.785  23.179  0.00  0.00    +0.000 F 
ATOM     31  C   UNL     1      -2.001  14.068  23.448  0.00  0.00    +0.000 C 
ATOM     32  F   UNL     1      -1.095  14.271  24.431  0.00  0.00    +0.000 F 
ATOM     33  F   UNL     1      -2.113  15.255  22.798  0.00  0.00    +0.000 F 
ENDBRANCH  25  26
ENDBRANCH   9  25
TORSDOF 6
ENDMDL
MODEL 5
REMARK VINA RESULT:      -7.7      1.818      2.499
REMARK  Name = 
REMARK  6 active torsions:
REMARK  status: ('A' for Active; 'I' for Inactive)
REMARK    1  A    between atoms: C_2  and  C_3
REMARK    2  A    between atoms: C_8  and  C_9
REMARK    3  A    between atoms: C_9  and  O_10
REMARK    4  A    between atoms: O_10  and  C_11
REMARK    5  A    between atoms: C_19  and  O_21
REMARK    6  A    between atoms: O_21  and  C_22
REMARK                            x       y       z     vdW  Elec       q    Type
REMARK                         _______ _______ _______ _____ _____    ______ ____
ROOT
ATOM      1  C   UNL     1      -0.236  11.289  19.951  0.00  0.00    +0.000 A 
ATOM      2  C   UNL     1      -0.076  10.396  20.983  0.00  0.00    +0.000 A 
ATOM      3  N   UNL     1       0.604   9.230  20.874  0.00  0.00    +0.000 NA
ATOM      4  C   UNL     1       1.154   8.937  19.683  0.00  0.00    +0.000 A 
ATOM      5  N   UNL     1       1.872   7.785  19.522  0.00  0.00    +0.000 N 
ATOM      6  C   UNL     1       2.146   6.879  20.637  0.00  0.00    +0.000 C 
ATOM      7  C   UNL     1       1.926   5.428  20.163  0.00  0.00    +0.000 C 
ATOM      8  N   UNL     1       2.656   5.149  18.920  0.00  0.00    +0.000 N 
ATOM      9  C   UNL     1       3.701   4.249  18.914  0.00  0.00    +0.000 C 
ATOM     10  O   UNL     1       4.113   3.679  19.914  0.00  0.00    +0.000 OA
ATOM     11  C   UNL     1       2.379   6.087  17.826  0.00  0.00    +0.000 C 
ATOM     12  C   UNL     1       2.615   7.541  18.283  0.00  0.00    +0.000 C 
ATOM     13  N   UNL     1       0.995   9.726  18.611  0.00  0.00    +0.000 NA
ATOM     14  C   UNL     1       0.302  10.868  18.761  0.00  0.00    +0.000 A 
ENDROOT
BRANCH   1  15
ATOM     15  O   UNL     1      -0.878  12.469  20.174  0.00  0.00    +0.000 OA
BRANCH  15  16
ATOM     16  C   UNL     1      -2.065  12.628  19.393  0.00  0.00    +0.000 C 
BRANCH  16  22
ATOM     17  C   UNL     1      -4.565  12.328  19.794  0.00  0.00    +0.000 A 
ATOM     18  C   UNL     1      -5.615  12.287  20.702  0.00  0.00    +0.000 A 
ATOM     19  N   UNL     1      -5.480  12.508  22.032  0.00  0.00    +0.000 NA
ATOM     20  C   UNL     1      -4.239  12.787  22.479  0.00  0.00    +0.000 A 
ATOM     21  C   UNL     1      -3.125  12.852  21.658  0.00  0.00    +0.000 A 
ATOM     22  C   UNL     1      -3.281  12.621  20.284  0.00  0.00    +0.000 A 
BRANCH  17  24
ATOM     23  N   UNL     1      -5.034  11.820  17.294  0.00  0.00    +0.000 NA
ATOM     24  C   UNL     1      -4.829  12.051  18.415  0.00  0.00    +0.000 C 
ENDBRANCH  17  24
ENDBRANCH  16  22
ENDBRANCH  15  16
ENDBRANCH   1  15
BRANCH   9  25
ATOM     25  O   UNL     1       4.228   4.080  17.675  0.00  0.00    +0.000 OA
BRANCH  25  26
ATOM     26  C   UNL     1       5.332   4.915  17.251  0.00  0.00    +0.000 C 
ATOM     27  C   UNL     1       6.740   4.313  17.097  0.00  0.00    +0.000 C 
ATOM     28  C   UNL     1       7.007   5.385  16.017  0.00  0.00    +0.000 C 
ATOM     29  F   UNL     1       7.757   4.981  14.966  0.00  0.00    +0.000 F 
ATOM     30  F   UNL     1       7.589   6.517  16.490  0.00  0.00    +0.000 F 
ATOM     31  C   UNL     1       5.454   5.466  15.799  0.00  0.00    +0.000 C 
ATOM     32  F   UNL     1       4.960   4.721  14.783  0.00  0.00    +0.000 F 
ATOM     33  F   UNL     1       4.950   6.714  15.620  0.00  0.00    +0.000 F 
ENDBRANCH  25  26
ENDBRANCH   9  25
TORSDOF 6
ENDMDL
MODEL 6
REMARK VINA RESULT:      -7.7      5.012     11.571
REMARK  Name = 
REMARK  6 active torsions:
REMARK  status: ('A' for Active; 'I' for Inactive)
REMARK    1  A    between atoms: C_2  and  C_3
REMARK    2  A    between atoms: C_8  and  C_9
REMARK    3  A    between atoms: C_9  and  O_10
REMARK    4  A    between atoms: O_10  and  C_11
REMARK    5  A    between atoms: C_19  and  O_21
REMARK    6  A    between atoms: O_21  and  C_22
REMARK                            x       y       z     vdW  Elec       q    Type
REMARK                         _______ _______ _______ _____ _____    ______ ____
ROOT
ATOM      1  C   UNL     1       2.373   6.176  19.205  0.00  0.00    +0.000 A 
ATOM      2  C   UNL     1       2.356   7.318  18.440  0.00  0.00    +0.000 A 
ATOM      3  N   UNL     1       1.913   8.518  18.884  0.00  0.00    +0.000 NA
ATOM      4  C   UNL     1       1.468   8.590  20.150  0.00  0.00    +0.000 A 
ATOM      5  N   UNL     1       1.032   9.781  20.659  0.00  0.00    +0.000 N 
ATOM      6  C   UNL     1       1.110  11.026  19.896  0.00  0.00    +0.000 C 
ATOM      7  C   UNL     1      -0.211  11.801  20.074  0.00  0.00    +0.000 C 
ATOM      8  N   UNL     1      -0.569  11.943  21.491  0.00  0.00    +0.000 N 
ATOM      9  C   UNL     1      -0.575  13.187  22.086  0.00  0.00    +0.000 C 
ATOM     10  O   UNL     1      -0.247  14.216  21.513  0.00  0.00    +0.000 OA
ATOM     11  C   UNL     1      -0.617  10.680  22.238  0.00  0.00    +0.000 C 
ATOM     12  C   UNL     1       0.708   9.906  22.083  0.00  0.00    +0.000 C 
ATOM     13  N   UNL     1       1.398   7.511  20.944  0.00  0.00    +0.000 NA
ATOM     14  C   UNL     1       1.836   6.337  20.458  0.00  0.00    +0.000 A 
ENDROOT
BRANCH   1  15
ATOM     15  O   UNL     1       2.901   5.030  18.694  0.00  0.00    +0.000 OA
BRANCH  15  16
ATOM     16  C   UNL     1       4.253   4.798  19.095  0.00  0.00    +0.000 C 
BRANCH  16  22
ATOM     17  C   UNL     1       6.534   4.870  17.958  0.00  0.00    +0.000 A 
ATOM     18  C   UNL     1       7.280   4.683  16.801  0.00  0.00    +0.000 A 
ATOM     19  N   UNL     1       6.752   4.327  15.605  0.00  0.00    +0.000 NA
ATOM     20  C   UNL     1       5.416   4.152  15.558  0.00  0.00    +0.000 A 
ATOM     21  C   UNL     1       4.583   4.313  16.653  0.00  0.00    +0.000 A 
ATOM     22  C   UNL     1       5.144   4.681  17.883  0.00  0.00    +0.000 A 
BRANCH  17  24
ATOM     23  N   UNL     1       7.751   5.514  20.157  0.00  0.00    +0.000 NA
ATOM     24  C   UNL     1       7.210   5.221  19.170  0.00  0.00    +0.000 C 
ENDBRANCH  17  24
ENDBRANCH  16  22
ENDBRANCH  15  16
ENDBRANCH   1  15
BRANCH   9  25
ATOM     25  O   UNL     1      -0.973  13.136  23.383  0.00  0.00    +0.000 OA
BRANCH  25  26
ATOM     26  C   UNL     1      -2.254  13.697  23.757  0.00  0.00    +0.000 C 
ATOM     27  C   UNL     1      -2.855  14.856  22.943  0.00  0.00    +0.000 C 
ATOM     28  C   UNL     1      -4.249  14.334  23.357  0.00  0.00    +0.000 C 
ATOM     29  F   UNL     1      -5.214  14.432  22.414  0.00  0.00    +0.000 F 
ATOM     30  F   UNL     1      -4.750  14.916  24.477  0.00  0.00    +0.000 F 
ATOM     31  C   UNL     1      -3.593  12.923  23.567  0.00  0.00    +0.000 C 
ATOM     32  F   UNL     1      -3.698  12.062  22.529  0.00  0.00    +0.000 F 
ATOM     33  F   UNL     1      -4.012  12.237  24.660  0.00  0.00    +0.000 F 
ENDBRANCH  25  26
ENDBRANCH   9  25
TORSDOF 6
ENDMDL
MODEL 7
REMARK VINA RESULT:      -7.7      4.876     11.248
REMARK  Name = 
REMARK  6 active torsions:
REMARK  status: ('A' for Active; 'I' for Inactive)
REMARK    1  A    between atoms: C_2  and  C_3
REMARK    2  A    between atoms: C_8  and  C_9
REMARK    3  A    between atoms: C_9  and  O_10
REMARK    4  A    between atoms: O_10  and  C_11
REMARK    5  A    between atoms: C_19  and  O_21
REMARK    6  A    between atoms: O_21  and  C_22
REMARK                            x       y       z     vdW  Elec       q    Type
REMARK                         _______ _______ _______ _____ _____    ______ ____
ROOT
ATOM      1  C   UNL     1       2.679   5.003  18.917  0.00  0.00    +0.000 A 
ATOM      2  C   UNL     1       2.510   6.079  18.079  0.00  0.00    +0.000 A 
ATOM      3  N   UNL     1       2.065   7.291  18.487  0.00  0.00    +0.000 NA
ATOM      4  C   UNL     1       1.778   7.445  19.790  0.00  0.00    +0.000 A 
ATOM      5  N   UNL     1       1.348   8.653  20.262  0.00  0.00    +0.000 N 
ATOM      6  C   UNL     1       1.269   9.836  19.405  0.00  0.00    +0.000 C 
ATOM      7  C   UNL     1      -0.058  10.568  19.693  0.00  0.00    +0.000 C 
ATOM      8  N   UNL     1      -0.243  10.807  21.130  0.00  0.00    +0.000 N 
ATOM      9  C   UNL     1      -0.239  12.093  21.628  0.00  0.00    +0.000 C 
ATOM     10  O   UNL     1      -0.037  13.086  20.944  0.00  0.00    +0.000 OA
ATOM     11  C   UNL     1      -0.135   9.607  21.968  0.00  0.00    +0.000 C 
ATOM     12  C   UNL     1       1.198   8.877  21.702  0.00  0.00    +0.000 C 
ATOM     13  N   UNL     1       1.861   6.430  20.663  0.00  0.00    +0.000 NA
ATOM     14  C   UNL     1       2.294   5.240  20.213  0.00  0.00    +0.000 A 
ENDROOT
BRANCH   1  15
ATOM     15  O   UNL     1       3.197   3.843  18.428  0.00  0.00    +0.000 OA
BRANCH  15  16
ATOM     16  C   UNL     1       4.608   3.722  18.622  0.00  0.00    +0.000 C 
BRANCH  16  22
ATOM     17  C   UNL     1       6.524   5.103  17.660  0.00  0.00    +0.000 A 
ATOM     18  C   UNL     1       7.169   5.597  16.533  0.00  0.00    +0.000 A 
ATOM     19  N   UNL     1       6.740   5.401  15.264  0.00  0.00    +0.000 NA
ATOM     20  C   UNL     1       5.611   4.680  15.107  0.00  0.00    +0.000 A 
ATOM     21  C   UNL     1       4.892   4.143  16.163  0.00  0.00    +0.000 A 
ATOM     22  C   UNL     1       5.349   4.355  17.471  0.00  0.00    +0.000 A 
BRANCH  17  24
ATOM     23  N   UNL     1       7.551   5.550  19.999  0.00  0.00    +0.000 NA
ATOM     24  C   UNL     1       7.088   5.355  18.950  0.00  0.00    +0.000 C 
ENDBRANCH  17  24
ENDBRANCH  16  22
ENDBRANCH  15  16
ENDBRANCH   1  15
BRANCH   9  25
ATOM     25  O   UNL     1      -0.470  12.129  22.965  0.00  0.00    +0.000 OA
BRANCH  25  26
ATOM     26  C   UNL     1      -1.576  12.911  23.476  0.00  0.00    +0.000 C 
ATOM     27  C   UNL     1      -1.597  14.437  23.279  0.00  0.00    +0.000 C 
ATOM     28  C   UNL     1      -3.139  14.350  23.299  0.00  0.00    +0.000 C 
ATOM     29  F   UNL     1      -3.783  15.189  22.455  0.00  0.00    +0.000 F 
ATOM     30  F   UNL     1      -3.691  14.543  24.524  0.00  0.00    +0.000 F 
ATOM     31  C   UNL     1      -3.001  12.852  22.850  0.00  0.00    +0.000 C 
ATOM     32  F   UNL     1      -3.113  12.619  21.522  0.00  0.00    +0.000 F 
ATOM     33  F   UNL     1      -3.849  11.978  23.450  0.00  0.00    +0.000 F 
ENDBRANCH  25  26
ENDBRANCH   9  25
TORSDOF 6
ENDMDL
MODEL 8
REMARK VINA RESULT:      -7.6      5.424     11.781
REMARK  Name = 
REMARK  6 active torsions:
REMARK  status: ('A' for Active; 'I' for Inactive)
REMARK    1  A    between atoms: C_2  and  C_3
REMARK    2  A    between atoms: C_8  and  C_9
REMARK    3  A    between atoms: C_9  and  O_10
REMARK    4  A    between atoms: O_10  and  C_11
REMARK    5  A    between atoms: C_19  and  O_21
REMARK    6  A    between atoms: O_21  and  C_22
REMARK                            x       y       z     vdW  Elec       q    Type
REMARK                         _______ _______ _______ _____ _____    ______ ____
ROOT
ATOM      1  C   UNL     1       2.699   7.321  18.589  0.00  0.00    +0.000 A 
ATOM      2  C   UNL     1       2.264   6.976  19.846  0.00  0.00    +0.000 A 
ATOM      3  N   UNL     1       1.396   7.716  20.575  0.00  0.00    +0.000 NA
ATOM      4  C   UNL     1       0.935   8.854  20.029  0.00  0.00    +0.000 A 
ATOM      5  N   UNL     1       0.038   9.629  20.710  0.00  0.00    +0.000 N 
ATOM      6  C   UNL     1      -0.519   9.220  21.999  0.00  0.00    +0.000 C 
ATOM      7  C   UNL     1      -0.522  10.438  22.946  0.00  0.00    +0.000 C 
ATOM      8  N   UNL     1      -1.151  11.608  22.321  0.00  0.00    +0.000 N 
ATOM      9  C   UNL     1      -2.338  12.107  22.815  0.00  0.00    +0.000 C 
ATOM     10  O   UNL     1      -2.955  11.600  23.742  0.00  0.00    +0.000 OA
ATOM     11  C   UNL     1      -0.588  11.981  21.018  0.00  0.00    +0.000 C 
ATOM     12  C   UNL     1      -0.599  10.776  20.056  0.00  0.00    +0.000 C 
ATOM     13  N   UNL     1       1.353   9.292  18.832  0.00  0.00    +0.000 NA
ATOM     14  C   UNL     1       2.225   8.532  18.149  0.00  0.00    +0.000 A 
ENDROOT
BRANCH   1  15
ATOM     15  O   UNL     1       3.520   6.478  17.905  0.00  0.00    +0.000 OA
BRANCH  15  16
ATOM     16  C   UNL     1       4.766   7.074  17.533  0.00  0.00    +0.000 C 
BRANCH  16  22
ATOM     17  C   UNL     1       6.599   5.311  17.348  0.00  0.00    +0.000 A 
ATOM     18  C   UNL     1       7.273   4.392  16.553  0.00  0.00    +0.000 A 
ATOM     19  N   UNL     1       7.025   4.200  15.236  0.00  0.00    +0.000 NA
ATOM     20  C   UNL     1       6.061   4.962  14.680  0.00  0.00    +0.000 A 
ATOM     21  C   UNL     1       5.330   5.906  15.383  0.00  0.00    +0.000 A 
ATOM     22  C   UNL     1       5.598   6.094  16.746  0.00  0.00    +0.000 A 
BRANCH  17  24
ATOM     23  N   UNL     1       7.202   5.493  19.864  0.00  0.00    +0.000 NA
ATOM     24  C   UNL     1       6.933   5.405  18.736  0.00  0.00    +0.000 C 
ENDBRANCH  17  24
ENDBRANCH  16  22
ENDBRANCH  15  16
ENDBRANCH   1  15
BRANCH   9  25
ATOM     25  O   UNL     1      -2.749  13.215  22.148  0.00  0.00    +0.000 OA
BRANCH  25  26
ATOM     26  C   UNL     1      -4.095  13.710  22.350  0.00  0.00    +0.000 C 
ATOM     27  C   UNL     1      -4.437  15.171  22.012  0.00  0.00    +0.000 C 
ATOM     28  C   UNL     1      -5.880  14.696  21.729  0.00  0.00    +0.000 C 
ATOM     29  F   UNL     1      -6.506  15.310  20.698  0.00  0.00    +0.000 F 
ATOM     30  F   UNL     1      -6.716  14.790  22.794  0.00  0.00    +0.000 F 
ATOM     31  C   UNL     1      -5.291  13.265  21.458  0.00  0.00    +0.000 C 
ATOM     32  F   UNL     1      -5.051  12.960  20.162  0.00  0.00    +0.000 F 
ATOM     33  F   UNL     1      -6.015  12.229  21.953  0.00  0.00    +0.000 F 
ENDBRANCH  25  26
ENDBRANCH   9  25
TORSDOF 6
ENDMDL
MODEL 9
REMARK VINA RESULT:      -7.6      5.698     11.787
REMARK  Name = 
REMARK  6 active torsions:
REMARK  status: ('A' for Active; 'I' for Inactive)
REMARK    1  A    between atoms: C_2  and  C_3
REMARK    2  A    between atoms: C_8  and  C_9
REMARK    3  A    between atoms: C_9  and  O_10
REMARK    4  A    between atoms: O_10  and  C_11
REMARK    5  A    between atoms: C_19  and  O_21
REMARK    6  A    between atoms: O_21  and  C_22
REMARK                            x       y       z     vdW  Elec       q    Type
REMARK                         _______ _______ _______ _____ _____    ______ ____
ROOT
ATOM      1  C   UNL     1       1.788   7.898  19.999  0.00  0.00    +0.000 A 
ATOM      2  C   UNL     1       1.513   8.917  19.119  0.00  0.00    +0.000 A 
ATOM      3  N   UNL     1       0.800  10.022  19.443  0.00  0.00    +0.000 NA
ATOM      4  C   UNL     1       0.339  10.122  20.701  0.00  0.00    +0.000 A 
ATOM      5  N   UNL     1      -0.366  11.226  21.090  0.00  0.00    +0.000 N 
ATOM      6  C   UNL     1      -0.571  12.368  20.200  0.00  0.00    +0.000 C 
ATOM      7  C   UNL     1      -2.038  12.830  20.316  0.00  0.00    +0.000 C 
ATOM      8  N   UNL     1      -2.432  13.034  21.716  0.00  0.00    +0.000 N 
ATOM      9  C   UNL     1      -2.732  14.297  22.178  0.00  0.00    +0.000 C 
ATOM     10  O   UNL     1      -2.647  15.309  21.495  0.00  0.00    +0.000 OA
ATOM     11  C   UNL     1      -2.193  11.879  22.591  0.00  0.00    +0.000 C 
ATOM     12  C   UNL     1      -0.724  11.421  22.497  0.00  0.00    +0.000 C 
ATOM     13  N   UNL     1       0.513   9.145  21.604  0.00  0.00    +0.000 NA
ATOM     14  C   UNL     1       1.216   8.060  21.236  0.00  0.00    +0.000 A 
ENDROOT
BRANCH   1  15
ATOM     15  O   UNL     1       2.571   6.858  19.602  0.00  0.00    +0.000 OA
BRANCH  15  16
ATOM     16  C   UNL     1       2.302   5.642  20.304  0.00  0.00    +0.000 C 
BRANCH  16  22
ATOM     17  C   UNL     1       2.020   3.165  19.767  0.00  0.00    +0.000 A 
ATOM     18  C   UNL     1       1.993   2.164  18.804  0.00  0.00    +0.000 A 
ATOM     19  N   UNL     1       2.225   2.372  17.486  0.00  0.00    +0.000 NA
ATOM     20  C   UNL     1       2.500   3.637  17.108  0.00  0.00    +0.000 A 
ATOM     21  C   UNL     1       2.552   4.705  17.988  0.00  0.00    +0.000 A 
ATOM     22  C   UNL     1       2.310   4.475  19.349  0.00  0.00    +0.000 A 
BRANCH  17  24
ATOM     23  N   UNL     1       1.498   2.562  22.236  0.00  0.00    +0.000 NA
ATOM     24  C   UNL     1       1.733   2.826  21.128  0.00  0.00    +0.000 C 
ENDBRANCH  17  24
ENDBRANCH  16  22
ENDBRANCH  15  16
ENDBRANCH   1  15
BRANCH   9  25
ATOM     25  O   UNL     1      -3.120  14.292  23.479  0.00  0.00    +0.000 OA
BRANCH  25  26
ATOM     26  C   UNL     1      -4.524  14.433  23.804  0.00  0.00    +0.000 C 
ATOM     27  C   UNL     1      -5.404  15.413  23.011  0.00  0.00    +0.000 C 
ATOM     28  C   UNL     1      -6.599  14.484  23.321  0.00  0.00    +0.000 C 
ATOM     29  F   UNL     1      -7.510  14.353  22.329  0.00  0.00    +0.000 F 
ATOM     30  F   UNL     1      -7.295  14.827  24.435  0.00  0.00    +0.000 F 
ATOM     31  C   UNL     1      -5.566  13.316  23.503  0.00  0.00    +0.000 C 
ATOM     32  F   UNL     1      -5.371  12.525  22.423  0.00  0.00    +0.000 F 
ATOM     33  F   UNL     1      -5.811  12.472  24.539  0.00  0.00    +0.000 F 
ENDBRANCH  25  26
ENDBRANCH   9  25
TORSDOF 6
ENDMDL
