MODEL 1
REMARK VINA RESULT:      -7.3      0.000      0.000
REMARK  Name = 
REMARK  3 active torsions:
REMARK  status: ('A' for Active; 'I' for Inactive)
REMARK    1  A    between atoms: C_1  and  O_2
REMARK    2  A    between atoms: O_2  and  C_3
REMARK    3  A    between atoms: C_6  and  C_7
REMARK                            x       y       z     vdW  Elec       q    Type
REMARK                         _______ _______ _______ _____ _____    ______ ____
ROOT
ATOM      1  C   UNL     1       3.648   4.176  17.919  0.00  0.00    +0.000 A 
ATOM      2  C   UNL     1       2.214   4.337  17.658  0.00  0.00    +0.000 A 
ATOM      3  C   UNL     1       1.277   3.980  18.555  0.00  0.00    +0.000 A 
ATOM      4  C   UNL     1       1.680   3.430  19.800  0.00  0.00    +0.000 A 
ATOM      5  N   UNL     1       1.015   2.994  20.847  0.00  0.00    +0.000 NA
ATOM      6  N   UNL     1       1.934   2.560  21.778  0.00  0.00    +0.000 NA
ATOM      7  C   UNL     1       3.134   2.745  21.275  0.00  0.00    +0.000 A 
ATOM      8  N   UNL     1       3.040   3.294  20.026  0.00  0.00    +0.000 N 
ATOM      9  C   UNL     1       4.023   3.656  19.108  0.00  0.00    +0.000 A 
ENDROOT
BRANCH   1  13
ATOM     10  C   UNL     1       6.718   5.221  15.248  0.00  0.00    +0.000 A 
ATOM     11  C   UNL     1       6.211   3.932  15.170  0.00  0.00    +0.000 A 
ATOM     12  C   UNL     1       5.162   3.580  16.019  0.00  0.00    +0.000 A 
ATOM     13  C   UNL     1       4.660   4.523  16.917  0.00  0.00    +0.000 A 
ATOM     14  C   UNL     1       5.225   5.795  16.898  0.00  0.00    +0.000 A 
ATOM     15  N   UNL     1       6.236   6.166  16.082  0.00  0.00    +0.000 NA
BRANCH  10  17
ATOM     16  C   UNL     1       7.617   5.072  13.097  0.00  0.00    +0.000 C 
ATOM     17  O   UNL     1       7.801   5.508  14.441  0.00  0.00    +0.000 OA
ENDBRANCH  10  17
ENDBRANCH   1  13
TORSDOF 2
ENDMDL
MODEL 2
REMARK VINA RESULT:      -7.2      0.827      1.067
REMARK  Name = 
REMARK  3 active torsions:
REMARK  status: ('A' for Active; 'I' for Inactive)
REMARK    1  A    between atoms: C_1  and  O_2
REMARK    2  A    between atoms: O_2  and  C_3
REMARK    3  A    between atoms: C_6  and  C_7
REMARK                            x       y       z     vdW  Elec       q    Type
REMARK                         _______ _______ _______ _____ _____    ______ ____
ROOT
ATOM      1  C   UNL     1       3.839   3.972  18.148  0.00  0.00    +0.000 A 
ATOM      2  C   UNL     1       2.450   4.201  17.736  0.00  0.00    +0.000 A 
ATOM      3  C   UNL     1       1.408   3.922  18.540  0.00  0.00    +0.000 A 
ATOM      4  C   UNL     1       1.650   3.391  19.834  0.00  0.00    +0.000 A 
ATOM      5  N   UNL     1       0.858   3.023  20.817  0.00  0.00    +0.000 NA
ATOM      6  N   UNL     1       1.651   2.569  21.849  0.00  0.00    +0.000 NA
ATOM      7  C   UNL     1       2.905   2.674  21.468  0.00  0.00    +0.000 A 
ATOM      8  N   UNL     1       2.971   3.189  20.203  0.00  0.00    +0.000 N 
ATOM      9  C   UNL     1       4.060   3.470  19.382  0.00  0.00    +0.000 A 
ENDROOT
BRANCH   1  13
ATOM     10  C   UNL     1       6.927   4.926  15.463  0.00  0.00    +0.000 A 
ATOM     11  C   UNL     1       7.207   5.009  16.819  0.00  0.00    +0.000 A 
ATOM     12  C   UNL     1       6.208   4.655  17.726  0.00  0.00    +0.000 A 
ATOM     13  C   UNL     1       4.966   4.234  17.248  0.00  0.00    +0.000 A 
ATOM     14  C   UNL     1       4.796   4.165  15.868  0.00  0.00    +0.000 A 
ATOM     15  N   UNL     1       5.748   4.494  14.967  0.00  0.00    +0.000 NA
BRANCH  10  17
ATOM     16  C   UNL     1       7.611   5.087  13.235  0.00  0.00    +0.000 C 
ATOM     17  O   UNL     1       7.917   5.351  14.601  0.00  0.00    +0.000 OA
ENDBRANCH  10  17
ENDBRANCH   1  13
TORSDOF 2
ENDMDL
MODEL 3
REMARK VINA RESULT:      -7.1      1.142      1.310
REMARK  Name = 
REMARK  3 active torsions:
REMARK  status: ('A' for Active; 'I' for Inactive)
REMARK    1  A    between atoms: C_1  and  O_2
REMARK    2  A    between atoms: O_2  and  C_3
REMARK    3  A    between atoms: C_6  and  C_7
REMARK                            x       y       z     vdW  Elec       q    Type
REMARK                         _______ _______ _______ _____ _____    ______ ____
ROOT
ATOM      1  C   UNL     1       4.281   3.825  17.638  0.00  0.00    +0.000 A 
ATOM      2  C   UNL     1       3.822   2.433  17.617  0.00  0.00    +0.000 A 
ATOM      3  C   UNL     1       3.012   1.929  18.567  0.00  0.00    +0.000 A 
ATOM      4  C   UNL     1       2.580   2.767  19.628  0.00  0.00    +0.000 A 
ATOM      5  N   UNL     1       1.813   2.565  20.677  0.00  0.00    +0.000 NA
ATOM      6  N   UNL     1       1.743   3.749  21.380  0.00  0.00    +0.000 NA
ATOM      7  C   UNL     1       2.468   4.640  20.741  0.00  0.00    +0.000 A 
ATOM      8  N   UNL     1       3.022   4.081  19.623  0.00  0.00    +0.000 N 
ATOM      9  C   UNL     1       3.862   4.617  18.650  0.00  0.00    +0.000 A 
ENDROOT
BRANCH   1  13
ATOM     10  C   UNL     1       7.118   5.220  14.871  0.00  0.00    +0.000 A 
ATOM     11  C   UNL     1       6.132   4.364  14.404  0.00  0.00    +0.000 A 
ATOM     12  C   UNL     1       5.156   3.925  15.297  0.00  0.00    +0.000 A 
ATOM     13  C   UNL     1       5.201   4.352  16.626  0.00  0.00    +0.000 A 
ATOM     14  C   UNL     1       6.219   5.228  16.987  0.00  0.00    +0.000 A 
ATOM     15  N   UNL     1       7.173   5.677  16.140  0.00  0.00    +0.000 NA
BRANCH  10  17
ATOM     16  C   UNL     1       7.796   5.190  12.636  0.00  0.00    +0.000 C 
ATOM     17  O   UNL     1       8.104   5.575  13.973  0.00  0.00    +0.000 OA
ENDBRANCH  10  17
ENDBRANCH   1  13
TORSDOF 2
ENDMDL
MODEL 4
REMARK VINA RESULT:      -7.0      1.000      1.010
REMARK  Name = 
REMARK  3 active torsions:
REMARK  status: ('A' for Active; 'I' for Inactive)
REMARK    1  A    between atoms: C_1  and  O_2
REMARK    2  A    between atoms: O_2  and  C_3
REMARK    3  A    between atoms: C_6  and  C_7
REMARK                            x       y       z     vdW  Elec       q    Type
REMARK                         _______ _______ _______ _____ _____    ______ ____
ROOT
ATOM      1  C   UNL     1       4.274   4.772  18.215  0.00  0.00    +0.000 A 
ATOM      2  C   UNL     1       3.220   5.736  18.546  0.00  0.00    +0.000 A 
ATOM      3  C   UNL     1       2.370   5.547  19.572  0.00  0.00    +0.000 A 
ATOM      4  C   UNL     1       2.491   4.378  20.368  0.00  0.00    +0.000 A 
ATOM      5  N   UNL     1       1.822   3.925  21.406  0.00  0.00    +0.000 NA
ATOM      6  N   UNL     1       2.382   2.721  21.774  0.00  0.00    +0.000 NA
ATOM      7  C   UNL     1       3.377   2.473  20.952  0.00  0.00    +0.000 A 
ATOM      8  N   UNL     1       3.498   3.485  20.041  0.00  0.00    +0.000 N 
ATOM      9  C   UNL     1       4.385   3.665  18.982  0.00  0.00    +0.000 A 
ENDROOT
BRANCH   1  13
ATOM     10  C   UNL     1       7.031   5.243  15.081  0.00  0.00    +0.000 A 
ATOM     11  C   UNL     1       6.007   4.325  14.902  0.00  0.00    +0.000 A 
ATOM     12  C   UNL     1       5.057   4.186  15.913  0.00  0.00    +0.000 A 
ATOM     13  C   UNL     1       5.165   4.963  17.067  0.00  0.00    +0.000 A 
ATOM     14  C   UNL     1       6.218   5.870  17.137  0.00  0.00    +0.000 A 
ATOM     15  N   UNL     1       7.148   6.032  16.169  0.00  0.00    +0.000 NA
BRANCH  10  17
ATOM     16  C   UNL     1       7.468   4.981  12.801  0.00  0.00    +0.000 C 
ATOM     17  O   UNL     1       7.989   5.300  14.088  0.00  0.00    +0.000 OA
ENDBRANCH  10  17
ENDBRANCH   1  13
TORSDOF 2
ENDMDL
MODEL 5
REMARK VINA RESULT:      -6.9      2.725      6.790
REMARK  Name = 
REMARK  3 active torsions:
REMARK  status: ('A' for Active; 'I' for Inactive)
REMARK    1  A    between atoms: C_1  and  O_2
REMARK    2  A    between atoms: O_2  and  C_3
REMARK    3  A    between atoms: C_6  and  C_7
REMARK                            x       y       z     vdW  Elec       q    Type
REMARK                         _______ _______ _______ _____ _____    ______ ____
ROOT
ATOM      1  C   UNL     1       4.946   4.268  16.953  0.00  0.00    +0.000 A 
ATOM      2  C   UNL     1       5.979   5.188  17.440  0.00  0.00    +0.000 A 
ATOM      3  C   UNL     1       6.972   5.635  16.649  0.00  0.00    +0.000 A 
ATOM      4  C   UNL     1       7.028   5.211  15.296  0.00  0.00    +0.000 A 
ATOM      5  N   UNL     1       7.858   5.466  14.308  0.00  0.00    +0.000 NA
ATOM      6  N   UNL     1       7.423   4.766  13.203  0.00  0.00    +0.000 NA
ATOM      7  C   UNL     1       6.339   4.106  13.546  0.00  0.00    +0.000 A 
ATOM      8  N   UNL     1       6.037   4.347  14.857  0.00  0.00    +0.000 N 
ATOM      9  C   UNL     1       5.005   3.873  15.662  0.00  0.00    +0.000 A 
ENDROOT
BRANCH   1  13
ATOM     10  C   UNL     1       1.991   2.980  19.648  0.00  0.00    +0.000 A 
ATOM     11  C   UNL     1       1.583   3.346  18.374  0.00  0.00    +0.000 A 
ATOM     12  C   UNL     1       2.553   3.735  17.451  0.00  0.00    +0.000 A 
ATOM     13  C   UNL     1       3.896   3.749  17.834  0.00  0.00    +0.000 A 
ATOM     14  C   UNL     1       4.201   3.342  19.129  0.00  0.00    +0.000 A 
ATOM     15  N   UNL     1       3.282   2.952  20.040  0.00  0.00    +0.000 NA
BRANCH  10  17
ATOM     16  C   UNL     1       1.459   2.638  21.896  0.00  0.00    +0.000 C 
ATOM     17  O   UNL     1       0.994   2.669  20.550  0.00  0.00    +0.000 OA
ENDBRANCH  10  17
ENDBRANCH   1  13
TORSDOF 2
ENDMDL
MODEL 6
REMARK VINA RESULT:      -6.9      2.158      2.527
REMARK  Name = 
REMARK  3 active torsions:
REMARK  status: ('A' for Active; 'I' for Inactive)
REMARK    1  A    between atoms: C_1  and  O_2
REMARK    2  A    between atoms: O_2  and  C_3
REMARK    3  A    between atoms: C_6  and  C_7
REMARK                            x       y       z     vdW  Elec       q    Type
REMARK                         _______ _______ _______ _____ _____    ______ ____
ROOT
ATOM      1  C   UNL     1       3.913   4.893  18.569  0.00  0.00    +0.000 A 
ATOM      2  C   UNL     1       2.900   4.438  17.611  0.00  0.00    +0.000 A 
ATOM      3  C   UNL     1       1.829   3.715  17.988  0.00  0.00    +0.000 A 
ATOM      4  C   UNL     1       1.663   3.379  19.357  0.00  0.00    +0.000 A 
ATOM      5  N   UNL     1       0.748   2.698  20.010  0.00  0.00    +0.000 NA
ATOM      6  N   UNL     1       1.104   2.685  21.342  0.00  0.00    +0.000 NA
ATOM      7  C   UNL     1       2.225   3.360  21.464  0.00  0.00    +0.000 A 
ATOM      8  N   UNL     1       2.630   3.826  20.244  0.00  0.00    +0.000 N 
ATOM      9  C   UNL     1       3.744   4.572  19.871  0.00  0.00    +0.000 A 
ENDROOT
BRANCH   1  13
ATOM     10  C   UNL     1       7.190   7.256  17.418  0.00  0.00    +0.000 A 
ATOM     11  C   UNL     1       7.393   6.324  18.425  0.00  0.00    +0.000 A 
ATOM     12  C   UNL     1       6.329   5.500  18.791  0.00  0.00    +0.000 A 
ATOM     13  C   UNL     1       5.100   5.639  18.143  0.00  0.00    +0.000 A 
ATOM     14  C   UNL     1       5.009   6.590  17.132  0.00  0.00    +0.000 A 
ATOM     15  N   UNL     1       6.025   7.395  16.751  0.00  0.00    +0.000 NA
BRANCH  10  17
ATOM     16  C   UNL     1       8.305   9.222  18.008  0.00  0.00    +0.000 C 
ATOM     17  O   UNL     1       8.246   8.098  17.135  0.00  0.00    +0.000 OA
ENDBRANCH  10  17
ENDBRANCH   1  13
TORSDOF 2
ENDMDL
MODEL 7
REMARK VINA RESULT:      -6.8      1.084      1.819
REMARK  Name = 
REMARK  3 active torsions:
REMARK  status: ('A' for Active; 'I' for Inactive)
REMARK    1  A    between atoms: C_1  and  O_2
REMARK    2  A    between atoms: O_2  and  C_3
REMARK    3  A    between atoms: C_6  and  C_7
REMARK                            x       y       z     vdW  Elec       q    Type
REMARK                         _______ _______ _______ _____ _____    ______ ____
ROOT
ATOM      1  C   UNL     1       4.469   3.906  17.625  0.00  0.00    +0.000 A 
ATOM      2  C   UNL     1       4.970   3.645  18.979  0.00  0.00    +0.000 A 
ATOM      3  C   UNL     1       4.167   3.223  19.973  0.00  0.00    +0.000 A 
ATOM      4  C   UNL     1       2.788   3.017  19.712  0.00  0.00    +0.000 A 
ATOM      5  N   UNL     1       1.780   2.625  20.461  0.00  0.00    +0.000 NA
ATOM      6  N   UNL     1       0.650   2.611  19.671  0.00  0.00    +0.000 NA
ATOM      7  C   UNL     1       0.999   2.994  18.463  0.00  0.00    +0.000 A 
ATOM      8  N   UNL     1       2.339   3.264  18.424  0.00  0.00    +0.000 N 
ATOM      9  C   UNL     1       3.155   3.703  17.385  0.00  0.00    +0.000 A 
ENDROOT
BRANCH   1  13
ATOM     10  C   UNL     1       7.177   5.235  14.701  0.00  0.00    +0.000 A 
ATOM     11  C   UNL     1       6.146   4.403  14.290  0.00  0.00    +0.000 A 
ATOM     12  C   UNL     1       5.212   3.986  15.238  0.00  0.00    +0.000 A 
ATOM     13  C   UNL     1       5.342   4.411  16.562  0.00  0.00    +0.000 A 
ATOM     14  C   UNL     1       6.400   5.263  16.864  0.00  0.00    +0.000 A 
ATOM     15  N   UNL     1       7.314   5.689  15.965  0.00  0.00    +0.000 NA
BRANCH  10  17
ATOM     16  C   UNL     1       7.748   5.148  12.438  0.00  0.00    +0.000 C 
ATOM     17  O   UNL     1       8.118   5.567  13.748  0.00  0.00    +0.000 OA
ENDBRANCH  10  17
ENDBRANCH   1  13
TORSDOF 2
ENDMDL
MODEL 8
REMARK VINA RESULT:      -6.7      2.808      6.787
REMARK  Name = 
REMARK  3 active torsions:
REMARK  status: ('A' for Active; 'I' for Inactive)
REMARK    1  A    between atoms: C_1  and  O_2
REMARK    2  A    between atoms: O_2  and  C_3
REMARK    3  A    between atoms: C_6  and  C_7
REMARK                            x       y       z     vdW  Elec       q    Type
REMARK                         _______ _______ _______ _____ _____    ______ ____
ROOT
ATOM      1  C   UNL     1       4.774   4.835  17.181  0.00  0.00    +0.000 A 
ATOM      2  C   UNL     1       5.880   5.736  17.521  0.00  0.00    +0.000 A 
ATOM      3  C   UNL     1       6.898   5.975  16.673  0.00  0.00    +0.000 A 
ATOM      4  C   UNL     1       6.908   5.341  15.404  0.00  0.00    +0.000 A 
ATOM      5  N   UNL     1       7.747   5.372  14.391  0.00  0.00    +0.000 NA
ATOM      6  N   UNL     1       7.249   4.544  13.408  0.00  0.00    +0.000 NA
ATOM      7  C   UNL     1       6.120   4.033  13.846  0.00  0.00    +0.000 A 
ATOM      8  N   UNL     1       5.850   4.499  15.103  0.00  0.00    +0.000 N 
ATOM      9  C   UNL     1       4.791   4.239  15.969  0.00  0.00    +0.000 A 
ENDROOT
BRANCH   1  13
ATOM     10  C   UNL     1       1.807   3.771  19.960  0.00  0.00    +0.000 A 
ATOM     11  C   UNL     1       2.513   4.943  20.191  0.00  0.00    +0.000 A 
ATOM     12  C   UNL     1       3.472   5.335  19.257  0.00  0.00    +0.000 A 
ATOM     13  C   UNL     1       3.695   4.543  18.130  0.00  0.00    +0.000 A 
ATOM     14  C   UNL     1       2.918   3.399  17.981  0.00  0.00    +0.000 A 
ATOM     15  N   UNL     1       1.976   2.999  18.865  0.00  0.00    +0.000 NA
BRANCH  10  17
ATOM     16  C   UNL     1       1.505   2.507  21.901  0.00  0.00    +0.000 C 
ATOM     17  O   UNL     1       0.919   3.382  20.941  0.00  0.00    +0.000 OA
ENDBRANCH  10  17
ENDBRANCH   1  13
TORSDOF 2
ENDMDL
MODEL 9
REMARK VINA RESULT:      -6.6      4.212      6.605
REMARK  Name = 
REMARK  3 active torsions:
REMARK  status: ('A' for Active; 'I' for Inactive)
REMARK    1  A    between atoms: C_1  and  O_2
REMARK    2  A    between atoms: O_2  and  C_3
REMARK    3  A    between atoms: C_6  and  C_7
REMARK                            x       y       z     vdW  Elec       q    Type
REMARK                         _______ _______ _______ _____ _____    ______ ____
ROOT
ATOM      1  C   UNL     1       3.548   6.352  17.849  0.00  0.00    +0.000 A 
ATOM      2  C   UNL     1       3.150   4.954  17.652  0.00  0.00    +0.000 A 
ATOM      3  C   UNL     1       3.964   4.050  17.076  0.00  0.00    +0.000 A 
ATOM      4  C   UNL     1       5.255   4.453  16.644  0.00  0.00    +0.000 A 
ATOM      5  N   UNL     1       6.245   3.816  16.059  0.00  0.00    +0.000 NA
ATOM      6  N   UNL     1       7.269   4.718  15.866  0.00  0.00    +0.000 NA
ATOM      7  C   UNL     1       6.876   5.880  16.339  0.00  0.00    +0.000 A 
ATOM      8  N   UNL     1       5.611   5.776  16.847  0.00  0.00    +0.000 N 
ATOM      9  C   UNL     1       4.780   6.725  17.439  0.00  0.00    +0.000 A 
ENDROOT
BRANCH   1  13
ATOM     10  C   UNL     1       1.129   9.245  19.701  0.00  0.00    +0.000 A 
ATOM     11  C   UNL     1       1.442   9.431  18.362  0.00  0.00    +0.000 A 
ATOM     12  C   UNL     1       2.207   8.459  17.718  0.00  0.00    +0.000 A 
ATOM     13  C   UNL     1       2.637   7.340  18.433  0.00  0.00    +0.000 A 
ATOM     14  C   UNL     1       2.250   7.239  19.766  0.00  0.00    +0.000 A 
ATOM     15  N   UNL     1       1.501   8.160  20.413  0.00  0.00    +0.000 NA
BRANCH  10  17
ATOM     16  C   UNL     1      -0.764  10.611  19.623  0.00  0.00    +0.000 C 
ATOM     17  O   UNL     1       0.430  10.262  20.318  0.00  0.00    +0.000 OA
ENDBRANCH  10  17
ENDBRANCH   1  13
TORSDOF 2
ENDMDL
