MODEL 1
REMARK VINA RESULT:      -6.1      0.000      0.000
REMARK  Name = 
REMARK  6 active torsions:
REMARK  status: ('A' for Active; 'I' for Inactive)
REMARK    1  A    between atoms: C_1  and  C_2
REMARK    2  A    between atoms: C_2  and  N_3
REMARK    3  A    between atoms: N_6  and  C_7
REMARK    4  A    between atoms: C_12  and  C_13
REMARK    5  A    between atoms: C_13  and  C_14
REMARK    6  A    between atoms: C_14  and  O_15
REMARK                            x       y       z     vdW  Elec       q    Type
REMARK                         _______ _______ _______ _____ _____    ______ ____
ROOT
ATOM      1  N   UNL     1       2.772   4.094  18.519  0.00  0.00    +0.000 NA
ATOM      2  C   UNL     1       3.774   4.150  19.602  0.00  0.00    +0.000 C 
ATOM      3  C   UNL     1       5.207   3.712  19.203  0.00  0.00    +0.000 C 
ATOM      4  N   UNL     1       5.765   4.428  18.016  0.00  0.00    +0.000 NA
ATOM      5  C   UNL     1       4.773   4.241  16.918  0.00  0.00    +0.000 C 
ATOM      6  C   UNL     1       3.341   4.728  17.301  0.00  0.00    +0.000 C 
ENDROOT
BRANCH   4   7
ATOM      7  C   UNL     1       6.182   5.808  18.392  0.00  0.00    +0.000 C 
ATOM      8  C   UNL     1       7.653   5.808  18.852  0.00  0.00    +0.000 C 
ATOM      9  C   UNL     1       8.203   7.204  18.599  0.00  0.00    +0.000 C 
ATOM     10  C   UNL     1       7.411   7.752  17.434  0.00  0.00    +0.000 C 
ATOM     11  C   UNL     1       6.157   6.897  17.306  0.00  0.00    +0.000 C 
ENDBRANCH   4   7
BRANCH   1  13
ATOM     12  C   UNL     1       0.889   2.455  18.760  0.00  0.00    +0.000 C 
ATOM     13  C   UNL     1       2.293   2.736  18.230  0.00  0.00    +0.000 C 
ENDBRANCH   1  13
BRANCH   5  14
ATOM     14  C   UNL     1       5.148   4.724  15.505  0.00  0.00    +0.000 C 
BRANCH  14  15
ATOM     15  C   UNL     1       6.356   3.995  14.916  0.00  0.00    +0.000 C 
BRANCH  15  16
ATOM     16  O   UNL     1       7.556   4.628  15.352  0.00  0.00    +0.000 OA
ATOM     17  H   UNL     1       8.289   4.009  15.200  0.00  0.00    +0.000 HD
ENDBRANCH  15  16
ENDBRANCH  14  15
ENDBRANCH   5  14
TORSDOF 5
ENDMDL
MODEL 2
REMARK VINA RESULT:      -5.9      2.563      5.495
REMARK  Name = 
REMARK  6 active torsions:
REMARK  status: ('A' for Active; 'I' for Inactive)
REMARK    1  A    between atoms: C_1  and  C_2
REMARK    2  A    between atoms: C_2  and  N_3
REMARK    3  A    between atoms: N_6  and  C_7
REMARK    4  A    between atoms: C_12  and  C_13
REMARK    5  A    between atoms: C_13  and  C_14
REMARK    6  A    between atoms: C_14  and  O_15
REMARK                            x       y       z     vdW  Elec       q    Type
REMARK                         _______ _______ _______ _____ _____    ______ ____
ROOT
ATOM      1  N   UNL     1       6.140   5.993  16.979  0.00  0.00    +0.000 NA
ATOM      2  C   UNL     1       6.132   4.765  17.799  0.00  0.00    +0.000 C 
ATOM      3  C   UNL     1       5.271   4.834  19.087  0.00  0.00    +0.000 C 
ATOM      4  N   UNL     1       3.854   5.252  18.862  0.00  0.00    +0.000 NA
ATOM      5  C   UNL     1       3.919   6.553  18.135  0.00  0.00    +0.000 C 
ATOM      6  C   UNL     1       4.744   6.473  16.814  0.00  0.00    +0.000 C 
ENDROOT
BRANCH   4   7
ATOM      7  C   UNL     1       3.069   4.130  18.274  0.00  0.00    +0.000 C 
ATOM      8  C   UNL     1       3.498   2.795  18.915  0.00  0.00    +0.000 C 
ATOM      9  C   UNL     1       2.316   1.843  18.803  0.00  0.00    +0.000 C 
ATOM     10  C   UNL     1       1.084   2.719  18.797  0.00  0.00    +0.000 C 
ATOM     11  C   UNL     1       1.543   4.132  18.464  0.00  0.00    +0.000 C 
ENDBRANCH   4   7
BRANCH   1  13
ATOM     12  C   UNL     1       7.967   6.573  18.597  0.00  0.00    +0.000 C 
ATOM     13  C   UNL     1       7.001   7.055  17.517  0.00  0.00    +0.000 C 
ENDBRANCH   1  13
BRANCH   5  14
ATOM     14  C   UNL     1       2.608   7.329  17.908  0.00  0.00    +0.000 C 
BRANCH  14  15
ATOM     15  C   UNL     1       2.044   7.953  19.185  0.00  0.00    +0.000 C 
BRANCH  15  16
ATOM     16  O   UNL     1       2.357   7.124  20.301  0.00  0.00    +0.000 OA
ATOM     17  H   UNL     1       1.674   6.436  20.359  0.00  0.00    +0.000 HD
ENDBRANCH  15  16
ENDBRANCH  14  15
ENDBRANCH   5  14
TORSDOF 5
ENDMDL
MODEL 3
REMARK VINA RESULT:      -5.8      2.474      3.442
REMARK  Name = 
REMARK  6 active torsions:
REMARK  status: ('A' for Active; 'I' for Inactive)
REMARK    1  A    between atoms: C_1  and  C_2
REMARK    2  A    between atoms: C_2  and  N_3
REMARK    3  A    between atoms: N_6  and  C_7
REMARK    4  A    between atoms: C_12  and  C_13
REMARK    5  A    between atoms: C_13  and  C_14
REMARK    6  A    between atoms: C_14  and  O_15
REMARK                            x       y       z     vdW  Elec       q    Type
REMARK                         _______ _______ _______ _____ _____    ______ ____
ROOT
ATOM      1  N   UNL     1       1.749   4.948  19.734  0.00  0.00    +0.000 NA
ATOM      2  C   UNL     1       2.760   5.980  19.427  0.00  0.00    +0.000 C 
ATOM      3  C   UNL     1       4.213   5.459  19.277  0.00  0.00    +0.000 C 
ATOM      4  N   UNL     1       4.372   4.345  18.294  0.00  0.00    +0.000 NA
ATOM      5  C   UNL     1       3.416   3.282  18.718  0.00  0.00    +0.000 C 
ATOM      6  C   UNL     1       1.945   3.792  18.822  0.00  0.00    +0.000 C 
ENDROOT
BRANCH   4   7
ATOM      7  C   UNL     1       4.307   4.868  16.901  0.00  0.00    +0.000 C 
ATOM      8  C   UNL     1       4.792   6.331  16.863  0.00  0.00    +0.000 C 
ATOM      9  C   UNL     1       5.315   6.594  15.459  0.00  0.00    +0.000 C 
ATOM     10  C   UNL     1       5.797   5.257  14.943  0.00  0.00    +0.000 C 
ATOM     11  C   UNL     1       5.172   4.186  15.827  0.00  0.00    +0.000 C 
ENDBRANCH   4   7
BRANCH   1  13
ATOM     12  C   UNL     1       1.378   3.051  21.333  0.00  0.00    +0.000 C 
ATOM     13  C   UNL     1       1.756   4.517  21.139  0.00  0.00    +0.000 C 
ENDBRANCH   1  13
BRANCH   5  14
ATOM     14  C   UNL     1       3.467   1.923  17.997  0.00  0.00    +0.000 C 
BRANCH  14  15
ATOM     15  C   UNL     1       4.182   0.837  18.800  0.00  0.00    +0.000 C 
BRANCH  15  16
ATOM     16  O   UNL     1       5.055   1.441  19.751  0.00  0.00    +0.000 OA
ATOM     17  H   UNL     1       4.530   2.066  20.278  0.00  0.00    +0.000 HD
ENDBRANCH  15  16
ENDBRANCH  14  15
ENDBRANCH   5  14
TORSDOF 5
ENDMDL
MODEL 4
REMARK VINA RESULT:      -5.7      1.470      4.807
REMARK  Name = 
REMARK  6 active torsions:
REMARK  status: ('A' for Active; 'I' for Inactive)
REMARK    1  A    between atoms: C_1  and  C_2
REMARK    2  A    between atoms: C_2  and  N_3
REMARK    3  A    between atoms: N_6  and  C_7
REMARK    4  A    between atoms: C_12  and  C_13
REMARK    5  A    between atoms: C_13  and  C_14
REMARK    6  A    between atoms: C_14  and  O_15
REMARK                            x       y       z     vdW  Elec       q    Type
REMARK                         _______ _______ _______ _____ _____    ______ ____
ROOT
ATOM      1  N   UNL     1       7.257   5.770  18.044  0.00  0.00    +0.000 NA
ATOM      2  C   UNL     1       6.095   5.869  18.950  0.00  0.00    +0.000 C 
ATOM      3  C   UNL     1       4.709   5.811  18.258  0.00  0.00    +0.000 C 
ATOM      4  N   UNL     1       4.509   4.623  17.373  0.00  0.00    +0.000 NA
ATOM      5  C   UNL     1       5.642   4.637  16.404  0.00  0.00    +0.000 C 
ATOM      6  C   UNL     1       7.038   4.646  17.099  0.00  0.00    +0.000 C 
ENDROOT
BRANCH   4   7
ATOM      7  C   UNL     1       4.266   3.402  18.191  0.00  0.00    +0.000 C 
ATOM      8  C   UNL     1       3.722   3.796  19.579  0.00  0.00    +0.000 C 
ATOM      9  C   UNL     1       2.913   2.615  20.095  0.00  0.00    +0.000 C 
ATOM     10  C   UNL     1       2.392   1.905  18.866  0.00  0.00    +0.000 C 
ATOM     11  C   UNL     1       3.229   2.383  17.687  0.00  0.00    +0.000 C 
ENDBRANCH   4   7
BRANCH   1  13
ATOM     12  C   UNL     1       8.185   8.096  18.193  0.00  0.00    +0.000 C 
ATOM     13  C   UNL     1       7.548   7.017  17.322  0.00  0.00    +0.000 C 
ENDBRANCH   1  13
BRANCH   5  14
ATOM     14  C   UNL     1       5.622   3.625  15.243  0.00  0.00    +0.000 C 
BRANCH  14  15
ATOM     15  C   UNL     1       6.365   4.115  14.000  0.00  0.00    +0.000 C 
BRANCH  15  16
ATOM     16  O   UNL     1       6.304   3.117  12.983  0.00  0.00    +0.000 OA
ATOM     17  H   UNL     1       6.061   3.557  12.152  0.00  0.00    +0.000 HD
ENDBRANCH  15  16
ENDBRANCH  14  15
ENDBRANCH   5  14
TORSDOF 5
ENDMDL
MODEL 5
REMARK VINA RESULT:      -5.7      1.980      5.003
REMARK  Name = 
REMARK  6 active torsions:
REMARK  status: ('A' for Active; 'I' for Inactive)
REMARK    1  A    between atoms: C_1  and  C_2
REMARK    2  A    between atoms: C_2  and  N_3
REMARK    3  A    between atoms: N_6  and  C_7
REMARK    4  A    between atoms: C_12  and  C_13
REMARK    5  A    between atoms: C_13  and  C_14
REMARK    6  A    between atoms: C_14  and  O_15
REMARK                            x       y       z     vdW  Elec       q    Type
REMARK                         _______ _______ _______ _____ _____    ______ ____
ROOT
ATOM      1  N   UNL     1       5.079   4.737  15.793  0.00  0.00    +0.000 NA
ATOM      2  C   UNL     1       4.034   3.732  16.074  0.00  0.00    +0.000 C 
ATOM      3  C   UNL     1       4.238   2.908  17.371  0.00  0.00    +0.000 C 
ATOM      4  N   UNL     1       4.434   3.732  18.603  0.00  0.00    +0.000 NA
ATOM      5  C   UNL     1       5.575   4.646  18.309  0.00  0.00    +0.000 C 
ATOM      6  C   UNL     1       5.350   5.512  17.031  0.00  0.00    +0.000 C 
ENDROOT
BRANCH   4   7
ATOM      7  C   UNL     1       3.136   4.310  19.052  0.00  0.00    +0.000 C 
ATOM      8  C   UNL     1       1.985   3.340  18.722  0.00  0.00    +0.000 C 
ATOM      9  C   UNL     1       0.864   3.620  19.713  0.00  0.00    +0.000 C 
ATOM     10  C   UNL     1       1.540   4.149  20.958  0.00  0.00    +0.000 C 
ATOM     11  C   UNL     1       2.943   4.583  20.553  0.00  0.00    +0.000 C 
ENDBRANCH   4   7
BRANCH   1  13
ATOM     12  C   UNL     1       6.293   3.965  13.738  0.00  0.00    +0.000 C 
ATOM     13  C   UNL     1       6.318   4.161  15.251  0.00  0.00    +0.000 C 
ENDBRANCH   1  13
BRANCH   5  14
ATOM     14  C   UNL     1       6.133   5.510  19.456  0.00  0.00    +0.000 C 
BRANCH  14  15
ATOM     15  C   UNL     1       7.654   5.655  19.421  0.00  0.00    +0.000 C 
BRANCH  15  16
ATOM     16  O   UNL     1       8.192   5.359  20.707  0.00  0.00    +0.000 OA
ATOM     17  H   UNL     1       8.842   6.049  20.921  0.00  0.00    +0.000 HD
ENDBRANCH  15  16
ENDBRANCH  14  15
ENDBRANCH   5  14
TORSDOF 5
ENDMDL
MODEL 6
REMARK VINA RESULT:      -5.7      2.416      3.518
REMARK  Name = 
REMARK  6 active torsions:
REMARK  status: ('A' for Active; 'I' for Inactive)
REMARK    1  A    between atoms: C_1  and  C_2
REMARK    2  A    between atoms: C_2  and  N_3
REMARK    3  A    between atoms: N_6  and  C_7
REMARK    4  A    between atoms: C_12  and  C_13
REMARK    5  A    between atoms: C_13  and  C_14
REMARK    6  A    between atoms: C_14  and  O_15
REMARK                            x       y       z     vdW  Elec       q    Type
REMARK                         _______ _______ _______ _____ _____    ______ ____
ROOT
ATOM      1  N   UNL     1       3.146   3.394  19.951  0.00  0.00    +0.000 NA
ATOM      2  C   UNL     1       3.388   2.402  18.884  0.00  0.00    +0.000 C 
ATOM      3  C   UNL     1       3.016   2.866  17.452  0.00  0.00    +0.000 C 
ATOM      4  N   UNL     1       3.643   4.158  17.038  0.00  0.00    +0.000 NA
ATOM      5  C   UNL     1       3.270   5.151  18.085  0.00  0.00    +0.000 C 
ATOM      6  C   UNL     1       3.687   4.709  19.522  0.00  0.00    +0.000 C 
ENDROOT
BRANCH   4   7
ATOM      7  C   UNL     1       5.082   3.955  16.709  0.00  0.00    +0.000 C 
ATOM      8  C   UNL     1       5.393   4.542  15.318  0.00  0.00    +0.000 C 
ATOM      9  C   UNL     1       6.872   4.899  15.302  0.00  0.00    +0.000 C 
ATOM     10  C   UNL     1       7.236   5.206  16.737  0.00  0.00    +0.000 C 
ATOM     11  C   UNL     1       6.135   4.619  17.611  0.00  0.00    +0.000 C 
ENDBRANCH   4   7
BRANCH   1  13
ATOM     12  C   UNL     1       1.373   2.711  21.590  0.00  0.00    +0.000 C 
ATOM     13  C   UNL     1       1.732   3.508  20.338  0.00  0.00    +0.000 C 
ENDBRANCH   1  13
BRANCH   5  14
ATOM     14  C   UNL     1       3.627   6.630  17.850  0.00  0.00    +0.000 C 
BRANCH  14  15
ATOM     15  C   UNL     1       2.538   7.598  18.313  0.00  0.00    +0.000 C 
BRANCH  15  16
ATOM     16  O   UNL     1       2.388   8.642  17.354  0.00  0.00    +0.000 OA
ATOM     17  H   UNL     1       2.815   9.437  17.713  0.00  0.00    +0.000 HD
ENDBRANCH  15  16
ENDBRANCH  14  15
ENDBRANCH   5  14
TORSDOF 5
ENDMDL
MODEL 7
REMARK VINA RESULT:      -5.7      2.598      5.485
REMARK  Name = 
REMARK  6 active torsions:
REMARK  status: ('A' for Active; 'I' for Inactive)
REMARK    1  A    between atoms: C_1  and  C_2
REMARK    2  A    between atoms: C_2  and  N_3
REMARK    3  A    between atoms: N_6  and  C_7
REMARK    4  A    between atoms: C_12  and  C_13
REMARK    5  A    between atoms: C_13  and  C_14
REMARK    6  A    between atoms: C_14  and  O_15
REMARK                            x       y       z     vdW  Elec       q    Type
REMARK                         _______ _______ _______ _____ _____    ______ ____
ROOT
ATOM      1  N   UNL     1       6.239   5.988  17.045  0.00  0.00    +0.000 NA
ATOM      2  C   UNL     1       6.159   4.857  17.990  0.00  0.00    +0.000 C 
ATOM      3  C   UNL     1       5.161   5.042  19.161  0.00  0.00    +0.000 C 
ATOM      4  N   UNL     1       3.771   5.395  18.740  0.00  0.00    +0.000 NA
ATOM      5  C   UNL     1       3.896   6.610  17.885  0.00  0.00    +0.000 C 
ATOM      6  C   UNL     1       4.863   6.410  16.678  0.00  0.00    +0.000 C 
ENDROOT
BRANCH   4   7
ATOM      7  C   UNL     1       3.073   4.195  18.199  0.00  0.00    +0.000 C 
ATOM      8  C   UNL     1       3.393   2.962  19.068  0.00  0.00    +0.000 C 
ATOM      9  C   UNL     1       2.233   1.990  18.912  0.00  0.00    +0.000 C 
ATOM     10  C   UNL     1       1.022   2.842  18.608  0.00  0.00    +0.000 C 
ATOM     11  C   UNL     1       1.535   4.204  18.161  0.00  0.00    +0.000 C 
ENDBRANCH   4   7
BRANCH   1  13
ATOM     12  C   UNL     1       8.037   6.741  18.624  0.00  0.00    +0.000 C 
ATOM     13  C   UNL     1       7.021   7.125  17.551  0.00  0.00    +0.000 C 
ENDBRANCH   1  13
BRANCH   5  14
ATOM     14  C   UNL     1       2.608   7.322  17.434  0.00  0.00    +0.000 C 
BRANCH  14  15
ATOM     15  C   UNL     1       2.296   8.582  18.241  0.00  0.00    +0.000 C 
BRANCH  15  16
ATOM     16  O   UNL     1       1.969   9.649  17.354  0.00  0.00    +0.000 OA
ATOM     17  H   UNL     1       1.005   9.647  17.233  0.00  0.00    +0.000 HD
ENDBRANCH  15  16
ENDBRANCH  14  15
ENDBRANCH   5  14
TORSDOF 5
ENDMDL
MODEL 8
REMARK VINA RESULT:      -5.7      2.991      3.982
REMARK  Name = 
REMARK  6 active torsions:
REMARK  status: ('A' for Active; 'I' for Inactive)
REMARK    1  A    between atoms: C_1  and  C_2
REMARK    2  A    between atoms: C_2  and  N_3
REMARK    3  A    between atoms: N_6  and  C_7
REMARK    4  A    between atoms: C_12  and  C_13
REMARK    5  A    between atoms: C_13  and  C_14
REMARK    6  A    between atoms: C_14  and  O_15
REMARK                            x       y       z     vdW  Elec       q    Type
REMARK                         _______ _______ _______ _____ _____    ______ ____
ROOT
ATOM      1  N   UNL     1       3.017   4.224  20.253  0.00  0.00    +0.000 NA
ATOM      2  C   UNL     1       3.401   3.250  19.212  0.00  0.00    +0.000 C 
ATOM      3  C   UNL     1       2.913   3.586  17.779  0.00  0.00    +0.000 C 
ATOM      4  N   UNL     1       3.291   4.950  17.301  0.00  0.00    +0.000 NA
ATOM      5  C   UNL     1       2.777   5.903  18.327  0.00  0.00    +0.000 C 
ATOM      6  C   UNL     1       3.306   5.596  19.762  0.00  0.00    +0.000 C 
ENDROOT
BRANCH   4   7
ATOM      7  C   UNL     1       4.733   4.990  16.929  0.00  0.00    +0.000 C 
ATOM      8  C   UNL     1       5.149   3.651  16.288  0.00  0.00    +0.000 C 
ATOM      9  C   UNL     1       6.337   3.938  15.381  0.00  0.00    +0.000 C 
ATOM     10  C   UNL     1       6.175   5.373  14.934  0.00  0.00    +0.000 C 
ATOM     11  C   UNL     1       5.189   6.030  15.892  0.00  0.00    +0.000 C 
ENDBRANCH   4   7
BRANCH   1  13
ATOM     12  C   UNL     1       1.309   2.797  21.410  0.00  0.00    +0.000 C 
ATOM     13  C   UNL     1       1.617   4.104  20.684  0.00  0.00    +0.000 C 
ENDBRANCH   1  13
BRANCH   5  14
ATOM     14  C   UNL     1       2.862   7.411  18.030  0.00  0.00    +0.000 C 
BRANCH  14  15
ATOM     15  C   UNL     1       1.964   8.258  18.933  0.00  0.00    +0.000 C 
BRANCH  15  16
ATOM     16  O   UNL     1       1.480   9.384  18.205  0.00  0.00    +0.000 OA
ATOM     17  H   UNL     1       0.782   9.071  17.607  0.00  0.00    +0.000 HD
ENDBRANCH  15  16
ENDBRANCH  14  15
ENDBRANCH   5  14
TORSDOF 5
ENDMDL
MODEL 9
REMARK VINA RESULT:      -5.7      1.944      5.196
REMARK  Name = 
REMARK  6 active torsions:
REMARK  status: ('A' for Active; 'I' for Inactive)
REMARK    1  A    between atoms: C_1  and  C_2
REMARK    2  A    between atoms: C_2  and  N_3
REMARK    3  A    between atoms: N_6  and  C_7
REMARK    4  A    between atoms: C_12  and  C_13
REMARK    5  A    between atoms: C_13  and  C_14
REMARK    6  A    between atoms: C_14  and  O_15
REMARK                            x       y       z     vdW  Elec       q    Type
REMARK                         _______ _______ _______ _____ _____    ______ ____
ROOT
ATOM      1  N   UNL     1       6.064   5.593  15.305  0.00  0.00    +0.000 NA
ATOM      2  C   UNL     1       4.989   4.590  15.172  0.00  0.00    +0.000 C 
ATOM      3  C   UNL     1       4.955   3.506  16.280  0.00  0.00    +0.000 C 
ATOM      4  N   UNL     1       4.917   4.046  17.673  0.00  0.00    +0.000 NA
ATOM      5  C   UNL     1       6.089   4.961  17.791  0.00  0.00    +0.000 C 
ATOM      6  C   UNL     1       6.099   6.082  16.707  0.00  0.00    +0.000 C 
ENDROOT
BRANCH   4   7
ATOM      7  C   UNL     1       3.557   4.562  17.993  0.00  0.00    +0.000 C 
ATOM      8  C   UNL     1       2.485   3.597  17.450  0.00  0.00    +0.000 C 
ATOM      9  C   UNL     1       1.241   3.778  18.307  0.00  0.00    +0.000 C 
ATOM     10  C   UNL     1       1.739   4.226  19.662  0.00  0.00    +0.000 C 
ATOM     11  C   UNL     1       3.168   4.717  19.473  0.00  0.00    +0.000 C 
ENDBRANCH   4   7
BRANCH   1  13
ATOM     12  C   UNL     1       7.558   5.025  13.371  0.00  0.00    +0.000 C 
ATOM     13  C   UNL     1       7.384   5.101  14.886  0.00  0.00    +0.000 C 
ENDBRANCH   1  13
BRANCH   5  14
ATOM     14  C   UNL     1       6.423   5.545  19.176  0.00  0.00    +0.000 C 
BRANCH  14  15
ATOM     15  C   UNL     1       7.922   5.731  19.411  0.00  0.00    +0.000 C 
BRANCH  15  16
ATOM     16  O   UNL     1       8.243   5.382  20.754  0.00  0.00    +0.000 OA
ATOM     17  H   UNL     1       8.588   6.177  21.192  0.00  0.00    +0.000 HD
ENDBRANCH  15  16
ENDBRANCH  14  15
ENDBRANCH   5  14
TORSDOF 5
ENDMDL
