MODEL 1
REMARK VINA RESULT:      -7.2      0.000      0.000
REMARK  Name = 
REMARK  8 active torsions:
REMARK  status: ('A' for Active; 'I' for Inactive)
REMARK    1  A    between atoms: C_1  and  O_2
REMARK    2  A    between atoms: O_2  and  C_3
REMARK    3  A    between atoms: C_5  and  C_6
REMARK    4  A    between atoms: C_6  and  N_7
REMARK    5  A    between atoms: C_14  and  O_15
REMARK    6  A    between atoms: O_15  and  C_16
REMARK    7  A    between atoms: N_18  and  C_19
REMARK    8  A    between atoms: N_18  and  C_20
REMARK                            x       y       z     vdW  Elec       q    Type
REMARK                         _______ _______ _______ _____ _____    ______ ____
ROOT
ATOM      1  C   UNL     1       2.987   6.127  17.900  0.00  0.00    +0.000 A 
ATOM      2  C   UNL     1       4.150   6.346  17.166  0.00  0.00    +0.000 A 
ATOM      3  C   UNL     1       4.864   5.280  16.595  0.00  0.00    +0.000 A 
ATOM      4  C   UNL     1       4.436   3.972  16.838  0.00  0.00    +0.000 A 
ATOM      5  C   UNL     1       3.219   3.747  17.476  0.00  0.00    +0.000 A 
ATOM      6  C   UNL     1       2.486   4.826  17.937  0.00  0.00    +0.000 A 
ENDROOT
BRANCH   1   8
ATOM      7  C   UNL     1       2.419   8.405  17.993  0.00  0.00    +0.000 C 
ATOM      8  O   UNL     1       2.332   7.113  18.584  0.00  0.00    +0.000 OA
ENDBRANCH   1   8
BRANCH   3   9
ATOM      9  C   UNL     1       6.027   5.584  15.680  0.00  0.00    +0.000 C 
BRANCH   9  10
ATOM     10  N   UNL     1       7.320   5.788  16.343  0.00  0.00    +0.000 NA
ATOM     11  C   UNL     1       7.728   4.748  17.291  0.00  0.00    +0.000 C 
ATOM     12  C   UNL     1       7.611   5.361  18.675  0.00  0.00    +0.000 C 
ATOM     13  C   UNL     1       7.873   6.833  18.443  0.00  0.00    +0.000 C 
ATOM     14  C   UNL     1       7.486   7.089  16.993  0.00  0.00    +0.000 C 
ENDBRANCH   9  10
ENDBRANCH   3   9
BRANCH   6  15
ATOM     15  O   UNL     1       1.284   4.507  18.594  0.00  0.00    +0.000 OA
BRANCH  15  16
ATOM     16  C   UNL     1       1.121   3.336  19.336  0.00  0.00    +0.000 C 
ATOM     17  O   UNL     1       0.739   2.263  18.875  0.00  0.00    +0.000 OA
ATOM     18  N   UNL     1       1.496   3.545  20.657  0.00  0.00    +0.000 N 
ATOM     19  C   UNL     1       2.100   4.787  21.109  0.00  0.00    +0.000 C 
ATOM     20  C   UNL     1       1.359   2.484  21.634  0.00  0.00    +0.000 C 
ENDBRANCH  15  16
ENDBRANCH   6  15
TORSDOF 5
ENDMDL
MODEL 2
REMARK VINA RESULT:      -7.1      1.077      2.465
REMARK  Name = 
REMARK  8 active torsions:
REMARK  status: ('A' for Active; 'I' for Inactive)
REMARK    1  A    between atoms: C_1  and  O_2
REMARK    2  A    between atoms: O_2  and  C_3
REMARK    3  A    between atoms: C_5  and  C_6
REMARK    4  A    between atoms: C_6  and  N_7
REMARK    5  A    between atoms: C_14  and  O_15
REMARK    6  A    between atoms: O_15  and  C_16
REMARK    7  A    between atoms: N_18  and  C_19
REMARK    8  A    between atoms: N_18  and  C_20
REMARK                            x       y       z     vdW  Elec       q    Type
REMARK                         _______ _______ _______ _____ _____    ______ ____
ROOT
ATOM      1  C   UNL     1       3.357   3.932  17.308  0.00  0.00    +0.000 A 
ATOM      2  C   UNL     1       4.463   4.225  16.515  0.00  0.00    +0.000 A 
ATOM      3  C   UNL     1       4.944   5.539  16.392  0.00  0.00    +0.000 A 
ATOM      4  C   UNL     1       4.247   6.577  17.018  0.00  0.00    +0.000 A 
ATOM      5  C   UNL     1       3.209   6.283  17.898  0.00  0.00    +0.000 A 
ATOM      6  C   UNL     1       2.826   4.965  18.078  0.00  0.00    +0.000 A 
ENDROOT
BRANCH   1   8
ATOM      7  C   UNL     1       3.537   1.703  18.030  0.00  0.00    +0.000 C 
ATOM      8  O   UNL     1       2.772   2.696  17.356  0.00  0.00    +0.000 OA
ENDBRANCH   1   8
BRANCH   3   9
ATOM      9  C   UNL     1       6.238   5.780  15.648  0.00  0.00    +0.000 C 
BRANCH   9  10
ATOM     10  N   UNL     1       7.447   5.829  16.479  0.00  0.00    +0.000 NA
ATOM     11  C   UNL     1       7.624   4.724  17.423  0.00  0.00    +0.000 C 
ATOM     12  C   UNL     1       7.388   5.301  18.807  0.00  0.00    +0.000 C 
ATOM     13  C   UNL     1       7.821   6.746  18.675  0.00  0.00    +0.000 C 
ATOM     14  C   UNL     1       7.652   7.086  17.201  0.00  0.00    +0.000 C 
ENDBRANCH   9  10
ENDBRANCH   3   9
BRANCH   6  15
ATOM     15  O   UNL     1       1.750   4.761  18.961  0.00  0.00    +0.000 OA
BRANCH  15  16
ATOM     16  C   UNL     1       1.932   4.388  20.294  0.00  0.00    +0.000 C 
ATOM     17  O   UNL     1       2.522   5.063  21.136  0.00  0.00    +0.000 OA
ATOM     18  N   UNL     1       1.313   3.171  20.544  0.00  0.00    +0.000 N 
ATOM     19  C   UNL     1       0.486   2.499  19.555  0.00  0.00    +0.000 C 
ATOM     20  C   UNL     1       1.415   2.550  21.849  0.00  0.00    +0.000 C 
ENDBRANCH  15  16
ENDBRANCH   6  15
TORSDOF 5
ENDMDL
MODEL 3
REMARK VINA RESULT:      -7.1      2.679      6.384
REMARK  Name = 
REMARK  8 active torsions:
REMARK  status: ('A' for Active; 'I' for Inactive)
REMARK    1  A    between atoms: C_1  and  O_2
REMARK    2  A    between atoms: O_2  and  C_3
REMARK    3  A    between atoms: C_5  and  C_6
REMARK    4  A    between atoms: C_6  and  N_7
REMARK    5  A    between atoms: C_14  and  O_15
REMARK    6  A    between atoms: O_15  and  C_16
REMARK    7  A    between atoms: N_18  and  C_19
REMARK    8  A    between atoms: N_18  and  C_20
REMARK                            x       y       z     vdW  Elec       q    Type
REMARK                         _______ _______ _______ _____ _____    ______ ____
ROOT
ATOM      1  C   UNL     1       5.721   4.785  18.584  0.00  0.00    +0.000 A 
ATOM      2  C   UNL     1       4.745   5.196  19.489  0.00  0.00    +0.000 A 
ATOM      3  C   UNL     1       3.460   5.563  19.057  0.00  0.00    +0.000 A 
ATOM      4  C   UNL     1       3.188   5.590  17.686  0.00  0.00    +0.000 A 
ATOM      5  C   UNL     1       4.118   5.079  16.784  0.00  0.00    +0.000 A 
ATOM      6  C   UNL     1       5.339   4.626  17.254  0.00  0.00    +0.000 A 
ENDROOT
BRANCH   1   8
ATOM      7  C   UNL     1       7.747   5.699  19.345  0.00  0.00    +0.000 C 
ATOM      8  O   UNL     1       7.020   4.545  18.938  0.00  0.00    +0.000 OA
ENDBRANCH   1   8
BRANCH   3   9
ATOM      9  C   UNL     1       2.394   5.848  20.090  0.00  0.00    +0.000 C 
BRANCH   9  10
ATOM     10  N   UNL     1       1.606   4.689  20.524  0.00  0.00    +0.000 NA
ATOM     11  C   UNL     1       2.186   3.884  21.601  0.00  0.00    +0.000 C 
ATOM     12  C   UNL     1       2.628   2.576  20.968  0.00  0.00    +0.000 C 
ATOM     13  C   UNL     1       1.661   2.385  19.820  0.00  0.00    +0.000 C 
ATOM     14  C   UNL     1       1.189   3.785  19.451  0.00  0.00    +0.000 C 
ENDBRANCH   9  10
ENDBRANCH   3   9
BRANCH   6  15
ATOM     15  O   UNL     1       6.228   4.155  16.272  0.00  0.00    +0.000 OA
BRANCH  15  16
ATOM     16  C   UNL     1       7.000   5.010  15.483  0.00  0.00    +0.000 C 
ATOM     17  O   UNL     1       7.700   5.922  15.918  0.00  0.00    +0.000 OA
ATOM     18  N   UNL     1       6.900   4.655  14.145  0.00  0.00    +0.000 N 
ATOM     19  C   UNL     1       6.191   3.464  13.705  0.00  0.00    +0.000 C 
ATOM     20  C   UNL     1       7.570   5.437  13.126  0.00  0.00    +0.000 C 
ENDBRANCH  15  16
ENDBRANCH   6  15
TORSDOF 5
ENDMDL
MODEL 4
REMARK VINA RESULT:      -7.0      0.720      1.183
REMARK  Name = 
REMARK  8 active torsions:
REMARK  status: ('A' for Active; 'I' for Inactive)
REMARK    1  A    between atoms: C_1  and  O_2
REMARK    2  A    between atoms: O_2  and  C_3
REMARK    3  A    between atoms: C_5  and  C_6
REMARK    4  A    between atoms: C_6  and  N_7
REMARK    5  A    between atoms: C_14  and  O_15
REMARK    6  A    between atoms: O_15  and  C_16
REMARK    7  A    between atoms: N_18  and  C_19
REMARK    8  A    between atoms: N_18  and  C_20
REMARK                            x       y       z     vdW  Elec       q    Type
REMARK                         _______ _______ _______ _____ _____    ______ ____
ROOT
ATOM      1  C   UNL     1       3.042   6.232  18.050  0.00  0.00    +0.000 A 
ATOM      2  C   UNL     1       4.187   6.492  17.300  0.00  0.00    +0.000 A 
ATOM      3  C   UNL     1       4.876   5.461  16.641  0.00  0.00    +0.000 A 
ATOM      4  C   UNL     1       4.445   4.142  16.810  0.00  0.00    +0.000 A 
ATOM      5  C   UNL     1       3.244   3.883  17.466  0.00  0.00    +0.000 A 
ATOM      6  C   UNL     1       2.532   4.935  18.016  0.00  0.00    +0.000 A 
ENDROOT
BRANCH   1   8
ATOM      7  C   UNL     1       2.079   8.374  18.124  0.00  0.00    +0.000 C 
ATOM      8  O   UNL     1       2.414   7.175  18.815  0.00  0.00    +0.000 OA
ENDBRANCH   1   8
BRANCH   3   9
ATOM      9  C   UNL     1       6.016   5.817  15.715  0.00  0.00    +0.000 C 
BRANCH   9  10
ATOM     10  N   UNL     1       7.332   5.948  16.351  0.00  0.00    +0.000 NA
ATOM     11  C   UNL     1       7.711   4.875  17.272  0.00  0.00    +0.000 C 
ATOM     12  C   UNL     1       7.655   5.469  18.668  0.00  0.00    +0.000 C 
ATOM     13  C   UNL     1       7.983   6.931  18.453  0.00  0.00    +0.000 C 
ATOM     14  C   UNL     1       7.575   7.229  17.016  0.00  0.00    +0.000 C 
ENDBRANCH   9  10
ENDBRANCH   3   9
BRANCH   6  15
ATOM     15  O   UNL     1       1.347   4.581  18.684  0.00  0.00    +0.000 OA
BRANCH  15  16
ATOM     16  C   UNL     1       1.299   4.353  20.060  0.00  0.00    +0.000 C 
ATOM     17  O   UNL     1       1.257   5.236  20.915  0.00  0.00    +0.000 OA
ATOM     18  N   UNL     1       1.259   2.991  20.324  0.00  0.00    +0.000 N 
ATOM     19  C   UNL     1       1.140   1.996  19.271  0.00  0.00    +0.000 C 
ATOM     20  C   UNL     1       1.264   2.507  21.690  0.00  0.00    +0.000 C 
ENDBRANCH  15  16
ENDBRANCH   6  15
TORSDOF 5
ENDMDL
MODEL 5
REMARK VINA RESULT:      -6.6      2.808      6.337
REMARK  Name = 
REMARK  8 active torsions:
REMARK  status: ('A' for Active; 'I' for Inactive)
REMARK    1  A    between atoms: C_1  and  O_2
REMARK    2  A    between atoms: O_2  and  C_3
REMARK    3  A    between atoms: C_5  and  C_6
REMARK    4  A    between atoms: C_6  and  N_7
REMARK    5  A    between atoms: C_14  and  O_15
REMARK    6  A    between atoms: O_15  and  C_16
REMARK    7  A    between atoms: N_18  and  C_19
REMARK    8  A    between atoms: N_18  and  C_20
REMARK                            x       y       z     vdW  Elec       q    Type
REMARK                         _______ _______ _______ _____ _____    ______ ____
ROOT
ATOM      1  C   UNL     1       5.650   5.200  17.627  0.00  0.00    +0.000 A 
ATOM      2  C   UNL     1       5.322   4.539  18.808  0.00  0.00    +0.000 A 
ATOM      3  C   UNL     1       4.385   3.493  18.822  0.00  0.00    +0.000 A 
ATOM      4  C   UNL     1       3.716   3.167  17.638  0.00  0.00    +0.000 A 
ATOM      5  C   UNL     1       4.113   3.745  16.435  0.00  0.00    +0.000 A 
ATOM      6  C   UNL     1       5.115   4.701  16.441  0.00  0.00    +0.000 A 
ENDROOT
BRANCH   1   8
ATOM      7  C   UNL     1       7.591   6.249  18.435  0.00  0.00    +0.000 C 
ATOM      8  O   UNL     1       6.452   6.306  17.582  0.00  0.00    +0.000 OA
ENDBRANCH   1   8
BRANCH   3   9
ATOM      9  C   UNL     1       4.183   2.707  20.097  0.00  0.00    +0.000 C 
BRANCH   9  10
ATOM     10  N   UNL     1       2.986   3.053  20.872  0.00  0.00    +0.000 NA
ATOM     11  C   UNL     1       1.789   2.255  20.599  0.00  0.00    +0.000 C 
ATOM     12  C   UNL     1       0.827   3.166  19.857  0.00  0.00    +0.000 C 
ATOM     13  C   UNL     1       1.160   4.547  20.380  0.00  0.00    +0.000 C 
ATOM     14  C   UNL     1       2.611   4.468  20.835  0.00  0.00    +0.000 C 
ENDBRANCH   9  10
ENDBRANCH   3   9
BRANCH   6  15
ATOM     15  O   UNL     1       5.432   5.253  15.187  0.00  0.00    +0.000 OA
BRANCH  15  16
ATOM     16  C   UNL     1       6.612   4.947  14.507  0.00  0.00    +0.000 C 
ATOM     17  O   UNL     1       7.742   5.226  14.905  0.00  0.00    +0.000 OA
ATOM     18  N   UNL     1       6.332   4.244  13.344  0.00  0.00    +0.000 N 
ATOM     19  C   UNL     1       4.990   3.795  13.009  0.00  0.00    +0.000 C 
ATOM     20  C   UNL     1       7.399   3.865  12.440  0.00  0.00    +0.000 C 
ENDBRANCH  15  16
ENDBRANCH   6  15
TORSDOF 5
ENDMDL
MODEL 6
REMARK VINA RESULT:      -6.6      2.485      6.146
REMARK  Name = 
REMARK  8 active torsions:
REMARK  status: ('A' for Active; 'I' for Inactive)
REMARK    1  A    between atoms: C_1  and  O_2
REMARK    2  A    between atoms: O_2  and  C_3
REMARK    3  A    between atoms: C_5  and  C_6
REMARK    4  A    between atoms: C_6  and  N_7
REMARK    5  A    between atoms: C_14  and  O_15
REMARK    6  A    between atoms: O_15  and  C_16
REMARK    7  A    between atoms: N_18  and  C_19
REMARK    8  A    between atoms: N_18  and  C_20
REMARK                            x       y       z     vdW  Elec       q    Type
REMARK                         _______ _______ _______ _____ _____    ______ ____
ROOT
ATOM      1  C   UNL     1       5.161   5.286  18.915  0.00  0.00    +0.000 A 
ATOM      2  C   UNL     1       4.107   5.080  19.803  0.00  0.00    +0.000 A 
ATOM      3  C   UNL     1       2.894   5.775  19.667  0.00  0.00    +0.000 A 
ATOM      4  C   UNL     1       2.777   6.745  18.668  0.00  0.00    +0.000 A 
ATOM      5  C   UNL     1       3.780   6.881  17.712  0.00  0.00    +0.000 A 
ATOM      6  C   UNL     1       4.922   6.105  17.813  0.00  0.00    +0.000 A 
ENDROOT
BRANCH   1   8
ATOM      7  C   UNL     1       7.377   5.624  19.616  0.00  0.00    +0.000 C 
ATOM      8  O   UNL     1       6.402   4.737  19.081  0.00  0.00    +0.000 OA
ENDBRANCH   1   8
BRANCH   3   9
ATOM      9  C   UNL     1       1.732   5.400  20.558  0.00  0.00    +0.000 C 
BRANCH   9  10
ATOM     10  N   UNL     1       1.007   4.183  20.176  0.00  0.00    +0.000 NA
ATOM     11  C   UNL     1       1.265   2.996  20.994  0.00  0.00    +0.000 C 
ATOM     12  C   UNL     1       2.079   2.049  20.130  0.00  0.00    +0.000 C 
ATOM     13  C   UNL     1       1.624   2.364  18.722  0.00  0.00    +0.000 C 
ATOM     14  C   UNL     1       1.130   3.804  18.768  0.00  0.00    +0.000 C 
ENDBRANCH   9  10
ENDBRANCH   3   9
BRANCH   6  15
ATOM     15  O   UNL     1       5.896   6.327  16.823  0.00  0.00    +0.000 OA
BRANCH  15  16
ATOM     16  C   UNL     1       5.671   6.055  15.473  0.00  0.00    +0.000 C 
ATOM     17  O   UNL     1       5.049   6.786  14.705  0.00  0.00    +0.000 OA
ATOM     18  N   UNL     1       6.287   4.864  15.111  0.00  0.00    +0.000 N 
ATOM     19  C   UNL     1       7.151   4.126  16.018  0.00  0.00    +0.000 C 
ATOM     20  C   UNL     1       6.145   4.343  13.767  0.00  0.00    +0.000 C 
ENDBRANCH  15  16
ENDBRANCH   6  15
TORSDOF 5
ENDMDL
MODEL 7
REMARK VINA RESULT:      -6.4      1.927      5.659
REMARK  Name = 
REMARK  8 active torsions:
REMARK  status: ('A' for Active; 'I' for Inactive)
REMARK    1  A    between atoms: C_1  and  O_2
REMARK    2  A    between atoms: O_2  and  C_3
REMARK    3  A    between atoms: C_5  and  C_6
REMARK    4  A    between atoms: C_6  and  N_7
REMARK    5  A    between atoms: C_14  and  O_15
REMARK    6  A    between atoms: O_15  and  C_16
REMARK    7  A    between atoms: N_18  and  C_19
REMARK    8  A    between atoms: N_18  and  C_20
REMARK                            x       y       z     vdW  Elec       q    Type
REMARK                         _______ _______ _______ _____ _____    ______ ____
ROOT
ATOM      1  C   UNL     1       3.628   5.738  17.498  0.00  0.00    +0.000 A 
ATOM      2  C   UNL     1       2.394   5.198  17.855  0.00  0.00    +0.000 A 
ATOM      3  C   UNL     1       2.172   3.812  17.837  0.00  0.00    +0.000 A 
ATOM      4  C   UNL     1       3.188   2.969  17.375  0.00  0.00    +0.000 A 
ATOM      5  C   UNL     1       4.455   3.486  17.120  0.00  0.00    +0.000 A 
ATOM      6  C   UNL     1       4.671   4.848  17.248  0.00  0.00    +0.000 A 
ENDROOT
BRANCH   1   8
ATOM      7  C   UNL     1       2.835   7.908  17.924  0.00  0.00    +0.000 C 
ATOM      8  O   UNL     1       3.853   7.081  17.372  0.00  0.00    +0.000 OA
ENDBRANCH   1   8
BRANCH   3   9
ATOM      9  C   UNL     1       0.871   3.271  18.384  0.00  0.00    +0.000 C 
BRANCH   9  10
ATOM     10  N   UNL     1       0.800   3.148  19.845  0.00  0.00    +0.000 NA
ATOM     11  C   UNL     1       0.935   4.394  20.602  0.00  0.00    +0.000 C 
ATOM     12  C   UNL     1       2.295   4.341  21.275  0.00  0.00    +0.000 C 
ATOM     13  C   UNL     1       2.532   2.862  21.495  0.00  0.00    +0.000 C 
ATOM     14  C   UNL     1       1.705   2.157  20.429  0.00  0.00    +0.000 C 
ENDBRANCH   9  10
ENDBRANCH   3   9
BRANCH   6  15
ATOM     15  O   UNL     1       5.971   5.287  16.942  0.00  0.00    +0.000 OA
BRANCH  15  16
ATOM     16  C   UNL     1       6.985   5.359  17.899  0.00  0.00    +0.000 C 
ATOM     17  O   UNL     1       7.447   4.393  18.503  0.00  0.00    +0.000 OA
ATOM     18  N   UNL     1       7.427   6.667  18.037  0.00  0.00    +0.000 N 
ATOM     19  C   UNL     1       6.962   7.742  17.177  0.00  0.00    +0.000 C 
ATOM     20  C   UNL     1       8.441   6.999  19.018  0.00  0.00    +0.000 C 
ENDBRANCH  15  16
ENDBRANCH   6  15
TORSDOF 5
ENDMDL
MODEL 8
REMARK VINA RESULT:      -6.4      3.579      6.187
REMARK  Name = 
REMARK  8 active torsions:
REMARK  status: ('A' for Active; 'I' for Inactive)
REMARK    1  A    between atoms: C_1  and  O_2
REMARK    2  A    between atoms: O_2  and  C_3
REMARK    3  A    between atoms: C_5  and  C_6
REMARK    4  A    between atoms: C_6  and  N_7
REMARK    5  A    between atoms: C_14  and  O_15
REMARK    6  A    between atoms: O_15  and  C_16
REMARK    7  A    between atoms: N_18  and  C_19
REMARK    8  A    between atoms: N_18  and  C_20
REMARK                            x       y       z     vdW  Elec       q    Type
REMARK                         _______ _______ _______ _____ _____    ______ ____
ROOT
ATOM      1  C   UNL     1       1.355   8.304  20.171  0.00  0.00    +0.000 A 
ATOM      2  C   UNL     1       2.053   7.104  20.285  0.00  0.00    +0.000 A 
ATOM      3  C   UNL     1       2.804   6.593  19.214  0.00  0.00    +0.000 A 
ATOM      4  C   UNL     1       2.783   7.267  17.989  0.00  0.00    +0.000 A 
ATOM      5  C   UNL     1       2.179   8.518  17.897  0.00  0.00    +0.000 A 
ATOM      6  C   UNL     1       1.535   9.044  19.004  0.00  0.00    +0.000 A 
ENDROOT
BRANCH   1   8
ATOM      7  C   UNL     1       1.149   9.230  22.321  0.00  0.00    +0.000 C 
ATOM      8  O   UNL     1       0.507   8.775  21.135  0.00  0.00    +0.000 OA
ENDBRANCH   1   8
BRANCH   3   9
ATOM      9  C   UNL     1       3.668   5.373  19.440  0.00  0.00    +0.000 C 
BRANCH   9  10
ATOM     10  N   UNL     1       3.002   4.080  19.243  0.00  0.00    +0.000 NA
ATOM     11  C   UNL     1       1.586   4.135  18.875  0.00  0.00    +0.000 C 
ATOM     12  C   UNL     1       0.809   3.659  20.090  0.00  0.00    +0.000 C 
ATOM     13  C   UNL     1       1.756   2.693  20.769  0.00  0.00    +0.000 C 
ATOM     14  C   UNL     1       3.152   3.131  20.347  0.00  0.00    +0.000 C 
ENDBRANCH   9  10
ENDBRANCH   3   9
BRANCH   6  15
ATOM     15  O   UNL     1       0.928  10.298  18.813  0.00  0.00    +0.000 OA
BRANCH  15  16
ATOM     16  C   UNL     1      -0.405  10.438  18.425  0.00  0.00    +0.000 C 
ATOM     17  O   UNL     1      -0.954   9.766  17.553  0.00  0.00    +0.000 OA
ATOM     18  N   UNL     1      -1.033  11.409  19.192  0.00  0.00    +0.000 N 
ATOM     19  C   UNL     1      -0.381  12.052  20.321  0.00  0.00    +0.000 C 
ATOM     20  C   UNL     1      -2.411  11.772  18.932  0.00  0.00    +0.000 C 
ENDBRANCH  15  16
ENDBRANCH   6  15
TORSDOF 5
ENDMDL
MODEL 9
REMARK VINA RESULT:      -6.4      3.710      6.157
REMARK  Name = 
REMARK  8 active torsions:
REMARK  status: ('A' for Active; 'I' for Inactive)
REMARK    1  A    between atoms: C_1  and  O_2
REMARK    2  A    between atoms: O_2  and  C_3
REMARK    3  A    between atoms: C_5  and  C_6
REMARK    4  A    between atoms: C_6  and  N_7
REMARK    5  A    between atoms: C_14  and  O_15
REMARK    6  A    between atoms: O_15  and  C_16
REMARK    7  A    between atoms: N_18  and  C_19
REMARK    8  A    between atoms: N_18  and  C_20
REMARK                            x       y       z     vdW  Elec       q    Type
REMARK                         _______ _______ _______ _____ _____    ______ ____
ROOT
ATOM      1  C   UNL     1       1.298   8.551  20.124  0.00  0.00    +0.000 A 
ATOM      2  C   UNL     1       1.973   7.340  19.980  0.00  0.00    +0.000 A 
ATOM      3  C   UNL     1       2.619   7.004  18.780  0.00  0.00    +0.000 A 
ATOM      4  C   UNL     1       2.513   7.870  17.688  0.00  0.00    +0.000 A 
ATOM      5  C   UNL     1       1.936   9.126  17.852  0.00  0.00    +0.000 A 
ATOM      6  C   UNL     1       1.399   9.470  19.081  0.00  0.00    +0.000 A 
ENDROOT
BRANCH   1   8
ATOM      7  C   UNL     1       1.297   9.183  22.386  0.00  0.00    +0.000 C 
ATOM      8  O   UNL     1       0.545   8.867  21.220  0.00  0.00    +0.000 OA
ENDBRANCH   1   8
BRANCH   3   9
ATOM      9  C   UNL     1       3.467   5.753  18.730  0.00  0.00    +0.000 C 
BRANCH   9  10
ATOM     10  N   UNL     1       3.064   4.754  17.733  0.00  0.00    +0.000 NA
ATOM     11  C   UNL     1       1.667   4.320  17.785  0.00  0.00    +0.000 C 
ATOM     12  C   UNL     1       1.680   2.896  18.312  0.00  0.00    +0.000 C 
ATOM     13  C   UNL     1       3.009   2.348  17.838  0.00  0.00    +0.000 C 
ATOM     14  C   UNL     1       3.912   3.562  17.673  0.00  0.00    +0.000 C 
ENDBRANCH   9  10
ENDBRANCH   3   9
BRANCH   6  15
ATOM     15  O   UNL     1       0.811  10.746  19.150  0.00  0.00    +0.000 OA
BRANCH  15  16
ATOM     16  C   UNL     1      -0.540  10.967  18.879  0.00  0.00    +0.000 C 
ATOM     17  O   UNL     1      -1.165  10.441  17.959  0.00  0.00    +0.000 OA
ATOM     18  N   UNL     1      -1.088  11.827  19.821  0.00  0.00    +0.000 N 
ATOM     19  C   UNL     1      -0.345  12.284  20.984  0.00  0.00    +0.000 C 
ATOM     20  C   UNL     1      -2.469  12.250  19.712  0.00  0.00    +0.000 C 
ENDBRANCH  15  16
ENDBRANCH   6  15
TORSDOF 5
ENDMDL
