MODEL 1
REMARK VINA RESULT:      -7.6      0.000      0.000
REMARK  Name = 
REMARK  6 active torsions:
REMARK  status: ('A' for Active; 'I' for Inactive)
REMARK    1  A    between atoms: C_1  and  C_2
REMARK    2  A    between atoms: C_10  and  C_11
REMARK    3  A    between atoms: C_11  and  N_12
REMARK    4  A    between atoms: N_18  and  O_19
REMARK    5  A    between atoms: O_19  and  C_20
REMARK    6  A    between atoms: C_20  and  C_21
REMARK                            x       y       z     vdW  Elec       q    Type
REMARK                         _______ _______ _______ _____ _____    ______ ____
ROOT
ATOM      1  C   UNL     1       5.217   6.652  15.744  0.00  0.00    +0.000 C 
ATOM      2  C   UNL     1       4.818   6.216  17.129  0.00  0.00    +0.000 A 
ATOM      3  C   UNL     1       5.538   5.177  17.734  0.00  0.00    +0.000 A 
ATOM      4  C   UNL     1       5.252   4.784  19.035  0.00  0.00    +0.000 A 
ATOM      5  C   UNL     1       4.225   5.407  19.736  0.00  0.00    +0.000 A 
ATOM      6  C   UNL     1       3.433   6.396  19.136  0.00  0.00    +0.000 A 
ATOM      7  C   UNL     1       3.749   6.833  17.830  0.00  0.00    +0.000 A 
ATOM      8  C   UNL     1       3.027   8.002  17.201  0.00  0.00    +0.000 C 
ATOM      9  C   UNL     1       1.711   8.351  17.881  0.00  0.00    +0.000 C 
ATOM     10  C   UNL     1       1.894   8.438  19.397  0.00  0.00    +0.000 C 
ATOM     11  C   UNL     1       2.281   7.030  19.872  0.00  0.00    +0.000 C 
ATOM     12  N   UNL     1       1.581   6.521  20.845  0.00  0.00    +0.000 NA
ENDROOT
BRANCH  10  13
ATOM     13  C   UNL     1       0.601   8.994  20.020  0.00  0.00    +0.000 C 
BRANCH  13  14
ATOM     14  N   UNL     1       0.657  10.388  20.414  0.00  0.00    +0.000 N 
ATOM     15  C   UNL     1       1.133  11.432  19.674  0.00  0.00    +0.000 A 
ATOM     16  C   UNL     1       1.043  12.523  20.507  0.00  0.00    +0.000 A 
ATOM     17  N   UNL     1       0.463  12.183  21.700  0.00  0.00    +0.000 NA
ATOM     18  C   UNL     1       0.238  10.893  21.614  0.00  0.00    +0.000 A 
ENDBRANCH  13  14
ENDBRANCH  10  13
BRANCH  12  19
ATOM     19  O   UNL     1       1.878   5.190  21.130  0.00  0.00    +0.000 OA
BRANCH  19  20
ATOM     20  C   UNL     1       0.914   4.337  20.507  0.00  0.00    +0.000 C 
BRANCH  20  21
ATOM     21  C   UNL     1       1.627   3.525  19.455  0.00  0.00    +0.000 A 
ATOM     22  C   UNL     1       2.409   2.412  19.794  0.00  0.00    +0.000 A 
ATOM     23  C   UNL     1       3.060   1.677  18.799  0.00  0.00    +0.000 A 
ATOM     24  C   UNL     1       2.938   2.048  17.461  0.00  0.00    +0.000 A 
ATOM     25  C   UNL     1       2.171   3.157  17.114  0.00  0.00    +0.000 A 
ATOM     26  C   UNL     1       1.520   3.890  18.104  0.00  0.00    +0.000 A 
ENDBRANCH  20  21
ENDBRANCH  19  20
ENDBRANCH  12  19
TORSDOF 5
ENDMDL
MODEL 2
REMARK VINA RESULT:      -7.5      2.268      4.942
REMARK  Name = 
REMARK  6 active torsions:
REMARK  status: ('A' for Active; 'I' for Inactive)
REMARK    1  A    between atoms: C_1  and  C_2
REMARK    2  A    between atoms: C_10  and  C_11
REMARK    3  A    between atoms: C_11  and  N_12
REMARK    4  A    between atoms: N_18  and  O_19
REMARK    5  A    between atoms: O_19  and  C_20
REMARK    6  A    between atoms: C_20  and  C_21
REMARK                            x       y       z     vdW  Elec       q    Type
REMARK                         _______ _______ _______ _____ _____    ______ ____
ROOT
ATOM      1  C   UNL     1       1.330   2.871  21.507  0.00  0.00    +0.000 C 
ATOM      2  C   UNL     1       1.942   3.121  20.155  0.00  0.00    +0.000 A 
ATOM      3  C   UNL     1       2.304   2.016  19.372  0.00  0.00    +0.000 A 
ATOM      4  C   UNL     1       2.811   2.193  18.092  0.00  0.00    +0.000 A 
ATOM      5  C   UNL     1       2.987   3.479  17.588  0.00  0.00    +0.000 A 
ATOM      6  C   UNL     1       2.710   4.608  18.371  0.00  0.00    +0.000 A 
ATOM      7  C   UNL     1       2.149   4.434  19.657  0.00  0.00    +0.000 A 
ATOM      8  C   UNL     1       1.688   5.618  20.475  0.00  0.00    +0.000 C 
ATOM      9  C   UNL     1       2.258   6.949  20.008  0.00  0.00    +0.000 C 
ATOM     10  C   UNL     1       2.100   7.101  18.494  0.00  0.00    +0.000 C 
ATOM     11  C   UNL     1       2.956   6.000  17.852  0.00  0.00    +0.000 C 
ATOM     12  N   UNL     1       3.808   6.370  16.940  0.00  0.00    +0.000 NA
ENDROOT
BRANCH  10  13
ATOM     13  C   UNL     1       2.494   8.536  18.097  0.00  0.00    +0.000 C 
BRANCH  13  14
ATOM     14  N   UNL     1       1.459   9.533  18.280  0.00  0.00    +0.000 N 
ATOM     15  C   UNL     1       1.600  10.769  18.843  0.00  0.00    +0.000 A 
ATOM     16  C   UNL     1       0.329  11.296  18.857  0.00  0.00    +0.000 A 
ATOM     17  N   UNL     1      -0.561  10.445  18.258  0.00  0.00    +0.000 NA
ATOM     18  C   UNL     1       0.148   9.394  17.918  0.00  0.00    +0.000 A 
ENDBRANCH  13  14
ENDBRANCH  10  13
BRANCH  12  19
ATOM     19  O   UNL     1       4.658   5.356  16.504  0.00  0.00    +0.000 OA
BRANCH  19  20
ATOM     20  C   UNL     1       5.830   5.929  15.917  0.00  0.00    +0.000 C 
BRANCH  20  21
ATOM     21  C   UNL     1       6.743   6.360  17.038  0.00  0.00    +0.000 A 
ATOM     22  C   UNL     1       7.313   7.640  17.066  0.00  0.00    +0.000 A 
ATOM     23  C   UNL     1       8.156   8.015  18.116  0.00  0.00    +0.000 A 
ATOM     24  C   UNL     1       8.436   7.116  19.144  0.00  0.00    +0.000 A 
ATOM     25  C   UNL     1       7.882   5.839  19.121  0.00  0.00    +0.000 A 
ATOM     26  C   UNL     1       7.041   5.465  18.076  0.00  0.00    +0.000 A 
ENDBRANCH  20  21
ENDBRANCH  19  20
ENDBRANCH  12  19
TORSDOF 5
ENDMDL
MODEL 3
REMARK VINA RESULT:      -7.5      0.811      1.345
REMARK  Name = 
REMARK  6 active torsions:
REMARK  status: ('A' for Active; 'I' for Inactive)
REMARK    1  A    between atoms: C_1  and  C_2
REMARK    2  A    between atoms: C_10  and  C_11
REMARK    3  A    between atoms: C_11  and  N_12
REMARK    4  A    between atoms: N_18  and  O_19
REMARK    5  A    between atoms: O_19  and  C_20
REMARK    6  A    between atoms: C_20  and  C_21
REMARK                            x       y       z     vdW  Elec       q    Type
REMARK                         _______ _______ _______ _____ _____    ______ ____
ROOT
ATOM      1  C   UNL     1       5.150   6.699  15.704  0.00  0.00    +0.000 C 
ATOM      2  C   UNL     1       4.760   6.255  17.089  0.00  0.00    +0.000 A 
ATOM      3  C   UNL     1       5.470   5.199  17.675  0.00  0.00    +0.000 A 
ATOM      4  C   UNL     1       5.192   4.796  18.975  0.00  0.00    +0.000 A 
ATOM      5  C   UNL     1       4.183   5.429  19.695  0.00  0.00    +0.000 A 
ATOM      6  C   UNL     1       3.400   6.436  19.114  0.00  0.00    +0.000 A 
ATOM      7  C   UNL     1       3.709   6.882  17.808  0.00  0.00    +0.000 A 
ATOM      8  C   UNL     1       2.999   8.069  17.199  0.00  0.00    +0.000 C 
ATOM      9  C   UNL     1       1.696   8.431  17.897  0.00  0.00    +0.000 C 
ATOM     10  C   UNL     1       1.898   8.499  19.412  0.00  0.00    +0.000 C 
ATOM     11  C   UNL     1       2.267   7.081  19.869  0.00  0.00    +0.000 C 
ATOM     12  N   UNL     1       1.570   6.573  20.844  0.00  0.00    +0.000 NA
ENDROOT
BRANCH  10  13
ATOM     13  C   UNL     1       0.620   9.070  20.056  0.00  0.00    +0.000 C 
BRANCH  13  14
ATOM     14  N   UNL     1       0.258  10.406  19.627  0.00  0.00    +0.000 N 
ATOM     15  C   UNL     1      -0.944  10.806  19.116  0.00  0.00    +0.000 A 
ATOM     16  C   UNL     1      -0.764  12.132  18.794  0.00  0.00    +0.000 A 
ATOM     17  N   UNL     1       0.484  12.561  19.160  0.00  0.00    +0.000 NA
ATOM     18  C   UNL     1       1.075  11.502  19.662  0.00  0.00    +0.000 A 
ENDBRANCH  13  14
ENDBRANCH  10  13
BRANCH  12  19
ATOM     19  O   UNL     1       1.849   5.234  21.112  0.00  0.00    +0.000 OA
BRANCH  19  20
ATOM     20  C   UNL     1       0.879   4.402  20.469  0.00  0.00    +0.000 C 
BRANCH  20  21
ATOM     21  C   UNL     1       1.596   3.576  19.431  0.00  0.00    +0.000 A 
ATOM     22  C   UNL     1       1.554   3.911  18.071  0.00  0.00    +0.000 A 
ATOM     23  C   UNL     1       2.227   3.128  17.129  0.00  0.00    +0.000 A 
ATOM     24  C   UNL     1       2.945   2.005  17.537  0.00  0.00    +0.000 A 
ATOM     25  C   UNL     1       2.986   1.658  18.884  0.00  0.00    +0.000 A 
ATOM     26  C   UNL     1       2.317   2.438  19.824  0.00  0.00    +0.000 A 
ENDBRANCH  20  21
ENDBRANCH  19  20
ENDBRANCH  12  19
TORSDOF 5
ENDMDL
MODEL 4
REMARK VINA RESULT:      -7.5      2.196      4.804
REMARK  Name = 
REMARK  6 active torsions:
REMARK  status: ('A' for Active; 'I' for Inactive)
REMARK    1  A    between atoms: C_1  and  C_2
REMARK    2  A    between atoms: C_10  and  C_11
REMARK    3  A    between atoms: C_11  and  N_12
REMARK    4  A    between atoms: N_18  and  O_19
REMARK    5  A    between atoms: O_19  and  C_20
REMARK    6  A    between atoms: C_20  and  C_21
REMARK                            x       y       z     vdW  Elec       q    Type
REMARK                         _______ _______ _______ _____ _____    ______ ____
ROOT
ATOM      1  C   UNL     1       1.455   2.745  21.578  0.00  0.00    +0.000 C 
ATOM      2  C   UNL     1       2.010   2.953  20.194  0.00  0.00    +0.000 A 
ATOM      3  C   UNL     1       2.275   1.825  19.406  0.00  0.00    +0.000 A 
ATOM      4  C   UNL     1       2.725   1.966  18.100  0.00  0.00    +0.000 A 
ATOM      5  C   UNL     1       2.941   3.237  17.575  0.00  0.00    +0.000 A 
ATOM      6  C   UNL     1       2.762   4.385  18.360  0.00  0.00    +0.000 A 
ATOM      7  C   UNL     1       2.259   4.249  19.674  0.00  0.00    +0.000 A 
ATOM      8  C   UNL     1       1.901   5.462  20.502  0.00  0.00    +0.000 C 
ATOM      9  C   UNL     1       2.514   6.758  19.994  0.00  0.00    +0.000 C 
ATOM     10  C   UNL     1       2.288   6.907  18.488  0.00  0.00    +0.000 C 
ATOM     11  C   UNL     1       3.053   5.759  17.815  0.00  0.00    +0.000 C 
ATOM     12  N   UNL     1       3.876   6.077  16.858  0.00  0.00    +0.000 NA
ENDROOT
BRANCH  10  13
ATOM     13  C   UNL     1       2.735   8.317  18.058  0.00  0.00    +0.000 C 
BRANCH  13  14
ATOM     14  N   UNL     1       1.881   9.398  18.507  0.00  0.00    +0.000 N 
ATOM     15  C   UNL     1       1.864  10.680  18.037  0.00  0.00    +0.000 A 
ATOM     16  C   UNL     1       0.947  11.333  18.828  0.00  0.00    +0.000 A 
ATOM     17  N   UNL     1       0.360  10.469  19.713  0.00  0.00    +0.000 NA
ATOM     18  C   UNL     1       0.939   9.311  19.494  0.00  0.00    +0.000 A 
ENDBRANCH  13  14
ENDBRANCH  10  13
BRANCH  12  19
ATOM     19  O   UNL     1       4.650   5.017  16.390  0.00  0.00    +0.000 OA
BRANCH  19  20
ATOM     20  C   UNL     1       5.866   5.520  15.828  0.00  0.00    +0.000 C 
BRANCH  20  21
ATOM     21  C   UNL     1       6.732   6.005  16.963  0.00  0.00    +0.000 A 
ATOM     22  C   UNL     1       7.101   5.159  18.017  0.00  0.00    +0.000 A 
ATOM     23  C   UNL     1       7.904   5.634  19.058  0.00  0.00    +0.000 A 
ATOM     24  C   UNL     1       8.344   6.958  19.055  0.00  0.00    +0.000 A 
ATOM     25  C   UNL     1       7.975   7.810  18.017  0.00  0.00    +0.000 A 
ATOM     26  C   UNL     1       7.176   7.337  16.979  0.00  0.00    +0.000 A 
ENDBRANCH  20  21
ENDBRANCH  19  20
ENDBRANCH  12  19
TORSDOF 5
ENDMDL
MODEL 5
REMARK VINA RESULT:      -7.5      2.677      5.058
REMARK  Name = 
REMARK  6 active torsions:
REMARK  status: ('A' for Active; 'I' for Inactive)
REMARK    1  A    between atoms: C_1  and  C_2
REMARK    2  A    between atoms: C_10  and  C_11
REMARK    3  A    between atoms: C_11  and  N_12
REMARK    4  A    between atoms: N_18  and  O_19
REMARK    5  A    between atoms: O_19  and  C_20
REMARK    6  A    between atoms: C_20  and  C_21
REMARK                            x       y       z     vdW  Elec       q    Type
REMARK                         _______ _______ _______ _____ _____    ______ ____
ROOT
ATOM      1  C   UNL     1       1.464   2.778  21.495  0.00  0.00    +0.000 C 
ATOM      2  C   UNL     1       2.086   2.940  20.134  0.00  0.00    +0.000 A 
ATOM      3  C   UNL     1       2.395   1.786  19.401  0.00  0.00    +0.000 A 
ATOM      4  C   UNL     1       2.908   1.883  18.114  0.00  0.00    +0.000 A 
ATOM      5  C   UNL     1       3.142   3.136  17.555  0.00  0.00    +0.000 A 
ATOM      6  C   UNL     1       2.918   4.310  18.287  0.00  0.00    +0.000 A 
ATOM      7  C   UNL     1       2.352   4.218  19.579  0.00  0.00    +0.000 A 
ATOM      8  C   UNL     1       1.946   5.457  20.343  0.00  0.00    +0.000 C 
ATOM      9  C   UNL     1       2.577   6.739  19.819  0.00  0.00    +0.000 C 
ATOM     10  C   UNL     1       2.424   6.832  18.299  0.00  0.00    +0.000 C 
ATOM     11  C   UNL     1       3.228   5.665  17.707  0.00  0.00    +0.000 C 
ATOM     12  N   UNL     1       4.095   5.955  16.780  0.00  0.00    +0.000 NA
ENDROOT
BRANCH  10  13
ATOM     13  C   UNL     1       2.883   8.228  17.840  0.00  0.00    +0.000 C 
BRANCH  13  14
ATOM     14  N   UNL     1       1.965   9.308  18.139  0.00  0.00    +0.000 N 
ATOM     15  C   UNL     1       0.614   9.212  18.313  0.00  0.00    +0.000 A 
ATOM     16  C   UNL     1       0.191  10.509  18.496  0.00  0.00    +0.000 A 
ATOM     17  N   UNL     1       1.251  11.375  18.506  0.00  0.00    +0.000 NA
ATOM     18  C   UNL     1       2.306  10.623  18.293  0.00  0.00    +0.000 A 
ENDBRANCH  13  14
ENDBRANCH  10  13
BRANCH  12  19
ATOM     19  O   UNL     1       4.897   4.884  16.390  0.00  0.00    +0.000 OA
BRANCH  19  20
ATOM     20  C   UNL     1       6.191   5.364  16.013  0.00  0.00    +0.000 C 
BRANCH  20  21
ATOM     21  C   UNL     1       6.468   4.889  14.609  0.00  0.00    +0.000 A 
ATOM     22  C   UNL     1       7.528   5.409  13.855  0.00  0.00    +0.000 A 
ATOM     23  C   UNL     1       7.763   4.952  12.555  0.00  0.00    +0.000 A 
ATOM     24  C   UNL     1       6.940   3.973  11.998  0.00  0.00    +0.000 A 
ATOM     25  C   UNL     1       5.878   3.456  12.735  0.00  0.00    +0.000 A 
ATOM     26  C   UNL     1       5.645   3.910  14.031  0.00  0.00    +0.000 A 
ENDBRANCH  20  21
ENDBRANCH  19  20
ENDBRANCH  12  19
TORSDOF 5
ENDMDL
MODEL 6
REMARK VINA RESULT:      -7.3      2.576      4.841
REMARK  Name = 
REMARK  6 active torsions:
REMARK  status: ('A' for Active; 'I' for Inactive)
REMARK    1  A    between atoms: C_1  and  C_2
REMARK    2  A    between atoms: C_10  and  C_11
REMARK    3  A    between atoms: C_11  and  N_12
REMARK    4  A    between atoms: N_18  and  O_19
REMARK    5  A    between atoms: O_19  and  C_20
REMARK    6  A    between atoms: C_20  and  C_21
REMARK                            x       y       z     vdW  Elec       q    Type
REMARK                         _______ _______ _______ _____ _____    ______ ____
ROOT
ATOM      1  C   UNL     1       1.469   2.797  21.449  0.00  0.00    +0.000 C 
ATOM      2  C   UNL     1       2.237   3.035  20.177  0.00  0.00    +0.000 A 
ATOM      3  C   UNL     1       2.788   1.929  19.514  0.00  0.00    +0.000 A 
ATOM      4  C   UNL     1       3.448   2.089  18.303  0.00  0.00    +0.000 A 
ATOM      5  C   UNL     1       3.588   3.360  17.753  0.00  0.00    +0.000 A 
ATOM      6  C   UNL     1       3.119   4.497  18.426  0.00  0.00    +0.000 A 
ATOM      7  C   UNL     1       2.405   4.335  19.635  0.00  0.00    +0.000 A 
ATOM      8  C   UNL     1       1.744   5.513  20.315  0.00  0.00    +0.000 C 
ATOM      9  C   UNL     1       2.265   6.865  19.850  0.00  0.00    +0.000 C 
ATOM     10  C   UNL     1       2.303   6.931  18.322  0.00  0.00    +0.000 C 
ATOM     11  C   UNL     1       3.322   5.879  17.863  0.00  0.00    +0.000 C 
ATOM     12  N   UNL     1       4.258   6.278  17.051  0.00  0.00    +0.000 NA
ENDROOT
BRANCH  10  13
ATOM     13  C   UNL     1       2.632   8.374  17.898  0.00  0.00    +0.000 C 
BRANCH  13  14
ATOM     14  N   UNL     1       1.610   9.355  18.203  0.00  0.00    +0.000 N 
ATOM     15  C   UNL     1       1.752  10.478  18.967  0.00  0.00    +0.000 A 
ATOM     16  C   UNL     1       0.492  11.029  19.018  0.00  0.00    +0.000 A 
ATOM     17  N   UNL     1      -0.389  10.313  18.253  0.00  0.00    +0.000 NA
ATOM     18  C   UNL     1       0.313   9.313  17.771  0.00  0.00    +0.000 A 
ENDBRANCH  13  14
ENDBRANCH  10  13
BRANCH  12  19
ATOM     19  O   UNL     1       5.237   5.321  16.790  0.00  0.00    +0.000 OA
BRANCH  19  20
ATOM     20  C   UNL     1       6.243   5.880  15.939  0.00  0.00    +0.000 C 
BRANCH  20  21
ATOM     21  C   UNL     1       6.281   5.064  14.672  0.00  0.00    +0.000 A 
ATOM     22  C   UNL     1       5.258   4.160  14.352  0.00  0.00    +0.000 A 
ATOM     23  C   UNL     1       5.318   3.415  13.171  0.00  0.00    +0.000 A 
ATOM     24  C   UNL     1       6.399   3.564  12.303  0.00  0.00    +0.000 A 
ATOM     25  C   UNL     1       7.425   4.452  12.616  0.00  0.00    +0.000 A 
ATOM     26  C   UNL     1       7.365   5.196  13.791  0.00  0.00    +0.000 A 
ENDBRANCH  20  21
ENDBRANCH  19  20
ENDBRANCH  12  19
TORSDOF 5
ENDMDL
MODEL 7
REMARK VINA RESULT:      -7.2      3.479      6.424
REMARK  Name = 
REMARK  6 active torsions:
REMARK  status: ('A' for Active; 'I' for Inactive)
REMARK    1  A    between atoms: C_1  and  C_2
REMARK    2  A    between atoms: C_10  and  C_11
REMARK    3  A    between atoms: C_11  and  N_12
REMARK    4  A    between atoms: N_18  and  O_19
REMARK    5  A    between atoms: O_19  and  C_20
REMARK    6  A    between atoms: C_20  and  C_21
REMARK                            x       y       z     vdW  Elec       q    Type
REMARK                         _______ _______ _______ _____ _____    ______ ____
ROOT
ATOM      1  C   UNL     1       2.523   9.303  17.656  0.00  0.00    +0.000 C 
ATOM      2  C   UNL     1       2.774   7.945  18.256  0.00  0.00    +0.000 A 
ATOM      3  C   UNL     1       2.051   7.577  19.399  0.00  0.00    +0.000 A 
ATOM      4  C   UNL     1       2.197   6.311  19.951  0.00  0.00    +0.000 A 
ATOM      5  C   UNL     1       3.089   5.408  19.381  0.00  0.00    +0.000 A 
ATOM      6  C   UNL     1       3.886   5.767  18.286  0.00  0.00    +0.000 A 
ATOM      7  C   UNL     1       3.707   7.038  17.691  0.00  0.00    +0.000 A 
ATOM      8  C   UNL     1       4.427   7.412  16.417  0.00  0.00    +0.000 C 
ATOM      9  C   UNL     1       5.625   6.527  16.103  0.00  0.00    +0.000 C 
ATOM     10  C   UNL     1       5.251   5.049  16.230  0.00  0.00    +0.000 C 
ATOM     11  C   UNL     1       4.896   4.813  17.705  0.00  0.00    +0.000 C 
ATOM     12  N   UNL     1       5.501   3.830  18.308  0.00  0.00    +0.000 NA
ENDROOT
BRANCH  10  13
ATOM     13  C   UNL     1       6.420   4.196  15.705  0.00  0.00    +0.000 C 
BRANCH  13  14
ATOM     14  N   UNL     1       6.604   4.221  14.267  0.00  0.00    +0.000 N 
ATOM     15  C   UNL     1       5.877   3.539  13.334  0.00  0.00    +0.000 A 
ATOM     16  C   UNL     1       6.483   3.831  12.134  0.00  0.00    +0.000 A 
ATOM     17  N   UNL     1       7.509   4.721  12.307  0.00  0.00    +0.000 NA
ATOM     18  C   UNL     1       7.557   4.940  13.600  0.00  0.00    +0.000 A 
ENDBRANCH  13  14
ENDBRANCH  10  13
BRANCH  12  19
ATOM     19  O   UNL     1       5.255   3.759  19.678  0.00  0.00    +0.000 OA
BRANCH  19  20
ATOM     20  C   UNL     1       4.791   2.449  20.017  0.00  0.00    +0.000 C 
BRANCH  20  21
ATOM     21  C   UNL     1       3.284   2.487  20.045  0.00  0.00    +0.000 A 
ATOM     22  C   UNL     1       2.580   2.795  21.217  0.00  0.00    +0.000 A 
ATOM     23  C   UNL     1       1.183   2.822  21.216  0.00  0.00    +0.000 A 
ATOM     24  C   UNL     1       0.477   2.542  20.046  0.00  0.00    +0.000 A 
ATOM     25  C   UNL     1       1.166   2.225  18.878  0.00  0.00    +0.000 A 
ATOM     26  C   UNL     1       2.559   2.199  18.878  0.00  0.00    +0.000 A 
ENDBRANCH  20  21
ENDBRANCH  19  20
ENDBRANCH  12  19
TORSDOF 5
ENDMDL
MODEL 8
REMARK VINA RESULT:      -6.9      2.649      6.564
REMARK  Name = 
REMARK  6 active torsions:
REMARK  status: ('A' for Active; 'I' for Inactive)
REMARK    1  A    between atoms: C_1  and  C_2
REMARK    2  A    between atoms: C_10  and  C_11
REMARK    3  A    between atoms: C_11  and  N_12
REMARK    4  A    between atoms: N_18  and  O_19
REMARK    5  A    between atoms: O_19  and  C_20
REMARK    6  A    between atoms: C_20  and  C_21
REMARK                            x       y       z     vdW  Elec       q    Type
REMARK                         _______ _______ _______ _____ _____    ______ ____
ROOT
ATOM      1  C   UNL     1       2.018   1.378  18.891  0.00  0.00    +0.000 C 
ATOM      2  C   UNL     1       1.958   2.854  19.181  0.00  0.00    +0.000 A 
ATOM      3  C   UNL     1       1.021   3.312  20.117  0.00  0.00    +0.000 A 
ATOM      4  C   UNL     1       0.971   4.655  20.469  0.00  0.00    +0.000 A 
ATOM      5  C   UNL     1       1.841   5.560  19.868  0.00  0.00    +0.000 A 
ATOM      6  C   UNL     1       2.738   5.151  18.870  0.00  0.00    +0.000 A 
ATOM      7  C   UNL     1       2.825   3.779  18.543  0.00  0.00    +0.000 A 
ATOM      8  C   UNL     1       3.882   3.269  17.592  0.00  0.00    +0.000 C 
ATOM      9  C   UNL     1       4.510   4.354  16.729  0.00  0.00    +0.000 C 
ATOM     10  C   UNL     1       4.928   5.549  17.587  0.00  0.00    +0.000 C 
ATOM     11  C   UNL     1       3.638   6.139  18.175  0.00  0.00    +0.000 C 
ATOM     12  N   UNL     1       3.442   7.415  18.009  0.00  0.00    +0.000 NA
ENDROOT
BRANCH  10  13
ATOM     13  C   UNL     1       5.742   6.524  16.715  0.00  0.00    +0.000 C 
BRANCH  13  14
ATOM     14  N   UNL     1       6.831   7.196  17.395  0.00  0.00    +0.000 N 
ATOM     15  C   UNL     1       7.701   6.648  18.294  0.00  0.00    +0.000 A 
ATOM     16  C   UNL     1       8.488   7.699  18.705  0.00  0.00    +0.000 A 
ATOM     17  N   UNL     1       8.166   8.847  18.032  0.00  0.00    +0.000 NA
ATOM     18  C   UNL     1       7.168   8.514  17.248  0.00  0.00    +0.000 A 
ENDBRANCH  13  14
ENDBRANCH  10  13
BRANCH  12  19
ATOM     19  O   UNL     1       2.191   7.862  18.428  0.00  0.00    +0.000 OA
BRANCH  19  20
ATOM     20  C   UNL     1       2.003   9.221  18.021  0.00  0.00    +0.000 C 
BRANCH  20  21
ATOM     21  C   UNL     1       1.074   9.875  19.012  0.00  0.00    +0.000 A 
ATOM     22  C   UNL     1       0.422  11.081  18.720  0.00  0.00    +0.000 A 
ATOM     23  C   UNL     1      -0.434  11.667  19.657  0.00  0.00    +0.000 A 
ATOM     24  C   UNL     1      -0.644  11.055  20.892  0.00  0.00    +0.000 A 
ATOM     25  C   UNL     1       0.005   9.861  21.196  0.00  0.00    +0.000 A 
ATOM     26  C   UNL     1       0.857   9.276  20.263  0.00  0.00    +0.000 A 
ENDBRANCH  20  21
ENDBRANCH  19  20
ENDBRANCH  12  19
TORSDOF 5
ENDMDL
MODEL 9
REMARK VINA RESULT:      -6.8      2.658      6.617
REMARK  Name = 
REMARK  6 active torsions:
REMARK  status: ('A' for Active; 'I' for Inactive)
REMARK    1  A    between atoms: C_1  and  C_2
REMARK    2  A    between atoms: C_10  and  C_11
REMARK    3  A    between atoms: C_11  and  N_12
REMARK    4  A    between atoms: N_18  and  O_19
REMARK    5  A    between atoms: O_19  and  C_20
REMARK    6  A    between atoms: C_20  and  C_21
REMARK                            x       y       z     vdW  Elec       q    Type
REMARK                         _______ _______ _______ _____ _____    ______ ____
ROOT
ATOM      1  C   UNL     1       1.838   1.393  18.581  0.00  0.00    +0.000 C 
ATOM      2  C   UNL     1       1.890   2.836  19.005  0.00  0.00    +0.000 A 
ATOM      3  C   UNL     1       1.026   3.264  20.023  0.00  0.00    +0.000 A 
ATOM      4  C   UNL     1       1.082   4.568  20.495  0.00  0.00    +0.000 A 
ATOM      5  C   UNL     1       1.983   5.469  19.936  0.00  0.00    +0.000 A 
ATOM      6  C   UNL     1       2.807   5.099  18.863  0.00  0.00    +0.000 A 
ATOM      7  C   UNL     1       2.788   3.760  18.411  0.00  0.00    +0.000 A 
ATOM      8  C   UNL     1       3.768   3.275  17.367  0.00  0.00    +0.000 C 
ATOM      9  C   UNL     1       4.429   4.393  16.575  0.00  0.00    +0.000 C 
ATOM     10  C   UNL     1       4.962   5.476  17.515  0.00  0.00    +0.000 C 
ATOM     11  C   UNL     1       3.740   6.088  18.216  0.00  0.00    +0.000 C 
ATOM     12  N   UNL     1       3.623   7.384  18.175  0.00  0.00    +0.000 NA
ENDROOT
BRANCH  10  13
ATOM     13  C   UNL     1       5.801   6.474  16.696  0.00  0.00    +0.000 C 
BRANCH  13  14
ATOM     14  N   UNL     1       6.849   7.150  17.433  0.00  0.00    +0.000 N 
ATOM     15  C   UNL     1       7.217   8.461  17.321  0.00  0.00    +0.000 A 
ATOM     16  C   UNL     1       8.296   8.596  18.164  0.00  0.00    +0.000 A 
ATOM     17  N   UNL     1       8.546   7.427  18.832  0.00  0.00    +0.000 NA
ATOM     18  C   UNL     1       7.657   6.576  18.375  0.00  0.00    +0.000 A 
ENDBRANCH  13  14
ENDBRANCH  10  13
BRANCH  12  19
ATOM     19  O   UNL     1       2.424   7.868  18.693  0.00  0.00    +0.000 OA
BRANCH  19  20
ATOM     20  C   UNL     1       1.792   8.718  17.731  0.00  0.00    +0.000 C 
BRANCH  20  21
ATOM     21  C   UNL     1       1.390   9.990  18.434  0.00  0.00    +0.000 A 
ATOM     22  C   UNL     1       0.339  10.014  19.362  0.00  0.00    +0.000 A 
ATOM     23  C   UNL     1      -0.014  11.206  19.999  0.00  0.00    +0.000 A 
ATOM     24  C   UNL     1       0.677  12.384  19.715  0.00  0.00    +0.000 A 
ATOM     25  C   UNL     1       1.716  12.373  18.788  0.00  0.00    +0.000 A 
ATOM     26  C   UNL     1       2.070  11.185  18.153  0.00  0.00    +0.000 A 
ENDBRANCH  20  21
ENDBRANCH  19  20
ENDBRANCH  12  19
TORSDOF 5
ENDMDL
