MODEL 1
REMARK VINA RESULT:      -7.7      0.000      0.000
REMARK  Name = 
REMARK  11 active torsions:
REMARK  status: ('A' for Active; 'I' for Inactive)
REMARK    1  A    between atoms: C_1  and  O_2
REMARK    2  A    between atoms: O_2  and  C_3
REMARK    3  A    between atoms: C_6  and  C_7
REMARK    4  A    between atoms: C_7  and  N_8
REMARK    5  A    between atoms: N_11  and  C_12
REMARK    6  A    between atoms: C_12  and  C_13
REMARK    7  A    between atoms: C_12  and  C_21
REMARK    8  A    between atoms: C_18  and  O_19
REMARK    9  A    between atoms: O_19  and  C_20
REMARK   10  A    between atoms: C_21  and  O_22
REMARK   11  A    between atoms: C_21  and  C_23
REMARK                            x       y       z     vdW  Elec       q    Type
REMARK                         _______ _______ _______ _____ _____    ______ ____
ROOT
ATOM      1  C   UNL     1       4.165   4.799  17.567  0.00  0.00    +0.000 C 
ENDROOT
BRANCH   1   5
ATOM      2  N   UNL     1       1.806   7.745  18.408  0.00  0.00    +0.000 NA
ATOM      3  C   UNL     1       2.721   7.736  17.244  0.00  0.00    +0.000 C 
ATOM      4  C   UNL     1       4.188   7.295  17.506  0.00  0.00    +0.000 C 
ATOM      5  N   UNL     1       4.363   6.081  18.344  0.00  0.00    +0.000 NA
ATOM      6  C   UNL     1       3.544   6.264  19.548  0.00  0.00    +0.000 C 
ATOM      7  C   UNL     1       2.056   6.553  19.251  0.00  0.00    +0.000 C 
BRANCH   2   8
ATOM      8  C   UNL     1       1.908   8.974  19.210  0.00  0.00    +0.000 C 
BRANCH   8  12
ATOM      9  C   UNL     1      -1.702  11.379  19.248  0.00  0.00    +0.000 A 
ATOM     10  C   UNL     1      -1.344  10.677  18.095  0.00  0.00    +0.000 A 
ATOM     11  C   UNL     1      -0.161   9.929  18.055  0.00  0.00    +0.000 A 
ATOM     12  C   UNL     1       0.701   9.892  19.158  0.00  0.00    +0.000 A 
ATOM     13  C   UNL     1       0.355  10.637  20.299  0.00  0.00    +0.000 A 
ATOM     14  C   UNL     1      -0.835  11.374  20.339  0.00  0.00    +0.000 A 
BRANCH   9  16
ATOM     15  C   UNL     1      -3.853  11.535  18.289  0.00  0.00    +0.000 C 
ATOM     16  O   UNL     1      -2.889  12.061  19.198  0.00  0.00    +0.000 OA
ENDBRANCH   9  16
ENDBRANCH   8  12
ENDBRANCH   2   8
ENDBRANCH   1   5
BRANCH   1  17
ATOM     17  C   UNL     1       5.208   4.795  16.427  0.00  0.00    +0.000 A 
ATOM     18  C   UNL     1       4.775   4.463  15.124  0.00  0.00    +0.000 A 
ATOM     19  C   UNL     1       5.681   4.303  14.079  0.00  0.00    +0.000 A 
ATOM     20  C   UNL     1       7.035   4.499  14.309  0.00  0.00    +0.000 A 
ATOM     21  C   UNL     1       7.483   4.860  15.582  0.00  0.00    +0.000 A 
ATOM     22  C   UNL     1       6.585   4.992  16.652  0.00  0.00    +0.000 A 
BRANCH  22  23
ATOM     23  O   UNL     1       6.974   5.282  17.935  0.00  0.00    +0.000 OA
ATOM     24  C   UNL     1       7.728   6.479  18.111  0.00  0.00    +0.000 C 
ENDBRANCH  22  23
ENDBRANCH   1  17
BRANCH   1  25
ATOM     25  C   UNL     1       4.300   3.440  18.408  0.00  0.00    +0.000 C 
BRANCH  25  26
ATOM     26  C   UNL     1       3.150   3.153  19.372  0.00  0.00    +0.000 A 
ATOM     27  C   UNL     1       3.419   2.946  20.736  0.00  0.00    +0.000 A 
ATOM     28  C   UNL     1       2.392   2.657  21.638  0.00  0.00    +0.000 A 
ATOM     29  C   UNL     1       1.073   2.590  21.197  0.00  0.00    +0.000 A 
ATOM     30  C   UNL     1       0.781   2.819  19.856  0.00  0.00    +0.000 A 
ATOM     31  C   UNL     1       1.811   3.091  18.950  0.00  0.00    +0.000 A 
ENDBRANCH  25  26
BRANCH  25  32
ATOM     32  O   UNL     1       5.506   3.386  19.193  0.00  0.00    +0.000 OA
ATOM     33  H   UNL     1       5.712   4.294  19.455  0.00  0.00    +0.000 HD
ENDBRANCH  25  32
ENDBRANCH   1  25
TORSDOF 9
ENDMDL
MODEL 2
REMARK VINA RESULT:      -7.7      0.477      1.340
REMARK  Name = 
REMARK  11 active torsions:
REMARK  status: ('A' for Active; 'I' for Inactive)
REMARK    1  A    between atoms: C_1  and  O_2
REMARK    2  A    between atoms: O_2  and  C_3
REMARK    3  A    between atoms: C_6  and  C_7
REMARK    4  A    between atoms: C_7  and  N_8
REMARK    5  A    between atoms: N_11  and  C_12
REMARK    6  A    between atoms: C_12  and  C_13
REMARK    7  A    between atoms: C_12  and  C_21
REMARK    8  A    between atoms: C_18  and  O_19
REMARK    9  A    between atoms: O_19  and  C_20
REMARK   10  A    between atoms: C_21  and  O_22
REMARK   11  A    between atoms: C_21  and  C_23
REMARK                            x       y       z     vdW  Elec       q    Type
REMARK                         _______ _______ _______ _____ _____    ______ ____
ROOT
ATOM      1  C   UNL     1       4.184   4.814  17.551  0.00  0.00    +0.000 C 
ENDROOT
BRANCH   1   5
ATOM      2  N   UNL     1       1.803   7.730  18.432  0.00  0.00    +0.000 NA
ATOM      3  C   UNL     1       2.685   7.725  17.243  0.00  0.00    +0.000 C 
ATOM      4  C   UNL     1       4.166   7.310  17.468  0.00  0.00    +0.000 C 
ATOM      5  N   UNL     1       4.383   6.106  18.311  0.00  0.00    +0.000 NA
ATOM      6  C   UNL     1       3.595   6.287  19.535  0.00  0.00    +0.000 C 
ATOM      7  C   UNL     1       2.095   6.550  19.278  0.00  0.00    +0.000 C 
BRANCH   2   8
ATOM      8  C   UNL     1       1.908   8.968  19.221  0.00  0.00    +0.000 C 
BRANCH   8  12
ATOM      9  C   UNL     1      -1.599  11.512  19.445  0.00  0.00    +0.000 A 
ATOM     10  C   UNL     1      -0.857  11.244  20.598  0.00  0.00    +0.000 A 
ATOM     11  C   UNL     1       0.253  10.393  20.548  0.00  0.00    +0.000 A 
ATOM     12  C   UNL     1       0.626   9.771  19.350  0.00  0.00    +0.000 A 
ATOM     13  C   UNL     1      -0.151  10.012  18.205  0.00  0.00    +0.000 A 
ATOM     14  C   UNL     1      -1.255  10.873  18.256  0.00  0.00    +0.000 A 
BRANCH   9  16
ATOM     15  C   UNL     1      -2.500  13.351  20.618  0.00  0.00    +0.000 C 
ATOM     16  O   UNL     1      -2.652  12.376  19.590  0.00  0.00    +0.000 OA
ENDBRANCH   9  16
ENDBRANCH   8  12
ENDBRANCH   2   8
ENDBRANCH   1   5
BRANCH   1  17
ATOM     17  C   UNL     1       5.210   4.807  16.396  0.00  0.00    +0.000 A 
ATOM     18  C   UNL     1       4.763   4.449  15.104  0.00  0.00    +0.000 A 
ATOM     19  C   UNL     1       5.655   4.285  14.049  0.00  0.00    +0.000 A 
ATOM     20  C   UNL     1       7.010   4.501  14.255  0.00  0.00    +0.000 A 
ATOM     21  C   UNL     1       7.472   4.887  15.516  0.00  0.00    +0.000 A 
ATOM     22  C   UNL     1       6.588   5.024  16.597  0.00  0.00    +0.000 A 
BRANCH  22  23
ATOM     23  O   UNL     1       6.992   5.338  17.870  0.00  0.00    +0.000 OA
ATOM     24  C   UNL     1       7.731   6.548  18.017  0.00  0.00    +0.000 C 
ENDBRANCH  22  23
ENDBRANCH   1  17
BRANCH   1  25
ATOM     25  C   UNL     1       4.343   3.465  18.405  0.00  0.00    +0.000 C 
BRANCH  25  26
ATOM     26  C   UNL     1       3.192   3.161  19.362  0.00  0.00    +0.000 A 
ATOM     27  C   UNL     1       1.876   3.099  18.872  0.00  0.00    +0.000 A 
ATOM     28  C   UNL     1       0.800   2.847  19.728  0.00  0.00    +0.000 A 
ATOM     29  C   UNL     1       1.021   2.632  21.085  0.00  0.00    +0.000 A 
ATOM     30  C   UNL     1       2.318   2.662  21.586  0.00  0.00    +0.000 A 
ATOM     31  C   UNL     1       3.394   2.930  20.734  0.00  0.00    +0.000 A 
ENDBRANCH  25  26
BRANCH  25  32
ATOM     32  O   UNL     1       5.544   3.445  19.199  0.00  0.00    +0.000 OA
ATOM     33  H   UNL     1       6.288   3.506  18.585  0.00  0.00    +0.000 HD
ENDBRANCH  25  32
ENDBRANCH   1  25
TORSDOF 9
ENDMDL
MODEL 3
REMARK VINA RESULT:      -7.3      2.915     10.491
REMARK  Name = 
REMARK  11 active torsions:
REMARK  status: ('A' for Active; 'I' for Inactive)
REMARK    1  A    between atoms: C_1  and  O_2
REMARK    2  A    between atoms: O_2  and  C_3
REMARK    3  A    between atoms: C_6  and  C_7
REMARK    4  A    between atoms: C_7  and  N_8
REMARK    5  A    between atoms: N_11  and  C_12
REMARK    6  A    between atoms: C_12  and  C_13
REMARK    7  A    between atoms: C_12  and  C_21
REMARK    8  A    between atoms: C_18  and  O_19
REMARK    9  A    between atoms: O_19  and  C_20
REMARK   10  A    between atoms: C_21  and  O_22
REMARK   11  A    between atoms: C_21  and  C_23
REMARK                            x       y       z     vdW  Elec       q    Type
REMARK                         _______ _______ _______ _____ _____    ______ ____
ROOT
ATOM      1  C   UNL     1      -1.682  12.141  21.349  0.00  0.00    +0.000 C 
ENDROOT
BRANCH   1   5
ATOM      2  N   UNL     1       0.095   8.728  20.974  0.00  0.00    +0.000 NA
ATOM      3  C   UNL     1      -0.560   9.177  22.224  0.00  0.00    +0.000 C 
ATOM      4  C   UNL     1      -0.240  10.619  22.706  0.00  0.00    +0.000 C 
ATOM      5  N   UNL     1      -0.278  11.677  21.663  0.00  0.00    +0.000 NA
ATOM      6  C   UNL     1       0.535  11.203  20.537  0.00  0.00    +0.000 C 
ATOM      7  C   UNL     1       0.095   9.830  19.985  0.00  0.00    +0.000 C 
BRANCH   2   8
ATOM      8  C   UNL     1       1.462   8.228  21.188  0.00  0.00    +0.000 C 
BRANCH   8  12
ATOM      9  C   UNL     1       2.872   4.796  18.939  0.00  0.00    +0.000 A 
ATOM     10  C   UNL     1       3.060   6.085  18.435  0.00  0.00    +0.000 A 
ATOM     11  C   UNL     1       2.574   7.199  19.131  0.00  0.00    +0.000 A 
ATOM     12  C   UNL     1       1.868   7.044  20.329  0.00  0.00    +0.000 A 
ATOM     13  C   UNL     1       1.646   5.741  20.807  0.00  0.00    +0.000 A 
ATOM     14  C   UNL     1       2.142   4.630  20.115  0.00  0.00    +0.000 A 
BRANCH   9  16
ATOM     15  C   UNL     1       2.527   3.209  17.228  0.00  0.00    +0.000 C 
ATOM     16  O   UNL     1       3.404   3.773  18.200  0.00  0.00    +0.000 OA
ENDBRANCH   9  16
ENDBRANCH   8  12
ENDBRANCH   2   8
ENDBRANCH   1   5
BRANCH   1  17
ATOM     17  C   UNL     1      -2.124  13.060  22.510  0.00  0.00    +0.000 A 
ATOM     18  C   UNL     1      -1.142  13.847  23.153  0.00  0.00    +0.000 A 
ATOM     19  C   UNL     1      -1.441  14.588  24.293  0.00  0.00    +0.000 A 
ATOM     20  C   UNL     1      -2.734  14.580  24.798  0.00  0.00    +0.000 A 
ATOM     21  C   UNL     1      -3.728  13.835  24.160  0.00  0.00    +0.000 A 
ATOM     22  C   UNL     1      -3.434  13.057  23.030  0.00  0.00    +0.000 A 
BRANCH  22  23
ATOM     23  O   UNL     1      -4.354  12.257  22.401  0.00  0.00    +0.000 OA
ATOM     24  C   UNL     1      -5.598  12.869  22.066  0.00  0.00    +0.000 C 
ENDBRANCH  22  23
ENDBRANCH   1  17
BRANCH   1  25
ATOM     25  C   UNL     1      -1.870  12.921  19.960  0.00  0.00    +0.000 C 
BRANCH  25  26
ATOM     26  C   UNL     1      -2.578  12.132  18.860  0.00  0.00    +0.000 A 
ATOM     27  C   UNL     1      -1.847  11.676  17.750  0.00  0.00    +0.000 A 
ATOM     28  C   UNL     1      -2.472  10.973  16.715  0.00  0.00    +0.000 A 
ATOM     29  C   UNL     1      -3.834  10.696  16.782  0.00  0.00    +0.000 A 
ATOM     30  C   UNL     1      -4.571  11.114  17.885  0.00  0.00    +0.000 A 
ATOM     31  C   UNL     1      -3.950  11.832  18.912  0.00  0.00    +0.000 A 
ENDBRANCH  25  26
BRANCH  25  32
ATOM     32  O   UNL     1      -0.622  13.367  19.397  0.00  0.00    +0.000 OA
ATOM     33  H   UNL     1      -0.372  12.721  18.722  0.00  0.00    +0.000 HD
ENDBRANCH  25  32
ENDBRANCH   1  25
TORSDOF 9
ENDMDL
MODEL 4
REMARK VINA RESULT:      -7.2      2.923     10.303
REMARK  Name = 
REMARK  11 active torsions:
REMARK  status: ('A' for Active; 'I' for Inactive)
REMARK    1  A    between atoms: C_1  and  O_2
REMARK    2  A    between atoms: O_2  and  C_3
REMARK    3  A    between atoms: C_6  and  C_7
REMARK    4  A    between atoms: C_7  and  N_8
REMARK    5  A    between atoms: N_11  and  C_12
REMARK    6  A    between atoms: C_12  and  C_13
REMARK    7  A    between atoms: C_12  and  C_21
REMARK    8  A    between atoms: C_18  and  O_19
REMARK    9  A    between atoms: O_19  and  C_20
REMARK   10  A    between atoms: C_21  and  O_22
REMARK   11  A    between atoms: C_21  and  C_23
REMARK                            x       y       z     vdW  Elec       q    Type
REMARK                         _______ _______ _______ _____ _____    ______ ____
ROOT
ATOM      1  C   UNL     1      -1.645  11.911  21.414  0.00  0.00    +0.000 C 
ENDROOT
BRANCH   1   5
ATOM      2  N   UNL     1       0.178   8.537  20.918  0.00  0.00    +0.000 NA
ATOM      3  C   UNL     1      -0.463   8.942  22.191  0.00  0.00    +0.000 C 
ATOM      4  C   UNL     1      -0.158  10.375  22.706  0.00  0.00    +0.000 C 
ATOM      5  N   UNL     1      -0.229  11.460  21.694  0.00  0.00    +0.000 NA
ATOM      6  C   UNL     1       0.573  11.030  20.543  0.00  0.00    +0.000 C 
ATOM      7  C   UNL     1       0.145   9.665  19.960  0.00  0.00    +0.000 C 
BRANCH   2   8
ATOM      8  C   UNL     1       1.556   8.053  21.098  0.00  0.00    +0.000 C 
BRANCH   8  12
ATOM      9  C   UNL     1       2.884   4.512  18.974  0.00  0.00    +0.000 A 
ATOM     10  C   UNL     1       3.028   5.771  18.387  0.00  0.00    +0.000 A 
ATOM     11  C   UNL     1       2.567   6.919  19.044  0.00  0.00    +0.000 A 
ATOM     12  C   UNL     1       1.929   6.826  20.286  0.00  0.00    +0.000 A 
ATOM     13  C   UNL     1       1.749   5.551  20.849  0.00  0.00    +0.000 A 
ATOM     14  C   UNL     1       2.221   4.406  20.195  0.00  0.00    +0.000 A 
BRANCH   9  16
ATOM     15  C   UNL     1       2.439   2.756  17.461  0.00  0.00    +0.000 C 
ATOM     16  O   UNL     1       3.387   3.452  18.266  0.00  0.00    +0.000 OA
ENDBRANCH   9  16
ENDBRANCH   8  12
ENDBRANCH   2   8
ENDBRANCH   1   5
BRANCH   1  17
ATOM     17  C   UNL     1      -2.124  12.692  22.658  0.00  0.00    +0.000 A 
ATOM     18  C   UNL     1      -3.362  12.335  23.238  0.00  0.00    +0.000 A 
ATOM     19  C   UNL     1      -3.921  13.083  24.270  0.00  0.00    +0.000 A 
ATOM     20  C   UNL     1      -3.241  14.188  24.763  0.00  0.00    +0.000 A 
ATOM     21  C   UNL     1      -2.001  14.541  24.227  0.00  0.00    +0.000 A 
ATOM     22  C   UNL     1      -1.441  13.816  23.164  0.00  0.00    +0.000 A 
BRANCH  22  23
ATOM     23  O   UNL     1      -0.258  14.154  22.557  0.00  0.00    +0.000 OA
ATOM     24  C   UNL     1      -0.049  15.543  22.312  0.00  0.00    +0.000 C 
ENDBRANCH  22  23
ENDBRANCH   1  17
BRANCH   1  25
ATOM     25  C   UNL     1      -1.847  12.823  20.110  0.00  0.00    +0.000 C 
BRANCH  25  26
ATOM     26  C   UNL     1      -2.563  12.142  18.944  0.00  0.00    +0.000 A 
ATOM     27  C   UNL     1      -1.827  11.736  17.817  0.00  0.00    +0.000 A 
ATOM     28  C   UNL     1      -2.457  11.133  16.725  0.00  0.00    +0.000 A 
ATOM     29  C   UNL     1      -3.830  10.907  16.747  0.00  0.00    +0.000 A 
ATOM     30  C   UNL     1      -4.573  11.276  17.863  0.00  0.00    +0.000 A 
ATOM     31  C   UNL     1      -3.946  11.894  18.950  0.00  0.00    +0.000 A 
ENDBRANCH  25  26
BRANCH  25  32
ATOM     32  O   UNL     1      -0.606  13.326  19.583  0.00  0.00    +0.000 OA
ATOM     33  H   UNL     1      -0.774  14.230  19.282  0.00  0.00    +0.000 HD
ENDBRANCH  25  32
ENDBRANCH   1  25
TORSDOF 9
ENDMDL
MODEL 5
REMARK VINA RESULT:      -7.2      3.502     11.167
REMARK  Name = 
REMARK  11 active torsions:
REMARK  status: ('A' for Active; 'I' for Inactive)
REMARK    1  A    between atoms: C_1  and  O_2
REMARK    2  A    between atoms: O_2  and  C_3
REMARK    3  A    between atoms: C_6  and  C_7
REMARK    4  A    between atoms: C_7  and  N_8
REMARK    5  A    between atoms: N_11  and  C_12
REMARK    6  A    between atoms: C_12  and  C_13
REMARK    7  A    between atoms: C_12  and  C_21
REMARK    8  A    between atoms: C_18  and  O_19
REMARK    9  A    between atoms: O_19  and  C_20
REMARK   10  A    between atoms: C_21  and  O_22
REMARK   11  A    between atoms: C_21  and  C_23
REMARK                            x       y       z     vdW  Elec       q    Type
REMARK                         _______ _______ _______ _____ _____    ______ ____
ROOT
ATOM      1  C   UNL     1      -1.641  12.153  21.586  0.00  0.00    +0.000 C 
ENDROOT
BRANCH   1   5
ATOM      2  N   UNL     1       0.168   8.806  20.895  0.00  0.00    +0.000 NA
ATOM      3  C   UNL     1      -0.615   9.075  22.124  0.00  0.00    +0.000 C 
ATOM      4  C   UNL     1      -0.348  10.425  22.844  0.00  0.00    +0.000 C 
ATOM      5  N   UNL     1      -0.277  11.626  21.972  0.00  0.00    +0.000 NA
ATOM      6  C   UNL     1       0.649  11.312  20.879  0.00  0.00    +0.000 C 
ATOM      7  C   UNL     1       0.270  10.041  20.086  0.00  0.00    +0.000 C 
BRANCH   2   8
ATOM      8  C   UNL     1       1.506   8.259  21.173  0.00  0.00    +0.000 C 
BRANCH   8  12
ATOM      9  C   UNL     1       2.477   5.020  18.456  0.00  0.00    +0.000 A 
ATOM     10  C   UNL     1       1.978   4.736  19.729  0.00  0.00    +0.000 A 
ATOM     11  C   UNL     1       1.698   5.770  20.631  0.00  0.00    +0.000 A 
ATOM     12  C   UNL     1       1.938   7.106  20.287  0.00  0.00    +0.000 A 
ATOM     13  C   UNL     1       2.481   7.380  19.021  0.00  0.00    +0.000 A 
ATOM     14  C   UNL     1       2.750   6.344  18.117  0.00  0.00    +0.000 A 
BRANCH   9  16
ATOM     15  C   UNL     1       3.438   2.878  18.224  0.00  0.00    +0.000 C 
ATOM     16  O   UNL     1       2.697   3.945  17.637  0.00  0.00    +0.000 OA
ENDBRANCH   9  16
ENDBRANCH   8  12
ENDBRANCH   2   8
ENDBRANCH   1   5
BRANCH   1  17
ATOM     17  C   UNL     1      -2.090  13.110  22.713  0.00  0.00    +0.000 A 
ATOM     18  C   UNL     1      -1.102  13.858  23.391  0.00  0.00    +0.000 A 
ATOM     19  C   UNL     1      -1.416  14.631  24.505  0.00  0.00    +0.000 A 
ATOM     20  C   UNL     1      -2.729  14.693  24.949  0.00  0.00    +0.000 A 
ATOM     21  C   UNL     1      -3.728  13.988  24.275  0.00  0.00    +0.000 A 
ATOM     22  C   UNL     1      -3.421  13.179  23.171  0.00  0.00    +0.000 A 
BRANCH  22  23
ATOM     23  O   UNL     1      -4.350  12.415  22.510  0.00  0.00    +0.000 OA
ATOM     24  C   UNL     1      -5.606  13.036  22.248  0.00  0.00    +0.000 C 
ENDBRANCH  22  23
ENDBRANCH   1  17
BRANCH   1  25
ATOM     25  C   UNL     1      -1.726  12.919  20.180  0.00  0.00    +0.000 C 
BRANCH  25  26
ATOM     26  C   UNL     1      -1.312  14.390  20.213  0.00  0.00    +0.000 A 
ATOM     27  C   UNL     1       0.036  14.738  20.022  0.00  0.00    +0.000 A 
ATOM     28  C   UNL     1       0.450  16.072  20.070  0.00  0.00    +0.000 A 
ATOM     29  C   UNL     1      -0.480  17.084  20.291  0.00  0.00    +0.000 A 
ATOM     30  C   UNL     1      -1.824  16.764  20.455  0.00  0.00    +0.000 A 
ATOM     31  C   UNL     1      -2.236  15.428  20.423  0.00  0.00    +0.000 A 
ENDBRANCH  25  26
BRANCH  25  32
ATOM     32  O   UNL     1      -3.046  12.885  19.605  0.00  0.00    +0.000 OA
ATOM     33  H   UNL     1      -3.121  13.657  19.027  0.00  0.00    +0.000 HD
ENDBRANCH  25  32
ENDBRANCH   1  25
TORSDOF 9
ENDMDL
MODEL 6
REMARK VINA RESULT:      -7.1      5.076      9.662
REMARK  Name = 
REMARK  11 active torsions:
REMARK  status: ('A' for Active; 'I' for Inactive)
REMARK    1  A    between atoms: C_1  and  O_2
REMARK    2  A    between atoms: O_2  and  C_3
REMARK    3  A    between atoms: C_6  and  C_7
REMARK    4  A    between atoms: C_7  and  N_8
REMARK    5  A    between atoms: N_11  and  C_12
REMARK    6  A    between atoms: C_12  and  C_13
REMARK    7  A    between atoms: C_12  and  C_21
REMARK    8  A    between atoms: C_18  and  O_19
REMARK    9  A    between atoms: O_19  and  C_20
REMARK   10  A    between atoms: C_21  and  O_22
REMARK   11  A    between atoms: C_21  and  C_23
REMARK                            x       y       z     vdW  Elec       q    Type
REMARK                         _______ _______ _______ _____ _____    ______ ____
ROOT
ATOM      1  C   UNL     1      -0.216  11.858  20.194  0.00  0.00    +0.000 C 
ENDROOT
BRANCH   1   5
ATOM      2  N   UNL     1       3.075  13.856  19.835  0.00  0.00    +0.000 NA
ATOM      3  C   UNL     1       2.147  14.006  20.980  0.00  0.00    +0.000 C 
ATOM      4  C   UNL     1       0.638  14.162  20.644  0.00  0.00    +0.000 C 
ATOM      5  N   UNL     1       0.097  13.224  19.626  0.00  0.00    +0.000 NA
ATOM      6  C   UNL     1       0.999  13.275  18.470  0.00  0.00    +0.000 C 
ATOM      7  C   UNL     1       2.473  12.968  18.815  0.00  0.00    +0.000 C 
BRANCH   2   8
ATOM      8  C   UNL     1       3.461  15.144  19.235  0.00  0.00    +0.000 C 
BRANCH   8  12
ATOM      9  C   UNL     1       7.750  15.368  18.625  0.00  0.00    +0.000 A 
ATOM     10  C   UNL     1       7.162  16.040  19.699  0.00  0.00    +0.000 A 
ATOM     11  C   UNL     1       5.774  16.010  19.885  0.00  0.00    +0.000 A 
ATOM     12  C   UNL     1       4.946  15.330  18.985  0.00  0.00    +0.000 A 
ATOM     13  C   UNL     1       5.541  14.692  17.883  0.00  0.00    +0.000 A 
ATOM     14  C   UNL     1       6.930  14.716  17.706  0.00  0.00    +0.000 A 
BRANCH   9  16
ATOM     15  C   UNL     1       9.617  16.266  17.497  0.00  0.00    +0.000 C 
ATOM     16  O   UNL     1       9.115  15.436  18.541  0.00  0.00    +0.000 OA
ENDBRANCH   9  16
ENDBRANCH   8  12
ENDBRANCH   2   8
ENDBRANCH   1   5
BRANCH   1  17
ATOM     17  C   UNL     1      -1.443  12.023  21.118  0.00  0.00    +0.000 A 
ATOM     18  C   UNL     1      -2.599  12.644  20.592  0.00  0.00    +0.000 A 
ATOM     19  C   UNL     1      -3.687  12.952  21.403  0.00  0.00    +0.000 A 
ATOM     20  C   UNL     1      -3.655  12.622  22.751  0.00  0.00    +0.000 A 
ATOM     21  C   UNL     1      -2.536  11.979  23.285  0.00  0.00    +0.000 A 
ATOM     22  C   UNL     1      -1.419  11.692  22.487  0.00  0.00    +0.000 A 
BRANCH  22  23
ATOM     23  O   UNL     1      -0.269  11.119  22.971  0.00  0.00    +0.000 OA
ATOM     24  C   UNL     1      -0.351   9.740  23.322  0.00  0.00    +0.000 C 
ENDBRANCH  22  23
ENDBRANCH   1  17
BRANCH   1  25
ATOM     25  C   UNL     1      -0.516  10.704  19.121  0.00  0.00    +0.000 C 
BRANCH  25  26
ATOM     26  C   UNL     1       0.564   9.629  19.001  0.00  0.00    +0.000 A 
ATOM     27  C   UNL     1       0.885   8.837  20.116  0.00  0.00    +0.000 A 
ATOM     28  C   UNL     1       1.885   7.863  20.044  0.00  0.00    +0.000 A 
ATOM     29  C   UNL     1       2.567   7.649  18.850  0.00  0.00    +0.000 A 
ATOM     30  C   UNL     1       2.246   8.403  17.726  0.00  0.00    +0.000 A 
ATOM     31  C   UNL     1       1.257   9.390  17.802  0.00  0.00    +0.000 A 
ENDBRANCH  25  26
BRANCH  25  32
ATOM     32  O   UNL     1      -0.724  11.217  17.792  0.00  0.00    +0.000 OA
ATOM     33  H   UNL     1       0.151  11.370  17.410  0.00  0.00    +0.000 HD
ENDBRANCH  25  32
ENDBRANCH   1  25
TORSDOF 9
ENDMDL
MODEL 7
REMARK VINA RESULT:      -7.1      3.507     11.219
REMARK  Name = 
REMARK  11 active torsions:
REMARK  status: ('A' for Active; 'I' for Inactive)
REMARK    1  A    between atoms: C_1  and  O_2
REMARK    2  A    between atoms: O_2  and  C_3
REMARK    3  A    between atoms: C_6  and  C_7
REMARK    4  A    between atoms: C_7  and  N_8
REMARK    5  A    between atoms: N_11  and  C_12
REMARK    6  A    between atoms: C_12  and  C_13
REMARK    7  A    between atoms: C_12  and  C_21
REMARK    8  A    between atoms: C_18  and  O_19
REMARK    9  A    between atoms: O_19  and  C_20
REMARK   10  A    between atoms: C_21  and  O_22
REMARK   11  A    between atoms: C_21  and  C_23
REMARK                            x       y       z     vdW  Elec       q    Type
REMARK                         _______ _______ _______ _____ _____    ______ ____
ROOT
ATOM      1  C   UNL     1      -1.717  12.174  21.523  0.00  0.00    +0.000 C 
ENDROOT
BRANCH   1   5
ATOM      2  N   UNL     1       0.095   8.830  20.824  0.00  0.00    +0.000 NA
ATOM      3  C   UNL     1      -0.670   9.104  22.064  0.00  0.00    +0.000 C 
ATOM      4  C   UNL     1      -0.397  10.460  22.771  0.00  0.00    +0.000 C 
ATOM      5  N   UNL     1      -0.345  11.655  21.891  0.00  0.00    +0.000 NA
ATOM      6  C   UNL     1       0.566  11.338  20.785  0.00  0.00    +0.000 C 
ATOM      7  C   UNL     1       0.179  10.061  20.006  0.00  0.00    +0.000 C 
BRANCH   2   8
ATOM      8  C   UNL     1       1.439   8.291  21.085  0.00  0.00    +0.000 C 
BRANCH   8  12
ATOM      9  C   UNL     1       3.002   5.096  18.601  0.00  0.00    +0.000 A 
ATOM     10  C   UNL     1       3.020   6.413  18.137  0.00  0.00    +0.000 A 
ATOM     11  C   UNL     1       2.483   7.449  18.911  0.00  0.00    +0.000 A 
ATOM     12  C   UNL     1       1.892   7.183  20.151  0.00  0.00    +0.000 A 
ATOM     13  C   UNL     1       1.838   5.850  20.592  0.00  0.00    +0.000 A 
ATOM     14  C   UNL     1       2.387   4.818  19.820  0.00  0.00    +0.000 A 
BRANCH   9  16
ATOM     15  C   UNL     1       2.773   3.004  17.534  0.00  0.00    +0.000 C 
ATOM     16  O   UNL     1       3.573   4.157  17.784  0.00  0.00    +0.000 OA
ENDBRANCH   9  16
ENDBRANCH   8  12
ENDBRANCH   2   8
ENDBRANCH   1   5
BRANCH   1  17
ATOM     17  C   UNL     1      -2.179  13.086  22.681  0.00  0.00    +0.000 A 
ATOM     18  C   UNL     1      -1.200  13.820  23.388  0.00  0.00    +0.000 A 
ATOM     19  C   UNL     1      -1.525  14.550  24.528  0.00  0.00    +0.000 A 
ATOM     20  C   UNL     1      -2.841  14.584  24.969  0.00  0.00    +0.000 A 
ATOM     21  C   UNL     1      -3.831  13.893  24.268  0.00  0.00    +0.000 A 
ATOM     22  C   UNL     1      -3.512  13.126  23.137  0.00  0.00    +0.000 A 
BRANCH  22  23
ATOM     23  O   UNL     1      -4.431  12.376  22.446  0.00  0.00    +0.000 OA
ATOM     24  C   UNL     1      -5.703  12.982  22.229  0.00  0.00    +0.000 C 
ENDBRANCH  22  23
ENDBRANCH   1  17
BRANCH   1  25
ATOM     25  C   UNL     1      -1.815  12.985  20.143  0.00  0.00    +0.000 C 
BRANCH  25  26
ATOM     26  C   UNL     1      -1.426  14.461  20.225  0.00  0.00    +0.000 A 
ATOM     27  C   UNL     1      -2.419  15.432  20.438  0.00  0.00    +0.000 A 
ATOM     28  C   UNL     1      -2.098  16.791  20.494  0.00  0.00    +0.000 A 
ATOM     29  C   UNL     1      -0.776  17.203  20.357  0.00  0.00    +0.000 A 
ATOM     30  C   UNL     1       0.227  16.256  20.173  0.00  0.00    +0.000 A 
ATOM     31  C   UNL     1      -0.096  14.897  20.101  0.00  0.00    +0.000 A 
ENDBRANCH  25  26
BRANCH  25  32
ATOM     32  O   UNL     1      -3.133  12.947  19.566  0.00  0.00    +0.000 OA
ATOM     33  H   UNL     1      -3.469  12.049  19.690  0.00  0.00    +0.000 HD
ENDBRANCH  25  32
ENDBRANCH   1  25
TORSDOF 9
ENDMDL
MODEL 8
REMARK VINA RESULT:      -6.9      5.240      9.540
REMARK  Name = 
REMARK  11 active torsions:
REMARK  status: ('A' for Active; 'I' for Inactive)
REMARK    1  A    between atoms: C_1  and  O_2
REMARK    2  A    between atoms: O_2  and  C_3
REMARK    3  A    between atoms: C_6  and  C_7
REMARK    4  A    between atoms: C_7  and  N_8
REMARK    5  A    between atoms: N_11  and  C_12
REMARK    6  A    between atoms: C_12  and  C_13
REMARK    7  A    between atoms: C_12  and  C_21
REMARK    8  A    between atoms: C_18  and  O_19
REMARK    9  A    between atoms: O_19  and  C_20
REMARK   10  A    between atoms: C_21  and  O_22
REMARK   11  A    between atoms: C_21  and  C_23
REMARK                            x       y       z     vdW  Elec       q    Type
REMARK                         _______ _______ _______ _____ _____    ______ ____
ROOT
ATOM      1  C   UNL     1      -0.831  11.897  19.836  0.00  0.00    +0.000 C 
ENDROOT
BRANCH   1   5
ATOM      2  N   UNL     1       2.213  13.917  18.568  0.00  0.00    +0.000 NA
ATOM      3  C   UNL     1       2.274  12.973  19.708  0.00  0.00    +0.000 C 
ATOM      4  C   UNL     1       1.153  13.088  20.776  0.00  0.00    +0.000 C 
ATOM      5  N   UNL     1      -0.232  13.221  20.255  0.00  0.00    +0.000 NA
ATOM      6  C   UNL     1      -0.216  14.292  19.254  0.00  0.00    +0.000 C 
ATOM      7  C   UNL     1       0.810  14.072  18.121  0.00  0.00    +0.000 C 
BRANCH   2   8
ATOM      8  C   UNL     1       2.803  15.230  18.877  0.00  0.00    +0.000 C 
BRANCH   8  12
ATOM      9  C   UNL     1       7.117  15.678  18.769  0.00  0.00    +0.000 A 
ATOM     10  C   UNL     1       6.476  14.866  17.830  0.00  0.00    +0.000 A 
ATOM     11  C   UNL     1       5.089  14.680  17.878  0.00  0.00    +0.000 A 
ATOM     12  C   UNL     1       4.320  15.280  18.881  0.00  0.00    +0.000 A 
ATOM     13  C   UNL     1       4.977  16.060  19.848  0.00  0.00    +0.000 A 
ATOM     14  C   UNL     1       6.363  16.253  19.791  0.00  0.00    +0.000 A 
BRANCH   9  16
ATOM     15  C   UNL     1       9.171  14.624  18.282  0.00  0.00    +0.000 C 
ATOM     16  O   UNL     1       8.472  15.817  18.626  0.00  0.00    +0.000 OA
ENDBRANCH   9  16
ENDBRANCH   8  12
ENDBRANCH   2   8
ENDBRANCH   1   5
BRANCH   1  17
ATOM     17  C   UNL     1      -0.523  10.885  20.961  0.00  0.00    +0.000 A 
ATOM     18  C   UNL     1      -1.089  11.108  22.237  0.00  0.00    +0.000 A 
ATOM     19  C   UNL     1      -0.743  10.319  23.330  0.00  0.00    +0.000 A 
ATOM     20  C   UNL     1       0.155   9.274  23.166  0.00  0.00    +0.000 A 
ATOM     21  C   UNL     1       0.702   9.014  21.908  0.00  0.00    +0.000 A 
ATOM     22  C   UNL     1       0.389   9.822  20.804  0.00  0.00    +0.000 A 
BRANCH  22  23
ATOM     23  O   UNL     1       0.944   9.653  19.560  0.00  0.00    +0.000 OA
ATOM     24  C   UNL     1       1.738   8.484  19.378  0.00  0.00    +0.000 C 
ENDBRANCH  22  23
ENDBRANCH   1  17
BRANCH   1  25
ATOM     25  C   UNL     1      -2.408  11.899  19.547  0.00  0.00    +0.000 C 
BRANCH  25  26
ATOM     26  C   UNL     1      -2.823  11.347  18.184  0.00  0.00    +0.000 A 
ATOM     27  C   UNL     1      -1.960  10.479  17.493  0.00  0.00    +0.000 A 
ATOM     28  C   UNL     1      -2.300   9.976  16.234  0.00  0.00    +0.000 A 
ATOM     29  C   UNL     1      -3.518  10.316  15.651  0.00  0.00    +0.000 A 
ATOM     30  C   UNL     1      -4.398  11.153  16.330  0.00  0.00    +0.000 A 
ATOM     31  C   UNL     1      -4.051  11.669  17.582  0.00  0.00    +0.000 A 
ENDBRANCH  25  26
BRANCH  25  32
ATOM     32  O   UNL     1      -2.992  13.212  19.644  0.00  0.00    +0.000 OA
ATOM     33  H   UNL     1      -2.260  13.841  19.709  0.00  0.00    +0.000 HD
ENDBRANCH  25  32
ENDBRANCH   1  25
TORSDOF 9
ENDMDL
MODEL 9
REMARK VINA RESULT:      -6.9      3.059     10.579
REMARK  Name = 
REMARK  11 active torsions:
REMARK  status: ('A' for Active; 'I' for Inactive)
REMARK    1  A    between atoms: C_1  and  O_2
REMARK    2  A    between atoms: O_2  and  C_3
REMARK    3  A    between atoms: C_6  and  C_7
REMARK    4  A    between atoms: C_7  and  N_8
REMARK    5  A    between atoms: N_11  and  C_12
REMARK    6  A    between atoms: C_12  and  C_13
REMARK    7  A    between atoms: C_12  and  C_21
REMARK    8  A    between atoms: C_18  and  O_19
REMARK    9  A    between atoms: O_19  and  C_20
REMARK   10  A    between atoms: C_21  and  O_22
REMARK   11  A    between atoms: C_21  and  C_23
REMARK                            x       y       z     vdW  Elec       q    Type
REMARK                         _______ _______ _______ _____ _____    ______ ____
ROOT
ATOM      1  C   UNL     1      -0.542  12.083  20.009  0.00  0.00    +0.000 C 
ENDROOT
BRANCH   1   5
ATOM      2  N   UNL     1       0.695   8.420  20.031  0.00  0.00    +0.000 NA
ATOM      3  C   UNL     1      -0.135   9.010  21.106  0.00  0.00    +0.000 C 
ATOM      4  C   UNL     1       0.301  10.398  21.649  0.00  0.00    +0.000 C 
ATOM      5  N   UNL     1       0.665  11.412  20.626  0.00  0.00    +0.000 NA
ATOM      6  C   UNL     1       1.617  10.777  19.707  0.00  0.00    +0.000 C 
ATOM      7  C   UNL     1       1.090   9.473  19.068  0.00  0.00    +0.000 C 
BRANCH   2   8
ATOM      8  C   UNL     1       1.883   7.716  20.541  0.00  0.00    +0.000 C 
BRANCH   8  12
ATOM      9  C   UNL     1       2.120   3.682  18.964  0.00  0.00    +0.000 A 
ATOM     10  C   UNL     1       1.572   3.905  20.229  0.00  0.00    +0.000 A 
ATOM     11  C   UNL     1       1.525   5.197  20.767  0.00  0.00    +0.000 A 
ATOM     12  C   UNL     1       2.051   6.286  20.063  0.00  0.00    +0.000 A 
ATOM     13  C   UNL     1       2.641   6.047  18.810  0.00  0.00    +0.000 A 
ATOM     14  C   UNL     1       2.675   4.755  18.269  0.00  0.00    +0.000 A 
BRANCH   9  16
ATOM     15  C   UNL     1       3.371   1.845  18.172  0.00  0.00    +0.000 C 
ATOM     16  O   UNL     1       2.098   2.389  18.513  0.00  0.00    +0.000 OA
ENDBRANCH   9  16
ENDBRANCH   8  12
ENDBRANCH   2   8
ENDBRANCH   1   5
BRANCH   1  17
ATOM     17  C   UNL     1      -1.080  13.089  21.051  0.00  0.00    +0.000 A 
ATOM     18  C   UNL     1      -0.166  13.659  21.967  0.00  0.00    +0.000 A 
ATOM     19  C   UNL     1      -0.601  14.461  23.018  0.00  0.00    +0.000 A 
ATOM     20  C   UNL     1      -1.954  14.734  23.160  0.00  0.00    +0.000 A 
ATOM     21  C   UNL     1      -2.872  14.208  22.248  0.00  0.00    +0.000 A 
ATOM     22  C   UNL     1      -2.452  13.371  21.203  0.00  0.00    +0.000 A 
BRANCH  22  23
ATOM     23  O   UNL     1      -3.314  12.776  20.316  0.00  0.00    +0.000 OA
ATOM     24  C   UNL     1      -4.675  13.196  20.381  0.00  0.00    +0.000 C 
ENDBRANCH  22  23
ENDBRANCH   1  17
BRANCH   1  25
ATOM     25  C   UNL     1      -0.288  12.847  18.622  0.00  0.00    +0.000 C 
BRANCH  25  26
ATOM     26  C   UNL     1       0.314  14.245  18.748  0.00  0.00    +0.000 A 
ATOM     27  C   UNL     1       1.707  14.395  18.867  0.00  0.00    +0.000 A 
ATOM     28  C   UNL     1       2.286  15.659  19.008  0.00  0.00    +0.000 A 
ATOM     29  C   UNL     1       1.486  16.798  19.013  0.00  0.00    +0.000 A 
ATOM     30  C   UNL     1       0.107  16.674  18.870  0.00  0.00    +0.000 A 
ATOM     31  C   UNL     1      -0.474  15.409  18.745  0.00  0.00    +0.000 A 
ENDBRANCH  25  26
BRANCH  25  32
ATOM     32  O   UNL     1      -1.488  12.994  17.839  0.00  0.00    +0.000 OA
ATOM     33  H   UNL     1      -1.824  13.885  18.006  0.00  0.00    +0.000 HD
ENDBRANCH  25  32
ENDBRANCH   1  25
TORSDOF 9
ENDMDL
