MODEL 1
REMARK VINA RESULT:      -8.4      0.000      0.000
REMARK  Name = 
REMARK  6 active torsions:
REMARK  status: ('A' for Active; 'I' for Inactive)
REMARK    1  A    between atoms: C_2  and  C_19
REMARK    2  A    between atoms: N_3  and  C_4
REMARK    3  A    between atoms: C_8  and  S_9
REMARK    4  A    between atoms: S_9  and  N_12
REMARK    5  A    between atoms: C_22  and  S_23
REMARK    6  A    between atoms: S_23  and  C_26
REMARK                            x       y       z     vdW  Elec       q    Type
REMARK                         _______ _______ _______ _____ _____    ______ ____
ROOT
ATOM      1  O   UNL     1       8.446   7.074  18.873  0.00  0.00    +0.000 OA
ATOM      2  C   UNL     1       7.928   7.930  18.180  0.00  0.00    +0.000 C 
ATOM      3  N   UNL     1       6.927   7.736  17.220  0.00  0.00    +0.000 N 
ATOM      4  H   UNL     1       6.707   8.495  16.597  0.00  0.00    +0.000 HD
ENDROOT
BRANCH   3   5
ATOM      5  C   UNL     1       6.353   6.486  16.906  0.00  0.00    +0.000 A 
ATOM      6  C   UNL     1       6.999   5.551  16.095  0.00  0.00    +0.000 A 
ATOM      7  C   UNL     1       6.400   4.332  15.793  0.00  0.00    +0.000 A 
ATOM      8  C   UNL     1       5.124   4.037  16.275  0.00  0.00    +0.000 A 
ATOM      9  C   UNL     1       4.453   4.982  17.053  0.00  0.00    +0.000 A 
ATOM     10  C   UNL     1       5.082   6.183  17.411  0.00  0.00    +0.000 A 
BRANCH   9  11
ATOM     11  S   UNL     1       2.806   4.597  17.641  0.00  0.00    +0.000 S 
ATOM     12  O   UNL     1       2.072   5.841  17.715  0.00  0.00    +0.000 OA
ATOM     13  O   UNL     1       2.327   3.483  16.856  0.00  0.00    +0.000 OA
BRANCH  11  14
ATOM     14  N   UNL     1       3.051   4.035  19.258  0.00  0.00    +0.000 NA
ATOM     15  C   UNL     1       1.983   4.410  20.217  0.00  0.00    +0.000 C 
ATOM     16  C   UNL     1       2.214   3.881  21.626  0.00  0.00    +0.000 C 
ATOM     17  C   UNL     1       2.596   2.412  21.630  0.00  0.00    +0.000 C 
ATOM     18  C   UNL     1       3.854   2.218  20.804  0.00  0.00    +0.000 C 
ATOM     19  C   UNL     1       3.667   2.687  19.367  0.00  0.00    +0.000 C 
ENDBRANCH  11  14
ENDBRANCH   9  11
ENDBRANCH   3   5
BRANCH   2  20
ATOM     20  C   UNL     1       8.442   9.313  18.271  0.00  0.00    +0.000 A 
ATOM     21  C   UNL     1       7.935  10.297  17.411  0.00  0.00    +0.000 A 
ATOM     22  C   UNL     1       8.383  11.616  17.533  0.00  0.00    +0.000 A 
ATOM     23  C   UNL     1       9.332  11.951  18.506  0.00  0.00    +0.000 A 
ATOM     24  C   UNL     1       9.898  10.958  19.315  0.00  0.00    +0.000 A 
ATOM     25  C   UNL     1       9.441   9.640  19.193  0.00  0.00    +0.000 A 
BRANCH  23  26
ATOM     26  S   UNL     1       9.868  13.645  18.604  0.00  0.00    +0.000 S 
ATOM     27  O   UNL     1       8.831  14.455  17.997  0.00  0.00    +0.000 OA
ATOM     28  O   UNL     1      10.232  13.884  19.998  0.00  0.00    +0.000 OA
BRANCH  26  29
ATOM     29  C   UNL     1      11.362  13.718  17.597  0.00  0.00    +0.000 C 
ATOM     30  F   UNL     1      11.120  13.492  16.274  0.00  0.00    +0.000 F 
ATOM     31  F   UNL     1      11.987  14.927  17.667  0.00  0.00    +0.000 F 
ENDBRANCH  26  29
ENDBRANCH  23  26
ENDBRANCH   2  20
TORSDOF 6
ENDMDL
MODEL 2
REMARK VINA RESULT:      -8.4      6.183      8.301
REMARK  Name = 
REMARK  6 active torsions:
REMARK  status: ('A' for Active; 'I' for Inactive)
REMARK    1  A    between atoms: C_2  and  C_19
REMARK    2  A    between atoms: N_3  and  C_4
REMARK    3  A    between atoms: C_8  and  S_9
REMARK    4  A    between atoms: S_9  and  N_12
REMARK    5  A    between atoms: C_22  and  S_23
REMARK    6  A    between atoms: S_23  and  C_26
REMARK                            x       y       z     vdW  Elec       q    Type
REMARK                         _______ _______ _______ _____ _____    ______ ____
ROOT
ATOM      1  O   UNL     1       2.011   6.209  20.521  0.00  0.00    +0.000 OA
ATOM      2  C   UNL     1       2.063   7.115  19.709  0.00  0.00    +0.000 C 
ATOM      3  N   UNL     1       2.693   7.081  18.458  0.00  0.00    +0.000 N 
ATOM      4  H   UNL     1       2.811   7.945  17.958  0.00  0.00    +0.000 HD
ENDROOT
BRANCH   3   5
ATOM      5  C   UNL     1       3.376   5.961  17.939  0.00  0.00    +0.000 A 
ATOM      6  C   UNL     1       2.856   4.668  18.012  0.00  0.00    +0.000 A 
ATOM      7  C   UNL     1       3.561   3.583  17.502  0.00  0.00    +0.000 A 
ATOM      8  C   UNL     1       4.822   3.769  16.932  0.00  0.00    +0.000 A 
ATOM      9  C   UNL     1       5.369   5.052  16.891  0.00  0.00    +0.000 A 
ATOM     10  C   UNL     1       4.631   6.155  17.346  0.00  0.00    +0.000 A 
BRANCH   9  11
ATOM     11  S   UNL     1       6.998   5.268  16.181  0.00  0.00    +0.000 S 
ATOM     12  O   UNL     1       7.380   6.648  16.384  0.00  0.00    +0.000 OA
ATOM     13  O   UNL     1       7.817   4.179  16.663  0.00  0.00    +0.000 OA
BRANCH  11  14
ATOM     14  N   UNL     1       6.759   5.035  14.484  0.00  0.00    +0.000 NA
ATOM     15  C   UNL     1       7.902   5.441  13.630  0.00  0.00    +0.000 C 
ATOM     16  C   UNL     1       7.672   5.202  12.145  0.00  0.00    +0.000 C 
ATOM     17  C   UNL     1       7.123   3.814  11.868  0.00  0.00    +0.000 C 
ATOM     18  C   UNL     1       5.817   3.630  12.619  0.00  0.00    +0.000 C 
ATOM     19  C   UNL     1       5.997   3.811  14.120  0.00  0.00    +0.000 C 
ENDBRANCH  11  14
ENDBRANCH   9  11
ENDBRANCH   3   5
BRANCH   2  20
ATOM     20  C   UNL     1       1.491   8.425  20.082  0.00  0.00    +0.000 A 
ATOM     21  C   UNL     1       1.210   8.699  21.428  0.00  0.00    +0.000 A 
ATOM     22  C   UNL     1       0.718   9.958  21.787  0.00  0.00    +0.000 A 
ATOM     23  C   UNL     1       0.507  10.937  20.809  0.00  0.00    +0.000 A 
ATOM     24  C   UNL     1       0.714  10.643  19.455  0.00  0.00    +0.000 A 
ATOM     25  C   UNL     1       1.212   9.383  19.103  0.00  0.00    +0.000 A 
BRANCH  23  26
ATOM     26  S   UNL     1      -0.128  12.516  21.329  0.00  0.00    +0.000 S 
ATOM     27  O   UNL     1       1.012  13.328  21.709  0.00  0.00    +0.000 OA
ATOM     28  O   UNL     1      -1.008  12.981  20.261  0.00  0.00    +0.000 OA
BRANCH  26  29
ATOM     29  C   UNL     1      -1.128  12.156  22.786  0.00  0.00    +0.000 C 
ATOM     30  F   UNL     1      -1.142  13.182  23.684  0.00  0.00    +0.000 F 
ATOM     31  F   UNL     1      -2.432  11.902  22.480  0.00  0.00    +0.000 F 
ENDBRANCH  26  29
ENDBRANCH  23  26
ENDBRANCH   2  20
TORSDOF 6
ENDMDL
MODEL 3
REMARK VINA RESULT:      -8.4      6.415      8.982
REMARK  Name = 
REMARK  6 active torsions:
REMARK  status: ('A' for Active; 'I' for Inactive)
REMARK    1  A    between atoms: C_2  and  C_19
REMARK    2  A    between atoms: N_3  and  C_4
REMARK    3  A    between atoms: C_8  and  S_9
REMARK    4  A    between atoms: S_9  and  N_12
REMARK    5  A    between atoms: C_22  and  S_23
REMARK    6  A    between atoms: S_23  and  C_26
REMARK                            x       y       z     vdW  Elec       q    Type
REMARK                         _______ _______ _______ _____ _____    ______ ____
ROOT
ATOM      1  O   UNL     1       1.408   6.098  20.152  0.00  0.00    +0.000 OA
ATOM      2  C   UNL     1       2.269   6.897  19.832  0.00  0.00    +0.000 C 
ATOM      3  N   UNL     1       2.262   8.276  20.075  0.00  0.00    +0.000 N 
ATOM      4  H   UNL     1       2.948   8.847  19.610  0.00  0.00    +0.000 HD
ENDROOT
BRANCH   3   5
ATOM      5  C   UNL     1       1.229   8.963  20.746  0.00  0.00    +0.000 A 
ATOM      6  C   UNL     1       0.820   8.621  22.036  0.00  0.00    +0.000 A 
ATOM      7  C   UNL     1      -0.211   9.311  22.666  0.00  0.00    +0.000 A 
ATOM      8  C   UNL     1      -0.876  10.342  22.001  0.00  0.00    +0.000 A 
ATOM      9  C   UNL     1      -0.502  10.665  20.696  0.00  0.00    +0.000 A 
ATOM     10  C   UNL     1       0.580  10.014  20.085  0.00  0.00    +0.000 A 
BRANCH   9  11
ATOM     11  S   UNL     1      -1.384  11.972  19.848  0.00  0.00    +0.000 S 
ATOM     12  O   UNL     1      -2.256  12.604  20.814  0.00  0.00    +0.000 OA
ATOM     13  O   UNL     1      -0.403  12.731  19.106  0.00  0.00    +0.000 OA
BRANCH  11  14
ATOM     14  N   UNL     1      -2.382  11.143  18.705  0.00  0.00    +0.000 NA
ATOM     15  C   UNL     1      -3.746  11.704  18.543  0.00  0.00    +0.000 C 
ATOM     16  C   UNL     1      -4.592  10.969  17.514  0.00  0.00    +0.000 C 
ATOM     17  C   UNL     1      -3.837  10.729  16.219  0.00  0.00    +0.000 C 
ATOM     18  C   UNL     1      -2.582   9.927  16.510  0.00  0.00    +0.000 C 
ATOM     19  C   UNL     1      -1.671  10.638  17.501  0.00  0.00    +0.000 C 
ENDBRANCH  11  14
ENDBRANCH   9  11
ENDBRANCH   3   5
BRANCH   2  20
ATOM     20  C   UNL     1       3.411   6.412  19.029  0.00  0.00    +0.000 A 
ATOM     21  C   UNL     1       3.690   7.012  17.792  0.00  0.00    +0.000 A 
ATOM     22  C   UNL     1       4.801   6.589  17.057  0.00  0.00    +0.000 A 
ATOM     23  C   UNL     1       5.629   5.574  17.550  0.00  0.00    +0.000 A 
ATOM     24  C   UNL     1       5.311   4.920  18.748  0.00  0.00    +0.000 A 
ATOM     25  C   UNL     1       4.201   5.352  19.483  0.00  0.00    +0.000 A 
BRANCH  23  26
ATOM     26  S   UNL     1       7.023   5.076  16.563  0.00  0.00    +0.000 S 
ATOM     27  O   UNL     1       7.538   6.270  15.922  0.00  0.00    +0.000 OA
ATOM     28  O   UNL     1       7.900   4.306  17.441  0.00  0.00    +0.000 OA
BRANCH  26  29
ATOM     29  C   UNL     1       6.336   3.967  15.318  0.00  0.00    +0.000 C 
ATOM     30  F   UNL     1       5.659   2.916  15.861  0.00  0.00    +0.000 F 
ATOM     31  F   UNL     1       5.459   4.592  14.482  0.00  0.00    +0.000 F 
ENDBRANCH  26  29
ENDBRANCH  23  26
ENDBRANCH   2  20
TORSDOF 6
ENDMDL
MODEL 4
REMARK VINA RESULT:      -8.2      6.513      9.262
REMARK  Name = 
REMARK  6 active torsions:
REMARK  status: ('A' for Active; 'I' for Inactive)
REMARK    1  A    between atoms: C_2  and  C_19
REMARK    2  A    between atoms: N_3  and  C_4
REMARK    3  A    between atoms: C_8  and  S_9
REMARK    4  A    between atoms: S_9  and  N_12
REMARK    5  A    between atoms: C_22  and  S_23
REMARK    6  A    between atoms: S_23  and  C_26
REMARK                            x       y       z     vdW  Elec       q    Type
REMARK                         _______ _______ _______ _____ _____    ______ ____
ROOT
ATOM      1  O   UNL     1       1.368   6.407  20.803  0.00  0.00    +0.000 OA
ATOM      2  C   UNL     1       1.930   7.154  20.023  0.00  0.00    +0.000 C 
ATOM      3  N   UNL     1       1.743   8.537  19.908  0.00  0.00    +0.000 N 
ATOM      4  H   UNL     1       2.139   9.010  19.113  0.00  0.00    +0.000 HD
ENDROOT
BRANCH   3   5
ATOM      5  C   UNL     1       0.854   9.292  20.702  0.00  0.00    +0.000 A 
ATOM      6  C   UNL     1       0.653   9.025  22.057  0.00  0.00    +0.000 A 
ATOM      7  C   UNL     1      -0.242   9.780  22.810  0.00  0.00    +0.000 A 
ATOM      8  C   UNL     1      -0.978  10.802  22.209  0.00  0.00    +0.000 A 
ATOM      9  C   UNL     1      -0.814  11.050  20.846  0.00  0.00    +0.000 A 
ATOM     10  C   UNL     1       0.134  10.333  20.102  0.00  0.00    +0.000 A 
BRANCH   9  11
ATOM     11  S   UNL     1      -1.786  12.348  20.087  0.00  0.00    +0.000 S 
ATOM     12  O   UNL     1      -2.753  12.794  21.065  0.00  0.00    +0.000 OA
ATOM     13  O   UNL     1      -0.857  13.266  19.470  0.00  0.00    +0.000 OA
BRANCH  11  14
ATOM     14  N   UNL     1      -2.652  11.548  18.821  0.00  0.00    +0.000 NA
ATOM     15  C   UNL     1      -4.118  11.773  18.829  0.00  0.00    +0.000 C 
ATOM     16  C   UNL     1      -4.850  11.077  17.690  0.00  0.00    +0.000 C 
ATOM     17  C   UNL     1      -4.171  11.302  16.352  0.00  0.00    +0.000 C 
ATOM     18  C   UNL     1      -2.742  10.795  16.421  0.00  0.00    +0.000 C 
ATOM     19  C   UNL     1      -1.946  11.493  17.515  0.00  0.00    +0.000 C 
ENDBRANCH  11  14
ENDBRANCH   9  11
ENDBRANCH   3   5
BRANCH   2  20
ATOM     20  C   UNL     1       2.844   6.565  19.023  0.00  0.00    +0.000 A 
ATOM     21  C   UNL     1       3.430   7.389  18.052  0.00  0.00    +0.000 A 
ATOM     22  C   UNL     1       4.336   6.841  17.138  0.00  0.00    +0.000 A 
ATOM     23  C   UNL     1       4.653   5.478  17.191  0.00  0.00    +0.000 A 
ATOM     24  C   UNL     1       4.012   4.637  18.110  0.00  0.00    +0.000 A 
ATOM     25  C   UNL     1       3.112   5.193  19.026  0.00  0.00    +0.000 A 
BRANCH  23  26
ATOM     26  S   UNL     1       5.806   4.839  15.996  0.00  0.00    +0.000 S 
ATOM     27  O   UNL     1       5.494   3.435  15.814  0.00  0.00    +0.000 OA
ATOM     28  O   UNL     1       5.748   5.735  14.844  0.00  0.00    +0.000 OA
BRANCH  26  29
ATOM     29  C   UNL     1       7.423   5.006  16.776  0.00  0.00    +0.000 C 
ATOM     30  F   UNL     1       7.692   6.283  17.170  0.00  0.00    +0.000 F 
ATOM     31  F   UNL     1       7.552   4.230  17.890  0.00  0.00    +0.000 F 
ENDBRANCH  26  29
ENDBRANCH  23  26
ENDBRANCH   2  20
TORSDOF 6
ENDMDL
MODEL 5
REMARK VINA RESULT:      -8.2      6.145      8.356
REMARK  Name = 
REMARK  6 active torsions:
REMARK  status: ('A' for Active; 'I' for Inactive)
REMARK    1  A    between atoms: C_2  and  C_19
REMARK    2  A    between atoms: N_3  and  C_4
REMARK    3  A    between atoms: C_8  and  S_9
REMARK    4  A    between atoms: S_9  and  N_12
REMARK    5  A    between atoms: C_22  and  S_23
REMARK    6  A    between atoms: S_23  and  C_26
REMARK                            x       y       z     vdW  Elec       q    Type
REMARK                         _______ _______ _______ _____ _____    ______ ____
ROOT
ATOM      1  O   UNL     1       2.775   8.575  16.924  0.00  0.00    +0.000 OA
ATOM      2  C   UNL     1       2.469   8.241  18.054  0.00  0.00    +0.000 C 
ATOM      3  N   UNL     1       2.718   7.002  18.656  0.00  0.00    +0.000 N 
ATOM      4  H   UNL     1       2.264   6.793  19.529  0.00  0.00    +0.000 HD
ENDROOT
BRANCH   3   5
ATOM      5  C   UNL     1       3.383   5.928  18.027  0.00  0.00    +0.000 A 
ATOM      6  C   UNL     1       2.847   4.639  17.987  0.00  0.00    +0.000 A 
ATOM      7  C   UNL     1       3.534   3.598  17.370  0.00  0.00    +0.000 A 
ATOM      8  C   UNL     1       4.791   3.822  16.806  0.00  0.00    +0.000 A 
ATOM      9  C   UNL     1       5.353   5.097  16.877  0.00  0.00    +0.000 A 
ATOM     10  C   UNL     1       4.633   6.161  17.441  0.00  0.00    +0.000 A 
BRANCH   9  11
ATOM     11  S   UNL     1       6.978   5.360  16.171  0.00  0.00    +0.000 S 
ATOM     12  O   UNL     1       7.308   6.756  16.353  0.00  0.00    +0.000 OA
ATOM     13  O   UNL     1       7.832   4.310  16.675  0.00  0.00    +0.000 OA
BRANCH  11  14
ATOM     14  N   UNL     1       6.756   5.090  14.477  0.00  0.00    +0.000 NA
ATOM     15  C   UNL     1       7.894   5.509  13.624  0.00  0.00    +0.000 C 
ATOM     16  C   UNL     1       7.681   5.237  12.142  0.00  0.00    +0.000 C 
ATOM     17  C   UNL     1       7.169   3.831  11.887  0.00  0.00    +0.000 C 
ATOM     18  C   UNL     1       5.863   3.629  12.633  0.00  0.00    +0.000 C 
ATOM     19  C   UNL     1       6.027   3.841  14.131  0.00  0.00    +0.000 C 
ENDBRANCH  11  14
ENDBRANCH   9  11
ENDBRANCH   3   5
BRANCH   2  20
ATOM     20  C   UNL     1       1.674   9.181  18.872  0.00  0.00    +0.000 A 
ATOM     21  C   UNL     1       1.153   8.756  20.103  0.00  0.00    +0.000 A 
ATOM     22  C   UNL     1       0.447   9.661  20.901  0.00  0.00    +0.000 A 
ATOM     23  C   UNL     1       0.260  10.981  20.474  0.00  0.00    +0.000 A 
ATOM     24  C   UNL     1       0.712  11.389  19.212  0.00  0.00    +0.000 A 
ATOM     25  C   UNL     1       1.425  10.480  18.421  0.00  0.00    +0.000 A 
BRANCH  23  26
ATOM     26  S   UNL     1      -0.655  12.082  21.531  0.00  0.00    +0.000 S 
ATOM     27  O   UNL     1       0.298  13.018  22.096  0.00  0.00    +0.000 OA
ATOM     28  O   UNL     1      -1.767  12.593  20.735  0.00  0.00    +0.000 OA
BRANCH  26  29
ATOM     29  C   UNL     1      -1.316  11.028  22.836  0.00  0.00    +0.000 C 
ATOM     30  F   UNL     1      -0.359  10.600  23.707  0.00  0.00    +0.000 F 
ATOM     31  F   UNL     1      -2.263  11.655  23.591  0.00  0.00    +0.000 F 
ENDBRANCH  26  29
ENDBRANCH  23  26
ENDBRANCH   2  20
TORSDOF 6
ENDMDL
MODEL 6
REMARK VINA RESULT:      -8.1      1.348      1.514
REMARK  Name = 
REMARK  6 active torsions:
REMARK  status: ('A' for Active; 'I' for Inactive)
REMARK    1  A    between atoms: C_2  and  C_19
REMARK    2  A    between atoms: N_3  and  C_4
REMARK    3  A    between atoms: C_8  and  S_9
REMARK    4  A    between atoms: S_9  and  N_12
REMARK    5  A    between atoms: C_22  and  S_23
REMARK    6  A    between atoms: S_23  and  C_26
REMARK                            x       y       z     vdW  Elec       q    Type
REMARK                         _______ _______ _______ _____ _____    ______ ____
ROOT
ATOM      1  O   UNL     1       8.532   7.184  18.878  0.00  0.00    +0.000 OA
ATOM      2  C   UNL     1       7.983   8.054  18.227  0.00  0.00    +0.000 C 
ATOM      3  N   UNL     1       6.948   7.878  17.300  0.00  0.00    +0.000 N 
ATOM      4  H   UNL     1       6.701   8.651  16.705  0.00  0.00    +0.000 HD
ENDROOT
BRANCH   3   5
ATOM      5  C   UNL     1       6.370   6.633  16.976  0.00  0.00    +0.000 A 
ATOM      6  C   UNL     1       7.015   5.699  16.162  0.00  0.00    +0.000 A 
ATOM      7  C   UNL     1       6.412   4.485  15.850  0.00  0.00    +0.000 A 
ATOM      8  C   UNL     1       5.132   4.193  16.324  0.00  0.00    +0.000 A 
ATOM      9  C   UNL     1       4.462   5.137  17.104  0.00  0.00    +0.000 A 
ATOM     10  C   UNL     1       5.095   6.333  17.473  0.00  0.00    +0.000 A 
BRANCH   9  11
ATOM     11  S   UNL     1       2.811   4.757  17.681  0.00  0.00    +0.000 S 
ATOM     12  O   UNL     1       2.094   6.008  17.800  0.00  0.00    +0.000 OA
ATOM     13  O   UNL     1       2.314   3.677  16.860  0.00  0.00    +0.000 OA
BRANCH  11  14
ATOM     14  N   UNL     1       3.049   4.136  19.278  0.00  0.00    +0.000 NA
ATOM     15  C   UNL     1       1.975   4.470  20.245  0.00  0.00    +0.000 C 
ATOM     16  C   UNL     1       2.200   3.890  21.634  0.00  0.00    +0.000 C 
ATOM     17  C   UNL     1       2.588   2.424  21.585  0.00  0.00    +0.000 C 
ATOM     18  C   UNL     1       3.851   2.265  20.759  0.00  0.00    +0.000 C 
ATOM     19  C   UNL     1       3.670   2.787  19.340  0.00  0.00    +0.000 C 
ENDBRANCH  11  14
ENDBRANCH   9  11
ENDBRANCH   3   5
BRANCH   2  20
ATOM     20  C   UNL     1       8.493   9.437  18.335  0.00  0.00    +0.000 A 
ATOM     21  C   UNL     1       8.057  10.408  17.421  0.00  0.00    +0.000 A 
ATOM     22  C   UNL     1       8.498  11.728  17.555  0.00  0.00    +0.000 A 
ATOM     23  C   UNL     1       9.370  12.078  18.593  0.00  0.00    +0.000 A 
ATOM     24  C   UNL     1       9.868  11.097  19.461  0.00  0.00    +0.000 A 
ATOM     25  C   UNL     1       9.417   9.779  19.326  0.00  0.00    +0.000 A 
BRANCH  23  26
ATOM     26  S   UNL     1       9.902  13.772  18.705  0.00  0.00    +0.000 S 
ATOM     27  O   UNL     1      10.782  13.866  19.853  0.00  0.00    +0.000 OA
ATOM     28  O   UNL     1      10.413  14.134  17.386  0.00  0.00    +0.000 OA
BRANCH  26  29
ATOM     29  C   UNL     1       8.394  14.711  19.017  0.00  0.00    +0.000 C 
ATOM     30  F   UNL     1       7.654  14.915  17.891  0.00  0.00    +0.000 F 
ATOM     31  F   UNL     1       7.566  14.096  19.909  0.00  0.00    +0.000 F 
ENDBRANCH  26  29
ENDBRANCH  23  26
ENDBRANCH   2  20
TORSDOF 6
ENDMDL
MODEL 7
REMARK VINA RESULT:      -8.1      6.819      9.613
REMARK  Name = 
REMARK  6 active torsions:
REMARK  status: ('A' for Active; 'I' for Inactive)
REMARK    1  A    between atoms: C_2  and  C_19
REMARK    2  A    between atoms: N_3  and  C_4
REMARK    3  A    between atoms: C_8  and  S_9
REMARK    4  A    between atoms: S_9  and  N_12
REMARK    5  A    between atoms: C_22  and  S_23
REMARK    6  A    between atoms: S_23  and  C_26
REMARK                            x       y       z     vdW  Elec       q    Type
REMARK                         _______ _______ _______ _____ _____    ______ ____
ROOT
ATOM      1  O   UNL     1       1.107   9.398  18.569  0.00  0.00    +0.000 OA
ATOM      2  C   UNL     1       1.427   8.601  19.432  0.00  0.00    +0.000 C 
ATOM      3  N   UNL     1       1.051   8.632  20.781  0.00  0.00    +0.000 N 
ATOM      4  H   UNL     1       1.520   8.016  21.423  0.00  0.00    +0.000 HD
ENDROOT
BRANCH   3   5
ATOM      5  C   UNL     1       0.219   9.616  21.355  0.00  0.00    +0.000 A 
ATOM      6  C   UNL     1      -0.057   9.654  22.723  0.00  0.00    +0.000 A 
ATOM      7  C   UNL     1      -0.893  10.630  23.257  0.00  0.00    +0.000 A 
ATOM      8  C   UNL     1      -1.495  11.573  22.423  0.00  0.00    +0.000 A 
ATOM      9  C   UNL     1      -1.258  11.519  21.049  0.00  0.00    +0.000 A 
ATOM     10  C   UNL     1      -0.365  10.576  20.519  0.00  0.00    +0.000 A 
BRANCH   9  11
ATOM     11  S   UNL     1      -2.059  12.720  19.991  0.00  0.00    +0.000 S 
ATOM     12  O   UNL     1      -3.096  13.361  20.770  0.00  0.00    +0.000 OA
ATOM     13  O   UNL     1      -1.013  13.485  19.352  0.00  0.00    +0.000 OA
BRANCH  11  14
ATOM     14  N   UNL     1      -2.833  11.767  18.773  0.00  0.00    +0.000 NA
ATOM     15  C   UNL     1      -4.309  11.902  18.718  0.00  0.00    +0.000 C 
ATOM     16  C   UNL     1      -4.959  11.070  17.621  0.00  0.00    +0.000 C 
ATOM     17  C   UNL     1      -4.249  11.227  16.289  0.00  0.00    +0.000 C 
ATOM     18  C   UNL     1      -2.796  10.816  16.442  0.00  0.00    +0.000 C 
ATOM     19  C   UNL     1      -2.080  11.649  17.497  0.00  0.00    +0.000 C 
ENDBRANCH  11  14
ENDBRANCH   9  11
ENDBRANCH   3   5
BRANCH   2  20
ATOM     20  C   UNL     1       2.381   7.529  19.077  0.00  0.00    +0.000 A 
ATOM     21  C   UNL     1       3.129   7.634  17.896  0.00  0.00    +0.000 A 
ATOM     22  C   UNL     1       4.069   6.646  17.586  0.00  0.00    +0.000 A 
ATOM     23  C   UNL     1       4.260   5.560  18.449  0.00  0.00    +0.000 A 
ATOM     24  C   UNL     1       3.461   5.412  19.590  0.00  0.00    +0.000 A 
ATOM     25  C   UNL     1       2.527   6.407  19.898  0.00  0.00    +0.000 A 
BRANCH  23  26
ATOM     26  S   UNL     1       5.465   4.332  17.994  0.00  0.00    +0.000 S 
ATOM     27  O   UNL     1       5.617   3.444  19.131  0.00  0.00    +0.000 OA
ATOM     28  O   UNL     1       5.032   3.779  16.714  0.00  0.00    +0.000 OA
BRANCH  26  29
ATOM     29  C   UNL     1       6.993   5.254  17.738  0.00  0.00    +0.000 C 
ATOM     30  F   UNL     1       7.239   6.157  18.729  0.00  0.00    +0.000 F 
ATOM     31  F   UNL     1       8.091   4.449  17.677  0.00  0.00    +0.000 F 
ENDBRANCH  26  29
ENDBRANCH  23  26
ENDBRANCH   2  20
TORSDOF 6
ENDMDL
MODEL 8
REMARK VINA RESULT:      -8.1      5.980      8.079
REMARK  Name = 
REMARK  6 active torsions:
REMARK  status: ('A' for Active; 'I' for Inactive)
REMARK    1  A    between atoms: C_2  and  C_19
REMARK    2  A    between atoms: N_3  and  C_4
REMARK    3  A    between atoms: C_8  and  S_9
REMARK    4  A    between atoms: S_9  and  N_12
REMARK    5  A    between atoms: C_22  and  S_23
REMARK    6  A    between atoms: S_23  and  C_26
REMARK                            x       y       z     vdW  Elec       q    Type
REMARK                         _______ _______ _______ _____ _____    ______ ____
ROOT
ATOM      1  O   UNL     1       1.994   6.176  20.538  0.00  0.00    +0.000 OA
ATOM      2  C   UNL     1       2.067   7.099  19.748  0.00  0.00    +0.000 C 
ATOM      3  N   UNL     1       2.704   7.085  18.501  0.00  0.00    +0.000 N 
ATOM      4  H   UNL     1       2.841   7.960  18.023  0.00  0.00    +0.000 HD
ENDROOT
BRANCH   3   5
ATOM      5  C   UNL     1       3.372   5.967  17.959  0.00  0.00    +0.000 A 
ATOM      6  C   UNL     1       2.833   4.680  18.005  0.00  0.00    +0.000 A 
ATOM      7  C   UNL     1       3.524   3.596  17.472  0.00  0.00    +0.000 A 
ATOM      8  C   UNL     1       4.787   3.776  16.907  0.00  0.00    +0.000 A 
ATOM      9  C   UNL     1       5.353   5.051  16.893  0.00  0.00    +0.000 A 
ATOM     10  C   UNL     1       4.630   6.155  17.371  0.00  0.00    +0.000 A 
BRANCH   9  11
ATOM     11  S   UNL     1       6.985   5.259  16.188  0.00  0.00    +0.000 S 
ATOM     12  O   UNL     1       7.370   6.639  16.385  0.00  0.00    +0.000 OA
ATOM     13  O   UNL     1       7.799   4.171  16.679  0.00  0.00    +0.000 OA
BRANCH  11  14
ATOM     14  N   UNL     1       6.752   5.017  14.491  0.00  0.00    +0.000 NA
ATOM     15  C   UNL     1       7.882   5.456  13.637  0.00  0.00    +0.000 C 
ATOM     16  C   UNL     1       7.658   5.208  12.152  0.00  0.00    +0.000 C 
ATOM     17  C   UNL     1       7.151   3.805  11.877  0.00  0.00    +0.000 C 
ATOM     18  C   UNL     1       5.851   3.584  12.629  0.00  0.00    +0.000 C 
ATOM     19  C   UNL     1       6.026   3.772  14.130  0.00  0.00    +0.000 C 
ENDBRANCH  11  14
ENDBRANCH   9  11
ENDBRANCH   3   5
BRANCH   2  20
ATOM     20  C   UNL     1       1.515   8.410  20.149  0.00  0.00    +0.000 A 
ATOM     21  C   UNL     1       1.285   9.391  19.174  0.00  0.00    +0.000 A 
ATOM     22  C   UNL     1       0.713  10.612  19.546  0.00  0.00    +0.000 A 
ATOM     23  C   UNL     1       0.374  10.853  20.882  0.00  0.00    +0.000 A 
ATOM     24  C   UNL     1       0.672   9.907  21.871  0.00  0.00    +0.000 A 
ATOM     25  C   UNL     1       1.238   8.684  21.492  0.00  0.00    +0.000 A 
BRANCH  23  26
ATOM     26  S   UNL     1      -0.342  12.429  21.293  0.00  0.00    +0.000 S 
ATOM     27  O   UNL     1      -1.505  12.165  22.118  0.00  0.00    +0.000 OA
ATOM     28  O   UNL     1       0.739  13.250  21.831  0.00  0.00    +0.000 OA
BRANCH  26  29
ATOM     29  C   UNL     1      -0.865  13.126  19.714  0.00  0.00    +0.000 C 
ATOM     30  F   UNL     1      -1.970  12.512  19.204  0.00  0.00    +0.000 F 
ATOM     31  F   UNL     1      -1.172  14.452  19.799  0.00  0.00    +0.000 F 
ENDBRANCH  26  29
ENDBRANCH  23  26
ENDBRANCH   2  20
TORSDOF 6
ENDMDL
MODEL 9
REMARK VINA RESULT:      -8.0      6.204      8.225
REMARK  Name = 
REMARK  6 active torsions:
REMARK  status: ('A' for Active; 'I' for Inactive)
REMARK    1  A    between atoms: C_2  and  C_19
REMARK    2  A    between atoms: N_3  and  C_4
REMARK    3  A    between atoms: C_8  and  S_9
REMARK    4  A    between atoms: S_9  and  N_12
REMARK    5  A    between atoms: C_22  and  S_23
REMARK    6  A    between atoms: S_23  and  C_26
REMARK                            x       y       z     vdW  Elec       q    Type
REMARK                         _______ _______ _______ _____ _____    ______ ____
ROOT
ATOM      1  O   UNL     1       2.263   6.646  20.443  0.00  0.00    +0.000 OA
ATOM      2  C   UNL     1       2.149   7.389  19.486  0.00  0.00    +0.000 C 
ATOM      3  N   UNL     1       2.638   7.169  18.192  0.00  0.00    +0.000 N 
ATOM      4  H   UNL     1       2.628   7.934  17.539  0.00  0.00    +0.000 HD
ENDROOT
BRANCH   3   5
ATOM      5  C   UNL     1       3.353   6.020  17.794  0.00  0.00    +0.000 A 
ATOM      6  C   UNL     1       2.863   4.728  17.996  0.00  0.00    +0.000 A 
ATOM      7  C   UNL     1       3.600   3.615  17.604  0.00  0.00    +0.000 A 
ATOM      8  C   UNL     1       4.860   3.773  17.027  0.00  0.00    +0.000 A 
ATOM      9  C   UNL     1       5.377   5.058  16.859  0.00  0.00    +0.000 A 
ATOM     10  C   UNL     1       4.608   6.183  17.194  0.00  0.00    +0.000 A 
BRANCH   9  11
ATOM     11  S   UNL     1       7.007   5.241  16.141  0.00  0.00    +0.000 S 
ATOM     12  O   UNL     1       7.418   6.613  16.343  0.00  0.00    +0.000 OA
ATOM     13  O   UNL     1       7.805   4.135  16.618  0.00  0.00    +0.000 OA
BRANCH  11  14
ATOM     14  N   UNL     1       6.755   5.014  14.445  0.00  0.00    +0.000 NA
ATOM     15  C   UNL     1       7.890   5.426  13.584  0.00  0.00    +0.000 C 
ATOM     16  C   UNL     1       7.649   5.192  12.100  0.00  0.00    +0.000 C 
ATOM     17  C   UNL     1       7.101   3.804  11.822  0.00  0.00    +0.000 C 
ATOM     18  C   UNL     1       5.802   3.615  12.582  0.00  0.00    +0.000 C 
ATOM     19  C   UNL     1       5.992   3.790  14.082  0.00  0.00    +0.000 C 
ENDBRANCH  11  14
ENDBRANCH   9  11
ENDBRANCH   3   5
BRANCH   2  20
ATOM     20  C   UNL     1       1.512   8.707  19.693  0.00  0.00    +0.000 A 
ATOM     21  C   UNL     1       1.045   9.055  20.968  0.00  0.00    +0.000 A 
ATOM     22  C   UNL     1       0.490  10.322  21.176  0.00  0.00    +0.000 A 
ATOM     23  C   UNL     1       0.400  11.235  20.119  0.00  0.00    +0.000 A 
ATOM     24  C   UNL     1       0.795  10.863  18.827  0.00  0.00    +0.000 A 
ATOM     25  C   UNL     1       1.355   9.597  18.626  0.00  0.00    +0.000 A 
BRANCH  23  26
ATOM     26  S   UNL     1      -0.323  12.827  20.446  0.00  0.00    +0.000 S 
ATOM     27  O   UNL     1      -0.422  12.961  21.886  0.00  0.00    +0.000 OA
ATOM     28  O   UNL     1       0.462  13.802  19.694  0.00  0.00    +0.000 OA
BRANCH  26  29
ATOM     29  C   UNL     1      -1.976  12.741  19.730  0.00  0.00    +0.000 C 
ATOM     30  F   UNL     1      -2.358  11.467  19.432  0.00  0.00    +0.000 F 
ATOM     31  F   UNL     1      -2.936  13.241  20.559  0.00  0.00    +0.000 F 
ENDBRANCH  26  29
ENDBRANCH  23  26
ENDBRANCH   2  20
TORSDOF 6
ENDMDL
