MODEL 1
REMARK VINA RESULT:      -7.3      0.000      0.000
REMARK  Name = 
REMARK  5 active torsions:
REMARK  status: ('A' for Active; 'I' for Inactive)
REMARK    1  A    between atoms: C_1  and  C_2
REMARK    2  A    between atoms: C_2  and  C_3
REMARK    3  A    between atoms: C_2  and  N_4
REMARK    4  A    between atoms: C_8  and  C_9
REMARK    5  A    between atoms: N_11  and  C_12
REMARK                            x       y       z     vdW  Elec       q    Type
REMARK                         _______ _______ _______ _____ _____    ______ ____
ROOT
ATOM      1  N   UNL     1       0.200   9.945  21.310  0.00  0.00    +0.000 N 
ATOM      2  C   UNL     1       0.622   8.900  22.095  0.00  0.00    +0.000 A 
ATOM      3  C   UNL     1       1.349   8.040  21.314  0.00  0.00    +0.000 A 
ATOM      4  C   UNL     1       1.431   8.589  20.002  0.00  0.00    +0.000 A 
ATOM      5  C   UNL     1       2.041   8.178  18.787  0.00  0.00    +0.000 A 
ATOM      6  C   UNL     1       1.845   8.943  17.625  0.00  0.00    +0.000 A 
ATOM      7  C   UNL     1       1.084  10.105  17.660  0.00  0.00    +0.000 A 
ATOM      8  C   UNL     1       0.493  10.539  18.850  0.00  0.00    +0.000 A 
ATOM      9  C   UNL     1       0.672   9.773  20.017  0.00  0.00    +0.000 A 
ENDROOT
BRANCH   5  10
ATOM     10  C   UNL     1       2.847   6.932  18.673  0.00  0.00    +0.000 C 
ATOM     11  O   UNL     1       4.066   6.998  18.561  0.00  0.00    +0.000 OA
ATOM     12  N   UNL     1       2.165   5.734  18.744  0.00  0.00    +0.000 N 
ATOM     13  H   UNL     1       1.231   5.755  19.135  0.00  0.00    +0.000 HD
BRANCH  12  14
ATOM     14  C   UNL     1       2.868   4.458  18.699  0.00  0.00    +0.000 C 
ATOM     15  C   UNL     1       2.448   3.564  17.494  0.00  0.00    +0.000 C 
ATOM     16  N   UNL     1       2.169   2.160  17.904  0.00  0.00    +0.000 NA
ATOM     17  C   UNL     1       3.334   1.632  18.645  0.00  0.00    +0.000 C 
ATOM     18  C   UNL     1       3.615   2.439  19.924  0.00  0.00    +0.000 C 
ATOM     19  C   UNL     1       2.655   3.640  19.994  0.00  0.00    +0.000 C 
ATOM     20  C   UNL     1       1.222   3.074  20.021  0.00  0.00    +0.000 C 
ATOM     21  C   UNL     1       0.995   2.168  18.800  0.00  0.00    +0.000 C 
ENDBRANCH  12  14
ENDBRANCH   5  10
BRANCH   1  23
ATOM     22  C   UNL     1      -1.236  10.716  23.215  0.00  0.00    +0.000 C 
ATOM     23  C   UNL     1      -0.661  11.009  21.831  0.00  0.00    +0.000 C 
ATOM     24  C   UNL     1       0.002  12.385  21.757  0.00  0.00    +0.000 C 
ENDBRANCH   1  23
TORSDOF 3
ENDMDL
MODEL 2
REMARK VINA RESULT:      -7.2      2.663      3.559
REMARK  Name = 
REMARK  5 active torsions:
REMARK  status: ('A' for Active; 'I' for Inactive)
REMARK    1  A    between atoms: C_1  and  C_2
REMARK    2  A    between atoms: C_2  and  C_3
REMARK    3  A    between atoms: C_2  and  N_4
REMARK    4  A    between atoms: C_8  and  C_9
REMARK    5  A    between atoms: N_11  and  C_12
REMARK                            x       y       z     vdW  Elec       q    Type
REMARK                         _______ _______ _______ _____ _____    ______ ____
ROOT
ATOM      1  N   UNL     1       0.286   9.781  21.304  0.00  0.00    +0.000 N 
ATOM      2  C   UNL     1       0.851   8.825  22.112  0.00  0.00    +0.000 A 
ATOM      3  C   UNL     1       1.603   7.988  21.329  0.00  0.00    +0.000 A 
ATOM      4  C   UNL     1       1.551   8.464  19.988  0.00  0.00    +0.000 A 
ATOM      5  C   UNL     1       2.118   8.038  18.758  0.00  0.00    +0.000 A 
ATOM      6  C   UNL     1       1.779   8.714  17.573  0.00  0.00    +0.000 A 
ATOM      7  C   UNL     1       0.919   9.805  17.599  0.00  0.00    +0.000 A 
ATOM      8  C   UNL     1       0.368  10.254  18.802  0.00  0.00    +0.000 A 
ATOM      9  C   UNL     1       0.690   9.577  19.993  0.00  0.00    +0.000 A 
ENDROOT
BRANCH   5  10
ATOM     10  C   UNL     1       3.025   6.863  18.654  0.00  0.00    +0.000 C 
ATOM     11  O   UNL     1       2.685   5.782  19.122  0.00  0.00    +0.000 OA
ATOM     12  N   UNL     1       4.216   7.046  17.979  0.00  0.00    +0.000 N 
ATOM     13  H   UNL     1       4.284   7.854  17.373  0.00  0.00    +0.000 HD
BRANCH  12  14
ATOM     14  C   UNL     1       5.147   5.944  17.774  0.00  0.00    +0.000 C 
ATOM     15  C   UNL     1       5.862   5.490  19.082  0.00  0.00    +0.000 C 
ATOM     16  N   UNL     1       7.332   5.336  18.897  0.00  0.00    +0.000 NA
ATOM     17  C   UNL     1       7.583   4.437  17.750  0.00  0.00    +0.000 C 
ATOM     18  C   UNL     1       7.009   5.003  16.440  0.00  0.00    +0.000 C 
ATOM     19  C   UNL     1       6.237   6.300  16.737  0.00  0.00    +0.000 C 
ATOM     20  C   UNL     1       7.240   7.293  17.356  0.00  0.00    +0.000 C 
ATOM     21  C   UNL     1       7.898   6.667  18.595  0.00  0.00    +0.000 C 
ENDBRANCH  12  14
ENDBRANCH   5  10
BRANCH   1  23
ATOM     22  C   UNL     1      -1.124  10.511  23.244  0.00  0.00    +0.000 C 
ATOM     23  C   UNL     1      -0.633  10.795  21.826  0.00  0.00    +0.000 C 
ATOM     24  C   UNL     1      -0.085  12.213  21.674  0.00  0.00    +0.000 C 
ENDBRANCH   1  23
TORSDOF 3
ENDMDL
MODEL 3
REMARK VINA RESULT:      -7.1      1.867      7.653
REMARK  Name = 
REMARK  5 active torsions:
REMARK  status: ('A' for Active; 'I' for Inactive)
REMARK    1  A    between atoms: C_1  and  C_2
REMARK    2  A    between atoms: C_2  and  C_3
REMARK    3  A    between atoms: C_2  and  N_4
REMARK    4  A    between atoms: C_8  and  C_9
REMARK    5  A    between atoms: N_11  and  C_12
REMARK                            x       y       z     vdW  Elec       q    Type
REMARK                         _______ _______ _______ _____ _____    ______ ____
ROOT
ATOM      1  N   UNL     1       3.113   4.135  19.372  0.00  0.00    +0.000 N 
ATOM      2  C   UNL     1       2.335   4.161  20.504  0.00  0.00    +0.000 A 
ATOM      3  C   UNL     1       1.885   5.443  20.688  0.00  0.00    +0.000 A 
ATOM      4  C   UNL     1       2.353   6.241  19.605  0.00  0.00    +0.000 A 
ATOM      5  C   UNL     1       2.215   7.607  19.243  0.00  0.00    +0.000 A 
ATOM      6  C   UNL     1       2.903   8.094  18.118  0.00  0.00    +0.000 A 
ATOM      7  C   UNL     1       3.692   7.249  17.348  0.00  0.00    +0.000 A 
ATOM      8  C   UNL     1       3.825   5.896  17.675  0.00  0.00    +0.000 A 
ATOM      9  C   UNL     1       3.151   5.401  18.807  0.00  0.00    +0.000 A 
ENDROOT
BRANCH   5  10
ATOM     10  C   UNL     1       1.406   8.572  20.036  0.00  0.00    +0.000 C 
ATOM     11  O   UNL     1       1.401   8.508  21.260  0.00  0.00    +0.000 OA
ATOM     12  N   UNL     1       0.721   9.543  19.334  0.00  0.00    +0.000 N 
ATOM     13  H   UNL     1       1.012   9.717  18.380  0.00  0.00    +0.000 HD
BRANCH  12  14
ATOM     14  C   UNL     1      -0.055  10.569  20.020  0.00  0.00    +0.000 C 
ATOM     15  C   UNL     1      -1.332  11.002  19.241  0.00  0.00    +0.000 C 
ATOM     16  N   UNL     1      -1.473  12.483  19.167  0.00  0.00    +0.000 NA
ATOM     17  C   UNL     1      -1.403  13.044  20.533  0.00  0.00    +0.000 C 
ATOM     18  C   UNL     1      -0.055  12.741  21.210  0.00  0.00    +0.000 C 
ATOM     19  C   UNL     1       0.787  11.837  20.293  0.00  0.00    +0.000 C 
ATOM     20  C   UNL     1       1.009  12.607  18.977  0.00  0.00    +0.000 C 
ATOM     21  C   UNL     1      -0.344  13.011  18.374  0.00  0.00    +0.000 C 
ENDBRANCH  12  14
ENDBRANCH   5  10
BRANCH   1  23
ATOM     22  C   UNL     1       4.452   2.134  20.067  0.00  0.00    +0.000 C 
ATOM     23  C   UNL     1       3.802   2.920  18.931  0.00  0.00    +0.000 C 
ATOM     24  C   UNL     1       2.923   2.039  18.044  0.00  0.00    +0.000 C 
ENDBRANCH   1  23
TORSDOF 3
ENDMDL
MODEL 4
REMARK VINA RESULT:      -7.0      1.381      2.475
REMARK  Name = 
REMARK  5 active torsions:
REMARK  status: ('A' for Active; 'I' for Inactive)
REMARK    1  A    between atoms: C_1  and  C_2
REMARK    2  A    between atoms: C_2  and  C_3
REMARK    3  A    between atoms: C_2  and  N_4
REMARK    4  A    between atoms: C_8  and  C_9
REMARK    5  A    between atoms: N_11  and  C_12
REMARK                            x       y       z     vdW  Elec       q    Type
REMARK                         _______ _______ _______ _____ _____    ______ ____
ROOT
ATOM      1  N   UNL     1      -0.629  11.028  19.554  0.00  0.00    +0.000 N 
ATOM      2  C   UNL     1      -0.415  10.582  18.272  0.00  0.00    +0.000 A 
ATOM      3  C   UNL     1       0.426   9.501  18.326  0.00  0.00    +0.000 A 
ATOM      4  C   UNL     1       0.710   9.224  19.695  0.00  0.00    +0.000 A 
ATOM      5  C   UNL     1       1.490   8.250  20.372  0.00  0.00    +0.000 A 
ATOM      6  C   UNL     1       1.622   8.323  21.769  0.00  0.00    +0.000 A 
ATOM      7  C   UNL     1       0.978   9.320  22.492  0.00  0.00    +0.000 A 
ATOM      8  C   UNL     1       0.188  10.276  21.847  0.00  0.00    +0.000 A 
ATOM      9  C   UNL     1       0.060  10.220  20.446  0.00  0.00    +0.000 A 
ENDROOT
BRANCH   5  10
ATOM     10  C   UNL     1       2.226   7.170  19.658  0.00  0.00    +0.000 C 
ATOM     11  O   UNL     1       3.103   7.456  18.851  0.00  0.00    +0.000 OA
ATOM     12  N   UNL     1       1.903   5.868  19.985  0.00  0.00    +0.000 N 
ATOM     13  H   UNL     1       1.407   5.719  20.855  0.00  0.00    +0.000 HD
BRANCH  12  14
ATOM     14  C   UNL     1       2.605   4.741  19.385  0.00  0.00    +0.000 C 
ATOM     15  C   UNL     1       2.058   4.352  17.979  0.00  0.00    +0.000 C 
ATOM     16  N   UNL     1       1.836   2.886  17.845  0.00  0.00    +0.000 NA
ATOM     17  C   UNL     1       3.079   2.173  18.207  0.00  0.00    +0.000 C 
ATOM     18  C   UNL     1       3.497   2.447  19.662  0.00  0.00    +0.000 C 
ATOM     19  C   UNL     1       2.543   3.483  20.282  0.00  0.00    +0.000 C 
ATOM     20  C   UNL     1       1.125   2.881  20.235  0.00  0.00    +0.000 C 
ATOM     21  C   UNL     1       0.769   2.497  18.791  0.00  0.00    +0.000 C 
ENDBRANCH  12  14
ENDBRANCH   5  10
BRANCH   1  23
ATOM     22  C   UNL     1      -0.747  13.531  19.469  0.00  0.00    +0.000 C 
ATOM     23  C   UNL     1      -1.434  12.218  19.838  0.00  0.00    +0.000 C 
ATOM     24  C   UNL     1      -2.846  12.119  19.261  0.00  0.00    +0.000 C 
ENDBRANCH   1  23
TORSDOF 3
ENDMDL
MODEL 5
REMARK VINA RESULT:      -7.0      0.707      1.047
REMARK  Name = 
REMARK  5 active torsions:
REMARK  status: ('A' for Active; 'I' for Inactive)
REMARK    1  A    between atoms: C_1  and  C_2
REMARK    2  A    between atoms: C_2  and  C_3
REMARK    3  A    between atoms: C_2  and  N_4
REMARK    4  A    between atoms: C_8  and  C_9
REMARK    5  A    between atoms: N_11  and  C_12
REMARK                            x       y       z     vdW  Elec       q    Type
REMARK                         _______ _______ _______ _____ _____    ______ ____
ROOT
ATOM      1  N   UNL     1       0.336   9.925  21.237  0.00  0.00    +0.000 N 
ATOM      2  C   UNL     1       0.476   8.721  21.885  0.00  0.00    +0.000 A 
ATOM      3  C   UNL     1       1.164   7.867  21.064  0.00  0.00    +0.000 A 
ATOM      4  C   UNL     1       1.516   8.573  19.878  0.00  0.00    +0.000 A 
ATOM      5  C   UNL     1       2.221   8.238  18.692  0.00  0.00    +0.000 A 
ATOM      6  C   UNL     1       2.312   9.182  17.655  0.00  0.00    +0.000 A 
ATOM      7  C   UNL     1       1.743  10.443  17.790  0.00  0.00    +0.000 A 
ATOM      8  C   UNL     1       1.063  10.801  18.958  0.00  0.00    +0.000 A 
ATOM      9  C   UNL     1       0.955   9.858  19.998  0.00  0.00    +0.000 A 
ENDROOT
BRANCH   5  10
ATOM     10  C   UNL     1       2.833   6.899  18.470  0.00  0.00    +0.000 C 
ATOM     11  O   UNL     1       4.019   6.808  18.174  0.00  0.00    +0.000 OA
ATOM     12  N   UNL     1       2.020   5.799  18.659  0.00  0.00    +0.000 N 
ATOM     13  H   UNL     1       1.168   5.938  19.187  0.00  0.00    +0.000 HD
BRANCH  12  14
ATOM     14  C   UNL     1       2.538   4.443  18.521  0.00  0.00    +0.000 C 
ATOM     15  C   UNL     1       1.428   3.383  18.257  0.00  0.00    +0.000 C 
ATOM     16  N   UNL     1       1.572   2.186  19.131  0.00  0.00    +0.000 NA
ATOM     17  C   UNL     1       2.941   1.647  18.991  0.00  0.00    +0.000 C 
ATOM     18  C   UNL     1       4.008   2.667  19.425  0.00  0.00    +0.000 C 
ATOM     19  C   UNL     1       3.327   4.002  19.775  0.00  0.00    +0.000 C 
ATOM     20  C   UNL     1       2.350   3.722  20.933  0.00  0.00    +0.000 C 
ATOM     21  C   UNL     1       1.366   2.613  20.531  0.00  0.00    +0.000 C 
ENDBRANCH  12  14
ENDBRANCH   5  10
BRANCH   1  23
ATOM     22  C   UNL     1      -1.438  11.657  20.872  0.00  0.00    +0.000 C 
ATOM     23  C   UNL     1      -0.415  11.038  21.821  0.00  0.00    +0.000 C 
ATOM     24  C   UNL     1      -1.021  10.686  23.179  0.00  0.00    +0.000 C 
ENDBRANCH   1  23
TORSDOF 3
ENDMDL
MODEL 6
REMARK VINA RESULT:      -7.0      2.831      4.217
REMARK  Name = 
REMARK  5 active torsions:
REMARK  status: ('A' for Active; 'I' for Inactive)
REMARK    1  A    between atoms: C_1  and  C_2
REMARK    2  A    between atoms: C_2  and  C_3
REMARK    3  A    between atoms: C_2  and  N_4
REMARK    4  A    between atoms: C_8  and  C_9
REMARK    5  A    between atoms: N_11  and  C_12
REMARK                            x       y       z     vdW  Elec       q    Type
REMARK                         _______ _______ _______ _____ _____    ______ ____
ROOT
ATOM      1  N   UNL     1       0.956  10.774  18.984  0.00  0.00    +0.000 N 
ATOM      2  C   UNL     1       1.679  10.612  17.827  0.00  0.00    +0.000 A 
ATOM      3  C   UNL     1       2.217   9.351  17.828  0.00  0.00    +0.000 A 
ATOM      4  C   UNL     1       1.775   8.678  19.003  0.00  0.00    +0.000 A 
ATOM      5  C   UNL     1       1.983   7.382  19.546  0.00  0.00    +0.000 A 
ATOM      6  C   UNL     1       1.449   7.070  20.807  0.00  0.00    +0.000 A 
ATOM      7  C   UNL     1       0.702   8.005  21.513  0.00  0.00    +0.000 A 
ATOM      8  C   UNL     1       0.467   9.279  20.988  0.00  0.00    +0.000 A 
ATOM      9  C   UNL     1       1.008   9.606  19.730  0.00  0.00    +0.000 A 
ENDROOT
BRANCH   5  10
ATOM     10  C   UNL     1       2.794   6.341  18.856  0.00  0.00    +0.000 C 
ATOM     11  O   UNL     1       2.269   5.294  18.495  0.00  0.00    +0.000 OA
ATOM     12  N   UNL     1       4.121   6.637  18.614  0.00  0.00    +0.000 N 
ATOM     13  H   UNL     1       4.394   7.610  18.662  0.00  0.00    +0.000 HD
BRANCH  12  14
ATOM     14  C   UNL     1       4.984   5.708  17.895  0.00  0.00    +0.000 C 
ATOM     15  C   UNL     1       5.924   4.891  18.831  0.00  0.00    +0.000 C 
ATOM     16  N   UNL     1       7.332   4.878  18.344  0.00  0.00    +0.000 NA
ATOM     17  C   UNL     1       7.354   4.413  16.941  0.00  0.00    +0.000 C 
ATOM     18  C   UNL     1       6.553   5.344  16.014  0.00  0.00    +0.000 C 
ATOM     19  C   UNL     1       5.866   6.435  16.853  0.00  0.00    +0.000 C 
ATOM     20  C   UNL     1       6.978   7.222  17.573  0.00  0.00    +0.000 C 
ATOM     21  C   UNL     1       7.848   6.261  18.398  0.00  0.00    +0.000 C 
ENDBRANCH  12  14
ENDBRANCH   5  10
BRANCH   1  23
ATOM     22  C   UNL     1       1.184  13.268  19.089  0.00  0.00    +0.000 C 
ATOM     23  C   UNL     1       0.305  12.042  19.321  0.00  0.00    +0.000 C 
ATOM     24  C   UNL     1      -1.071  12.182  18.671  0.00  0.00    +0.000 C 
ENDBRANCH   1  23
TORSDOF 3
ENDMDL
MODEL 7
REMARK VINA RESULT:      -6.9      1.548      2.052
REMARK  Name = 
REMARK  5 active torsions:
REMARK  status: ('A' for Active; 'I' for Inactive)
REMARK    1  A    between atoms: C_1  and  C_2
REMARK    2  A    between atoms: C_2  and  C_3
REMARK    3  A    between atoms: C_2  and  N_4
REMARK    4  A    between atoms: C_8  and  C_9
REMARK    5  A    between atoms: N_11  and  C_12
REMARK                            x       y       z     vdW  Elec       q    Type
REMARK                         _______ _______ _______ _____ _____    ______ ____
ROOT
ATOM      1  N   UNL     1      -0.305  11.183  21.436  0.00  0.00    +0.000 N 
ATOM      2  C   UNL     1      -0.409  10.308  22.490  0.00  0.00    +0.000 A 
ATOM      3  C   UNL     1       0.186   9.126  22.131  0.00  0.00    +0.000 A 
ATOM      4  C   UNL     1       0.730   9.280  20.823  0.00  0.00    +0.000 A 
ATOM      5  C   UNL     1       1.451   8.434  19.939  0.00  0.00    +0.000 A 
ATOM      6  C   UNL     1       1.767   8.895  18.650  0.00  0.00    +0.000 A 
ATOM      7  C   UNL     1       1.404  10.174  18.244  0.00  0.00    +0.000 A 
ATOM      8  C   UNL     1       0.712  11.030  19.105  0.00  0.00    +0.000 A 
ATOM      9  C   UNL     1       0.379  10.574  20.395  0.00  0.00    +0.000 A 
ENDROOT
BRANCH   5  10
ATOM     10  C   UNL     1       1.850   7.046  20.300  0.00  0.00    +0.000 C 
ATOM     11  O   UNL     1       1.215   6.426  21.145  0.00  0.00    +0.000 OA
ATOM     12  N   UNL     1       2.916   6.501  19.613  0.00  0.00    +0.000 N 
ATOM     13  H   UNL     1       3.183   6.945  18.743  0.00  0.00    +0.000 HD
BRANCH  12  14
ATOM     14  C   UNL     1       3.348   5.130  19.852  0.00  0.00    +0.000 C 
ATOM     15  C   UNL     1       4.754   4.814  19.259  0.00  0.00    +0.000 C 
ATOM     16  N   UNL     1       4.771   3.536  18.496  0.00  0.00    +0.000 NA
ATOM     17  C   UNL     1       4.241   2.454  19.352  0.00  0.00    +0.000 C 
ATOM     18  C   UNL     1       2.787   2.719  19.779  0.00  0.00    +0.000 C 
ATOM     19  C   UNL     1       2.348   4.103  19.272  0.00  0.00    +0.000 C 
ATOM     20  C   UNL     1       2.460   4.080  17.735  0.00  0.00    +0.000 C 
ATOM     21  C   UNL     1       3.888   3.692  17.321  0.00  0.00    +0.000 C 
ENDBRANCH  12  14
ENDBRANCH   5  10
BRANCH   1  23
ATOM     22  C   UNL     1      -2.185  12.646  20.655  0.00  0.00    +0.000 C 
ATOM     23  C   UNL     1      -0.902  12.519  21.474  0.00  0.00    +0.000 C 
ATOM     24  C   UNL     1      -1.070  13.043  22.900  0.00  0.00    +0.000 C 
ENDBRANCH   1  23
TORSDOF 3
ENDMDL
MODEL 8
REMARK VINA RESULT:      -6.9      1.831      3.132
REMARK  Name = 
REMARK  5 active torsions:
REMARK  status: ('A' for Active; 'I' for Inactive)
REMARK    1  A    between atoms: C_1  and  C_2
REMARK    2  A    between atoms: C_2  and  C_3
REMARK    3  A    between atoms: C_2  and  N_4
REMARK    4  A    between atoms: C_8  and  C_9
REMARK    5  A    between atoms: N_11  and  C_12
REMARK                            x       y       z     vdW  Elec       q    Type
REMARK                         _______ _______ _______ _____ _____    ______ ____
ROOT
ATOM      1  N   UNL     1      -1.015  11.502  20.238  0.00  0.00    +0.000 N 
ATOM      2  C   UNL     1      -0.914  11.579  18.870  0.00  0.00    +0.000 A 
ATOM      3  C   UNL     1      -0.028  10.622  18.449  0.00  0.00    +0.000 A 
ATOM      4  C   UNL     1       0.405   9.882  19.586  0.00  0.00    +0.000 A 
ATOM      5  C   UNL     1       1.291   8.790  19.785  0.00  0.00    +0.000 A 
ATOM      6  C   UNL     1       1.560   8.351  21.093  0.00  0.00    +0.000 A 
ATOM      7  C   UNL     1       0.952   8.958  22.185  0.00  0.00    +0.000 A 
ATOM      8  C   UNL     1       0.061  10.021  22.010  0.00  0.00    +0.000 A 
ATOM      9  C   UNL     1      -0.206  10.476  20.705  0.00  0.00    +0.000 A 
ENDROOT
BRANCH   5  10
ATOM     10  C   UNL     1       1.995   8.110  18.664  0.00  0.00    +0.000 C 
ATOM     11  O   UNL     1       2.285   8.738  17.651  0.00  0.00    +0.000 OA
ATOM     12  N   UNL     1       2.334   6.784  18.846  0.00  0.00    +0.000 N 
ATOM     13  H   UNL     1       2.338   6.434  19.796  0.00  0.00    +0.000 HD
BRANCH  12  14
ATOM     14  C   UNL     1       3.074   6.046  17.831  0.00  0.00    +0.000 C 
ATOM     15  C   UNL     1       2.695   4.536  17.767  0.00  0.00    +0.000 C 
ATOM     16  N   UNL     1       3.894   3.654  17.730  0.00  0.00    +0.000 NA
ATOM     17  C   UNL     1       4.776   4.083  16.624  0.00  0.00    +0.000 C 
ATOM     18  C   UNL     1       5.271   5.528  16.810  0.00  0.00    +0.000 C 
ATOM     19  C   UNL     1       4.602   6.142  18.052  0.00  0.00    +0.000 C 
ATOM     20  C   UNL     1       5.007   5.276  19.261  0.00  0.00    +0.000 C 
ATOM     21  C   UNL     1       4.619   3.812  19.009  0.00  0.00    +0.000 C 
ENDBRANCH  12  14
ENDBRANCH   5  10
BRANCH   1  23
ATOM     22  C   UNL     1      -1.127  13.744  21.354  0.00  0.00    +0.000 C 
ATOM     23  C   UNL     1      -1.837  12.436  21.010  0.00  0.00    +0.000 C 
ATOM     24  C   UNL     1      -3.208  12.670  20.375  0.00  0.00    +0.000 C 
ENDBRANCH   1  23
TORSDOF 3
ENDMDL
MODEL 9
REMARK VINA RESULT:      -6.8      1.715      2.953
REMARK  Name = 
REMARK  5 active torsions:
REMARK  status: ('A' for Active; 'I' for Inactive)
REMARK    1  A    between atoms: C_1  and  C_2
REMARK    2  A    between atoms: C_2  and  C_3
REMARK    3  A    between atoms: C_2  and  N_4
REMARK    4  A    between atoms: C_8  and  C_9
REMARK    5  A    between atoms: N_11  and  C_12
REMARK                            x       y       z     vdW  Elec       q    Type
REMARK                         _______ _______ _______ _____ _____    ______ ____
ROOT
ATOM      1  N   UNL     1      -1.326  11.857  20.410  0.00  0.00    +0.000 N 
ATOM      2  C   UNL     1      -1.017  11.695  19.081  0.00  0.00    +0.000 A 
ATOM      3  C   UNL     1      -0.138  10.650  18.966  0.00  0.00    +0.000 A 
ATOM      4  C   UNL     1       0.075  10.101  20.263  0.00  0.00    +0.000 A 
ATOM      5  C   UNL     1       0.852   9.028  20.775  0.00  0.00    +0.000 A 
ATOM      6  C   UNL     1       0.897   8.811  22.163  0.00  0.00    +0.000 A 
ATOM      7  C   UNL     1       0.171   9.617  23.031  0.00  0.00    +0.000 A 
ATOM      8  C   UNL     1      -0.617  10.665  22.547  0.00  0.00    +0.000 A 
ATOM      9  C   UNL     1      -0.659  10.899  21.160  0.00  0.00    +0.000 A 
ENDROOT
BRANCH   5  10
ATOM     10  C   UNL     1       1.673   8.143  19.905  0.00  0.00    +0.000 C 
ATOM     11  O   UNL     1       2.148   8.577  18.862  0.00  0.00    +0.000 OA
ATOM     12  N   UNL     1       1.898   6.856  20.353  0.00  0.00    +0.000 N 
ATOM     13  H   UNL     1       1.739   6.673  21.336  0.00  0.00    +0.000 HD
BRANCH  12  14
ATOM     14  C   UNL     1       2.735   5.929  19.602  0.00  0.00    +0.000 C 
ATOM     15  C   UNL     1       2.183   5.613  18.180  0.00  0.00    +0.000 C 
ATOM     16  N   UNL     1       2.185   4.153  17.885  0.00  0.00    +0.000 NA
ATOM     17  C   UNL     1       3.542   3.615  18.119  0.00  0.00    +0.000 C 
ATOM     18  C   UNL     1       3.987   3.792  19.581  0.00  0.00    +0.000 C 
ATOM     19  C   UNL     1       2.917   4.587  20.349  0.00  0.00    +0.000 C 
ATOM     20  C   UNL     1       1.610   3.773  20.281  0.00  0.00    +0.000 C 
ATOM     21  C   UNL     1       1.243   3.496  18.815  0.00  0.00    +0.000 C 
ENDBRANCH  12  14
ENDBRANCH   5  10
BRANCH   1  23
ATOM     22  C   UNL     1      -1.671  14.336  20.554  0.00  0.00    +0.000 C 
ATOM     23  C   UNL     1      -2.194  12.938  20.879  0.00  0.00    +0.000 C 
ATOM     24  C   UNL     1      -3.648  12.748  20.448  0.00  0.00    +0.000 C 
ENDBRANCH   1  23
TORSDOF 3
ENDMDL
