MODEL 1
REMARK VINA RESULT:      -7.9      0.000      0.000
REMARK  Name = 
REMARK  9 active torsions:
REMARK  status: ('A' for Active; 'I' for Inactive)
REMARK    1  A    between atoms: C_1  and  C_2
REMARK    2  A    between atoms: C_4  and  C_5
REMARK    3  A    between atoms: C_6  and  C_7
REMARK    4  A    between atoms: C_7  and  N_8
REMARK    5  A    between atoms: C_14  and  O_15
REMARK    6  A    between atoms: O_15  and  C_16
REMARK    7  A    between atoms: C_16  and  C_17
REMARK    8  A    between atoms: C_16  and  C_18
REMARK    9  A    between atoms: C_19  and  C_20
REMARK                            x       y       z     vdW  Elec       q    Type
REMARK                         _______ _______ _______ _____ _____    ______ ____
ROOT
ATOM      1  N   UNL     1       0.793   9.981  19.509  0.00  0.00    +0.000 N 
ATOM      2  C   UNL     1       1.537  10.007  18.261  0.00  0.00    +0.000 C 
ATOM      3  C   UNL     1       1.918   8.743  18.565  0.00  0.00    +0.000 C 
ATOM      4  C   UNL     1       2.565   7.562  18.658  0.00  0.00    +0.000 A 
ATOM      5  C   UNL     1       3.315   7.635  17.440  0.00  0.00    +0.000 A 
ATOM      6  C   UNL     1       4.139   6.670  17.158  0.00  0.00    +0.000 A 
ATOM      7  C   UNL     1       4.066   5.700  18.092  0.00  0.00    +0.000 A 
ATOM      8  C   UNL     1       3.079   5.864  19.423  0.00  0.00    +0.000 A 
ATOM      9  C   UNL     1       3.327   4.593  20.296  0.00  0.00    +0.000 C 
ATOM     10  C   UNL     1       2.149   6.961  19.874  0.00  0.00    +0.000 A 
ATOM     11  C   UNL     1       0.949   8.436  20.414  0.00  0.00    +0.000 C 
ATOM     12  O   UNL     1       0.234   8.324  21.419  0.00  0.00    +0.000 OA
ENDROOT
BRANCH   1  13
ATOM     13  C   UNL     1      -0.079  11.265  19.309  0.00  0.00    +0.000 C 
BRANCH  13  19
ATOM     14  C   UNL     1      -5.765  12.610  18.656  0.00  0.00    +0.000 C 
ATOM     15  C   UNL     1      -4.353  12.114  18.727  0.00  0.00    +0.000 A 
ATOM     16  C   UNL     1      -3.799  11.235  17.879  0.00  0.00    +0.000 A 
ATOM     17  C   UNL     1      -2.392  10.812  18.001  0.00  0.00    +0.000 A 
ATOM     18  C   UNL     1      -1.951   9.844  16.948  0.00  0.00    +0.000 C 
ATOM     19  C   UNL     1      -1.586  11.338  18.956  0.00  0.00    +0.000 A 
ATOM     20  C   UNL     1      -2.277  12.299  19.956  0.00  0.00    +0.000 A 
ATOM     21  O   UNL     1      -1.689  12.790  20.919  0.00  0.00    +0.000 OA
ATOM     22  N   UNL     1      -3.590  12.615  19.741  0.00  0.00    +0.000 N 
ATOM     23  H   UNL     1      -3.990  13.276  20.400  0.00  0.00    +0.000 HD
ENDBRANCH  13  19
ENDBRANCH   1  13
BRANCH   7  24
ATOM     24  O   UNL     1       4.944   4.637  17.828  0.00  0.00    +0.000 OA
BRANCH  24  25
ATOM     25  C   UNL     1       6.063   4.870  16.860  0.00  0.00    +0.000 C 
ATOM     26  C   UNL     1       7.449   4.665  17.506  0.00  0.00    +0.000 C 
ATOM     27  C   UNL     1       5.945   3.860  15.723  0.00  0.00    +0.000 C 
ENDBRANCH  24  25
ENDBRANCH   7  24
TORSDOF 4
ENDMDL
MODEL 2
REMARK VINA RESULT:      -7.7      2.039      3.068
REMARK  Name = 
REMARK  9 active torsions:
REMARK  status: ('A' for Active; 'I' for Inactive)
REMARK    1  A    between atoms: C_1  and  C_2
REMARK    2  A    between atoms: C_4  and  C_5
REMARK    3  A    between atoms: C_6  and  C_7
REMARK    4  A    between atoms: C_7  and  N_8
REMARK    5  A    between atoms: C_14  and  O_15
REMARK    6  A    between atoms: O_15  and  C_16
REMARK    7  A    between atoms: C_16  and  C_17
REMARK    8  A    between atoms: C_16  and  C_18
REMARK    9  A    between atoms: C_19  and  C_20
REMARK                            x       y       z     vdW  Elec       q    Type
REMARK                         _______ _______ _______ _____ _____    ______ ____
ROOT
ATOM      1  N   UNL     1       0.936  10.038  19.675  0.00  0.00    +0.000 N 
ATOM      2  C   UNL     1       0.714   9.172  20.820  0.00  0.00    +0.000 C 
ATOM      3  C   UNL     1       1.507   8.276  20.183  0.00  0.00    +0.000 C 
ATOM      4  C   UNL     1       2.121   7.156  19.747  0.00  0.00    +0.000 A 
ATOM      5  C   UNL     1       1.853   6.315  20.874  0.00  0.00    +0.000 A 
ATOM      6  C   UNL     1       2.253   5.079  20.838  0.00  0.00    +0.000 A 
ATOM      7  C   UNL     1       2.945   4.841  19.705  0.00  0.00    +0.000 A 
ATOM      8  C   UNL     1       3.126   6.024  18.547  0.00  0.00    +0.000 A 
ATOM      9  C   UNL     1       3.904   5.353  17.370  0.00  0.00    +0.000 C 
ATOM     10  C   UNL     1       2.646   7.450  18.462  0.00  0.00    +0.000 A 
ATOM     11  C   UNL     1       1.985   9.312  18.408  0.00  0.00    +0.000 C 
ATOM     12  O   UNL     1       2.301  10.061  17.473  0.00  0.00    +0.000 OA
ENDROOT
BRANCH   1  13
ATOM     13  C   UNL     1       0.374  11.377  20.259  0.00  0.00    +0.000 C 
BRANCH  13  19
ATOM     14  C   UNL     1      -4.850  13.354  22.094  0.00  0.00    +0.000 C 
ATOM     15  C   UNL     1      -3.607  12.785  21.478  0.00  0.00    +0.000 A 
ATOM     16  C   UNL     1      -3.445  12.513  20.175  0.00  0.00    +0.000 A 
ATOM     17  C   UNL     1      -2.180  11.974  19.642  0.00  0.00    +0.000 A 
ATOM     18  C   UNL     1      -2.184  11.759  18.161  0.00  0.00    +0.000 C 
ATOM     19  C   UNL     1      -1.111  11.775  20.451  0.00  0.00    +0.000 A 
ATOM     20  C   UNL     1      -1.356  12.038  21.958  0.00  0.00    +0.000 A 
ATOM     21  O   UNL     1      -0.501  11.826  22.816  0.00  0.00    +0.000 OA
ATOM     22  N   UNL     1      -2.574  12.536  22.334  0.00  0.00    +0.000 N 
ATOM     23  H   UNL     1      -2.676  12.725  23.326  0.00  0.00    +0.000 HD
ENDBRANCH  13  19
ENDBRANCH   1  13
BRANCH   7  24
ATOM     24  O   UNL     1       3.395   3.514  19.622  0.00  0.00    +0.000 OA
BRANCH  24  25
ATOM     25  C   UNL     1       2.454   2.483  19.079  0.00  0.00    +0.000 C 
ATOM     26  C   UNL     1       1.195   3.111  18.446  0.00  0.00    +0.000 C 
ATOM     27  C   UNL     1       3.166   1.703  17.978  0.00  0.00    +0.000 C 
ENDBRANCH  24  25
ENDBRANCH   7  24
TORSDOF 4
ENDMDL
MODEL 3
REMARK VINA RESULT:      -7.7      1.680      2.352
REMARK  Name = 
REMARK  9 active torsions:
REMARK  status: ('A' for Active; 'I' for Inactive)
REMARK    1  A    between atoms: C_1  and  C_2
REMARK    2  A    between atoms: C_4  and  C_5
REMARK    3  A    between atoms: C_6  and  C_7
REMARK    4  A    between atoms: C_7  and  N_8
REMARK    5  A    between atoms: C_14  and  O_15
REMARK    6  A    between atoms: O_15  and  C_16
REMARK    7  A    between atoms: C_16  and  C_17
REMARK    8  A    between atoms: C_16  and  C_18
REMARK    9  A    between atoms: C_19  and  C_20
REMARK                            x       y       z     vdW  Elec       q    Type
REMARK                         _______ _______ _______ _____ _____    ______ ____
ROOT
ATOM      1  N   UNL     1       0.933  10.027  19.577  0.00  0.00    +0.000 N 
ATOM      2  C   UNL     1       1.716   9.829  18.370  0.00  0.00    +0.000 C 
ATOM      3  C   UNL     1       1.889   8.556  18.798  0.00  0.00    +0.000 C 
ATOM      4  C   UNL     1       2.347   7.305  19.023  0.00  0.00    +0.000 A 
ATOM      5  C   UNL     1       3.141   7.155  17.842  0.00  0.00    +0.000 A 
ATOM      6  C   UNL     1       3.819   6.057  17.683  0.00  0.00    +0.000 A 
ATOM      7  C   UNL     1       3.567   5.199  18.691  0.00  0.00    +0.000 A 
ATOM      8  C   UNL     1       2.570   5.627  19.954  0.00  0.00    +0.000 A 
ATOM      9  C   UNL     1       2.591   4.419  20.943  0.00  0.00    +0.000 C 
ATOM     10  C   UNL     1       1.802   6.887  20.264  0.00  0.00    +0.000 A 
ATOM     11  C   UNL     1       0.821   8.565  20.617  0.00  0.00    +0.000 C 
ATOM     12  O   UNL     1       0.062   8.653  21.593  0.00  0.00    +0.000 OA
ENDROOT
BRANCH   1  13
ATOM     13  C   UNL     1       0.272  11.403  19.227  0.00  0.00    +0.000 C 
BRANCH  13  19
ATOM     14  C   UNL     1      -5.270  13.041  20.303  0.00  0.00    +0.000 C 
ATOM     15  C   UNL     1      -3.811  12.720  20.179  0.00  0.00    +0.000 A 
ATOM     16  C   UNL     1      -2.921  12.770  21.180  0.00  0.00    +0.000 A 
ATOM     17  C   UNL     1      -1.503  12.418  20.982  0.00  0.00    +0.000 A 
ATOM     18  C   UNL     1      -0.671  12.512  22.223  0.00  0.00    +0.000 C 
ATOM     19  C   UNL     1      -1.054  11.982  19.780  0.00  0.00    +0.000 A 
ATOM     20  C   UNL     1      -2.095  12.001  18.632  0.00  0.00    +0.000 A 
ATOM     21  O   UNL     1      -1.810  11.706  17.472  0.00  0.00    +0.000 OA
ATOM     22  N   UNL     1      -3.382  12.349  18.938  0.00  0.00    +0.000 N 
ATOM     23  H   UNL     1      -4.036  12.313  18.163  0.00  0.00    +0.000 HD
ENDBRANCH  13  19
ENDBRANCH   1  13
BRANCH   7  24
ATOM     24  O   UNL     1       4.282   3.997  18.561  0.00  0.00    +0.000 OA
BRANCH  24  25
ATOM     25  C   UNL     1       3.694   2.915  17.710  0.00  0.00    +0.000 C 
ATOM     26  C   UNL     1       3.642   1.556  18.439  0.00  0.00    +0.000 C 
ATOM     27  C   UNL     1       2.256   3.292  17.364  0.00  0.00    +0.000 C 
ENDBRANCH  24  25
ENDBRANCH   7  24
TORSDOF 4
ENDMDL
MODEL 4
REMARK VINA RESULT:      -7.7      0.846      1.151
REMARK  Name = 
REMARK  9 active torsions:
REMARK  status: ('A' for Active; 'I' for Inactive)
REMARK    1  A    between atoms: C_1  and  C_2
REMARK    2  A    between atoms: C_4  and  C_5
REMARK    3  A    between atoms: C_6  and  C_7
REMARK    4  A    between atoms: C_7  and  N_8
REMARK    5  A    between atoms: C_14  and  O_15
REMARK    6  A    between atoms: O_15  and  C_16
REMARK    7  A    between atoms: C_16  and  C_17
REMARK    8  A    between atoms: C_16  and  C_18
REMARK    9  A    between atoms: C_19  and  C_20
REMARK                            x       y       z     vdW  Elec       q    Type
REMARK                         _______ _______ _______ _____ _____    ______ ____
ROOT
ATOM      1  N   UNL     1       0.342  10.129  19.615  0.00  0.00    +0.000 N 
ATOM      2  C   UNL     1       1.179  10.147  18.427  0.00  0.00    +0.000 C 
ATOM      3  C   UNL     1       1.560   8.898  18.785  0.00  0.00    +0.000 C 
ATOM      4  C   UNL     1       2.222   7.733  18.951  0.00  0.00    +0.000 A 
ATOM      5  C   UNL     1       3.061   7.799  17.793  0.00  0.00    +0.000 A 
ATOM      6  C   UNL     1       3.924   6.847  17.594  0.00  0.00    +0.000 A 
ATOM      7  C   UNL     1       3.799   5.894  18.540  0.00  0.00    +0.000 A 
ATOM      8  C   UNL     1       2.710   6.062  19.788  0.00  0.00    +0.000 A 
ATOM      9  C   UNL     1       2.916   4.813  20.704  0.00  0.00    +0.000 C 
ATOM     10  C   UNL     1       1.726   7.147  20.144  0.00  0.00    +0.000 A 
ATOM     11  C   UNL     1       0.459   8.605  20.561  0.00  0.00    +0.000 C 
ATOM     12  O   UNL     1      -0.328   8.497  21.511  0.00  0.00    +0.000 OA
ENDROOT
BRANCH   1  13
ATOM     13  C   UNL     1      -0.538  11.390  19.323  0.00  0.00    +0.000 C 
BRANCH  13  19
ATOM     14  C   UNL     1      -6.183  12.577  18.186  0.00  0.00    +0.000 C 
ATOM     15  C   UNL     1      -4.767  12.122  18.375  0.00  0.00    +0.000 A 
ATOM     16  C   UNL     1      -4.115  11.270  17.569  0.00  0.00    +0.000 A 
ATOM     17  C   UNL     1      -2.712  10.888  17.811  0.00  0.00    +0.000 A 
ATOM     18  C   UNL     1      -2.151   9.947  16.790  0.00  0.00    +0.000 C 
ATOM     19  C   UNL     1      -2.010  11.423  18.839  0.00  0.00    +0.000 A 
ATOM     20  C   UNL     1      -2.815  12.350  19.785  0.00  0.00    +0.000 A 
ATOM     21  O   UNL     1      -2.328  12.845  20.801  0.00  0.00    +0.000 OA
ATOM     22  N   UNL     1      -4.113  12.631  19.458  0.00  0.00    +0.000 N 
ATOM     23  H   UNL     1      -4.589  13.270  20.087  0.00  0.00    +0.000 HD
ENDBRANCH  13  19
ENDBRANCH   1  13
BRANCH   7  24
ATOM     24  O   UNL     1       4.715   4.845  18.365  0.00  0.00    +0.000 OA
BRANCH  24  25
ATOM     25  C   UNL     1       4.352   3.741  17.421  0.00  0.00    +0.000 C 
ATOM     26  C   UNL     1       2.827   3.621  17.216  0.00  0.00    +0.000 C 
ATOM     27  C   UNL     1       4.964   4.042  16.056  0.00  0.00    +0.000 C 
ENDBRANCH  24  25
ENDBRANCH   7  24
TORSDOF 4
ENDMDL
MODEL 5
REMARK VINA RESULT:      -7.6      2.471      3.749
REMARK  Name = 
REMARK  9 active torsions:
REMARK  status: ('A' for Active; 'I' for Inactive)
REMARK    1  A    between atoms: C_1  and  C_2
REMARK    2  A    between atoms: C_4  and  C_5
REMARK    3  A    between atoms: C_6  and  C_7
REMARK    4  A    between atoms: C_7  and  N_8
REMARK    5  A    between atoms: C_14  and  O_15
REMARK    6  A    between atoms: O_15  and  C_16
REMARK    7  A    between atoms: C_16  and  C_17
REMARK    8  A    between atoms: C_16  and  C_18
REMARK    9  A    between atoms: C_19  and  C_20
REMARK                            x       y       z     vdW  Elec       q    Type
REMARK                         _______ _______ _______ _____ _____    ______ ____
ROOT
ATOM      1  N   UNL     1       0.794   9.941  19.656  0.00  0.00    +0.000 N 
ATOM      2  C   UNL     1       0.618   9.071  20.806  0.00  0.00    +0.000 C 
ATOM      3  C   UNL     1       1.443   8.208  20.167  0.00  0.00    +0.000 C 
ATOM      4  C   UNL     1       2.102   7.112  19.731  0.00  0.00    +0.000 A 
ATOM      5  C   UNL     1       1.877   6.265  20.863  0.00  0.00    +0.000 A 
ATOM      6  C   UNL     1       2.330   5.047  20.828  0.00  0.00    +0.000 A 
ATOM      7  C   UNL     1       3.023   4.835  19.691  0.00  0.00    +0.000 A 
ATOM      8  C   UNL     1       3.146   6.020  18.528  0.00  0.00    +0.000 A 
ATOM      9  C   UNL     1       3.944   5.378  17.349  0.00  0.00    +0.000 C 
ATOM     10  C   UNL     1       2.605   7.424  18.442  0.00  0.00    +0.000 A 
ATOM     11  C   UNL     1       1.865   9.255  18.385  0.00  0.00    +0.000 C 
ATOM     12  O   UNL     1       2.142  10.014  17.445  0.00  0.00    +0.000 OA
ENDROOT
BRANCH   1  13
ATOM     13  C   UNL     1       0.180  11.258  20.240  0.00  0.00    +0.000 C 
BRANCH  13  19
ATOM     14  C   UNL     1      -0.611  16.846  18.592  0.00  0.00    +0.000 C 
ATOM     15  C   UNL     1      -0.259  15.422  18.904  0.00  0.00    +0.000 A 
ATOM     16  C   UNL     1       0.961  14.882  18.776  0.00  0.00    +0.000 A 
ATOM     17  C   UNL     1       1.232  13.475  19.126  0.00  0.00    +0.000 A 
ATOM     18  C   UNL     1       2.659  13.063  18.937  0.00  0.00    +0.000 C 
ATOM     19  C   UNL     1       0.258  12.684  19.639  0.00  0.00    +0.000 A 
ATOM     20  C   UNL     1      -1.151  13.323  19.711  0.00  0.00    +0.000 A 
ATOM     21  O   UNL     1      -2.145  12.698  20.082  0.00  0.00    +0.000 OA
ATOM     22  N   UNL     1      -1.280  14.637  19.356  0.00  0.00    +0.000 N 
ATOM     23  H   UNL     1      -2.214  15.023  19.453  0.00  0.00    +0.000 HD
ENDBRANCH  13  19
ENDBRANCH   1  13
BRANCH   7  24
ATOM     24  O   UNL     1       3.529   3.528  19.610  0.00  0.00    +0.000 OA
BRANCH  24  25
ATOM     25  C   UNL     1       2.628   2.455  19.082  0.00  0.00    +0.000 C 
ATOM     26  C   UNL     1       1.289   3.016  18.560  0.00  0.00    +0.000 C 
ATOM     27  C   UNL     1       3.317   1.774  17.903  0.00  0.00    +0.000 C 
ENDBRANCH  24  25
ENDBRANCH   7  24
TORSDOF 4
ENDMDL
MODEL 6
REMARK VINA RESULT:      -7.6      1.663      2.477
REMARK  Name = 
REMARK  9 active torsions:
REMARK  status: ('A' for Active; 'I' for Inactive)
REMARK    1  A    between atoms: C_1  and  C_2
REMARK    2  A    between atoms: C_4  and  C_5
REMARK    3  A    between atoms: C_6  and  C_7
REMARK    4  A    between atoms: C_7  and  N_8
REMARK    5  A    between atoms: C_14  and  O_15
REMARK    6  A    between atoms: O_15  and  C_16
REMARK    7  A    between atoms: C_16  and  C_17
REMARK    8  A    between atoms: C_16  and  C_18
REMARK    9  A    between atoms: C_19  and  C_20
REMARK                            x       y       z     vdW  Elec       q    Type
REMARK                         _______ _______ _______ _____ _____    ______ ____
ROOT
ATOM      1  N   UNL     1       0.309  10.583  20.730  0.00  0.00    +0.000 N 
ATOM      2  C   UNL     1       1.008  10.579  19.456  0.00  0.00    +0.000 C 
ATOM      3  C   UNL     1       1.217   9.258  19.676  0.00  0.00    +0.000 C 
ATOM      4  C   UNL     1       1.694   7.995  19.680  0.00  0.00    +0.000 A 
ATOM      5  C   UNL     1       2.406   8.035  18.439  0.00  0.00    +0.000 A 
ATOM      6  C   UNL     1       3.077   6.983  18.072  0.00  0.00    +0.000 A 
ATOM      7  C   UNL     1       2.899   5.980  18.955  0.00  0.00    +0.000 A 
ATOM      8  C   UNL     1       1.990   6.201  20.332  0.00  0.00    +0.000 A 
ATOM      9  C   UNL     1       2.085   4.860  21.126  0.00  0.00    +0.000 C 
ATOM     10  C   UNL     1       1.238   7.389  20.878  0.00  0.00    +0.000 A 
ATOM     11  C   UNL     1       0.277   8.981  21.545  0.00  0.00    +0.000 C 
ATOM     12  O   UNL     1      -0.414   8.911  22.571  0.00  0.00    +0.000 OA
ENDROOT
BRANCH   1  13
ATOM     13  C   UNL     1      -0.380  11.986  20.635  0.00  0.00    +0.000 C 
BRANCH  13  19
ATOM     14  C   UNL     1      -6.179  12.700  19.985  0.00  0.00    +0.000 C 
ATOM     15  C   UNL     1      -4.720  12.603  20.313  0.00  0.00    +0.000 A 
ATOM     16  C   UNL     1      -4.200  12.662  21.548  0.00  0.00    +0.000 A 
ATOM     17  C   UNL     1      -2.751  12.536  21.791  0.00  0.00    +0.000 A 
ATOM     18  C   UNL     1      -2.366  12.603  23.237  0.00  0.00    +0.000 C 
ATOM     19  C   UNL     1      -1.889  12.307  20.770  0.00  0.00    +0.000 A 
ATOM     20  C   UNL     1      -2.518  12.311  19.354  0.00  0.00    +0.000 A 
ATOM     21  O   UNL     1      -1.846  12.193  18.330  0.00  0.00    +0.000 OA
ATOM     22  N   UNL     1      -3.876  12.439  19.253  0.00  0.00    +0.000 N 
ATOM     23  H   UNL     1      -4.246  12.400  18.309  0.00  0.00    +0.000 HD
ENDBRANCH  13  19
ENDBRANCH   1  13
BRANCH   7  24
ATOM     24  O   UNL     1       3.609   4.823  18.599  0.00  0.00    +0.000 OA
BRANCH  24  25
ATOM     25  C   UNL     1       3.348   4.222  17.252  0.00  0.00    +0.000 C 
ATOM     26  C   UNL     1       4.650   3.901  16.490  0.00  0.00    +0.000 C 
ATOM     27  C   UNL     1       2.604   2.903  17.441  0.00  0.00    +0.000 C 
ENDBRANCH  24  25
ENDBRANCH   7  24
TORSDOF 4
ENDMDL
MODEL 7
REMARK VINA RESULT:      -7.5      2.783      9.011
REMARK  Name = 
REMARK  9 active torsions:
REMARK  status: ('A' for Active; 'I' for Inactive)
REMARK    1  A    between atoms: C_1  and  C_2
REMARK    2  A    between atoms: C_4  and  C_5
REMARK    3  A    between atoms: C_6  and  C_7
REMARK    4  A    between atoms: C_7  and  N_8
REMARK    5  A    between atoms: C_14  and  O_15
REMARK    6  A    between atoms: O_15  and  C_16
REMARK    7  A    between atoms: C_16  and  C_17
REMARK    8  A    between atoms: C_16  and  C_18
REMARK    9  A    between atoms: C_19  and  C_20
REMARK                            x       y       z     vdW  Elec       q    Type
REMARK                         _______ _______ _______ _____ _____    ______ ____
ROOT
ATOM      1  N   UNL     1       3.448   5.153  19.279  0.00  0.00    +0.000 N 
ATOM      2  C   UNL     1       3.613   6.209  18.296  0.00  0.00    +0.000 C 
ATOM      3  C   UNL     1       2.793   6.947  19.081  0.00  0.00    +0.000 C 
ATOM      4  C   UNL     1       1.914   7.851  19.565  0.00  0.00    +0.000 A 
ATOM      5  C   UNL     1       2.070   8.857  18.558  0.00  0.00    +0.000 A 
ATOM      6  C   UNL     1       1.335   9.927  18.629  0.00  0.00    +0.000 A 
ATOM      7  C   UNL     1       0.576   9.904  19.743  0.00  0.00    +0.000 A 
ATOM      8  C   UNL     1       0.600   8.594  20.771  0.00  0.00    +0.000 A 
ATOM      9  C   UNL     1      -0.452   8.904  21.882  0.00  0.00    +0.000 C 
ATOM     10  C   UNL     1       1.356   7.290  20.742  0.00  0.00    +0.000 A 
ATOM     11  C   UNL     1       2.370   5.597  20.647  0.00  0.00    +0.000 C 
ATOM     12  O   UNL     1       2.300   4.772  21.569  0.00  0.00    +0.000 OA
ENDROOT
BRANCH   1  13
ATOM     13  C   UNL     1       4.591   4.190  18.809  0.00  0.00    +0.000 C 
BRANCH  13  19
ATOM     14  C   UNL     1       7.219   4.828  13.588  0.00  0.00    +0.000 C 
ATOM     15  C   UNL     1       6.718   4.677  14.993  0.00  0.00    +0.000 A 
ATOM     16  C   UNL     1       7.371   5.077  16.094  0.00  0.00    +0.000 A 
ATOM     17  C   UNL     1       6.799   4.913  17.443  0.00  0.00    +0.000 A 
ATOM     18  C   UNL     1       7.666   5.443  18.543  0.00  0.00    +0.000 C 
ATOM     19  C   UNL     1       5.561   4.388  17.617  0.00  0.00    +0.000 A 
ATOM     20  C   UNL     1       4.866   3.878  16.330  0.00  0.00    +0.000 A 
ATOM     21  O   UNL     1       3.775   3.309  16.346  0.00  0.00    +0.000 OA
ATOM     22  N   UNL     1       5.497   4.084  15.134  0.00  0.00    +0.000 N 
ATOM     23  H   UNL     1       4.988   3.766  14.315  0.00  0.00    +0.000 HD
ENDBRANCH  13  19
ENDBRANCH   1  13
BRANCH   7  24
ATOM     24  O   UNL     1      -0.238  11.042  19.858  0.00  0.00    +0.000 OA
BRANCH  24  25
ATOM     25  C   UNL     1      -0.857  11.596  18.612  0.00  0.00    +0.000 C 
ATOM     26  C   UNL     1      -2.388  11.409  18.583  0.00  0.00    +0.000 C 
ATOM     27  C   UNL     1      -0.587  13.096  18.557  0.00  0.00    +0.000 C 
ENDBRANCH  24  25
ENDBRANCH   7  24
TORSDOF 4
ENDMDL
MODEL 8
REMARK VINA RESULT:      -7.5      2.062      3.311
REMARK  Name = 
REMARK  9 active torsions:
REMARK  status: ('A' for Active; 'I' for Inactive)
REMARK    1  A    between atoms: C_1  and  C_2
REMARK    2  A    between atoms: C_4  and  C_5
REMARK    3  A    between atoms: C_6  and  C_7
REMARK    4  A    between atoms: C_7  and  N_8
REMARK    5  A    between atoms: C_14  and  O_15
REMARK    6  A    between atoms: O_15  and  C_16
REMARK    7  A    between atoms: C_16  and  C_17
REMARK    8  A    between atoms: C_16  and  C_18
REMARK    9  A    between atoms: C_19  and  C_20
REMARK                            x       y       z     vdW  Elec       q    Type
REMARK                         _______ _______ _______ _____ _____    ______ ____
ROOT
ATOM      1  N   UNL     1       0.858  10.573  19.549  0.00  0.00    +0.000 N 
ATOM      2  C   UNL     1       0.525   9.685  20.650  0.00  0.00    +0.000 C 
ATOM      3  C   UNL     1       1.333   8.780  20.048  0.00  0.00    +0.000 C 
ATOM      4  C   UNL     1       1.941   7.651  19.625  0.00  0.00    +0.000 A 
ATOM      5  C   UNL     1       1.562   6.790  20.705  0.00  0.00    +0.000 A 
ATOM      6  C   UNL     1       1.924   5.543  20.662  0.00  0.00    +0.000 A 
ATOM      7  C   UNL     1       2.690   5.311  19.577  0.00  0.00    +0.000 A 
ATOM      8  C   UNL     1       2.995   6.517  18.470  0.00  0.00    +0.000 A 
ATOM      9  C   UNL     1       3.835   5.851  17.335  0.00  0.00    +0.000 C 
ATOM     10  C   UNL     1       2.569   7.961  18.392  0.00  0.00    +0.000 A 
ATOM     11  C   UNL     1       1.974   9.845  18.343  0.00  0.00    +0.000 C 
ATOM     12  O   UNL     1       2.382  10.607  17.455  0.00  0.00    +0.000 OA
ENDROOT
BRANCH   1  13
ATOM     13  C   UNL     1       0.299  11.915  20.130  0.00  0.00    +0.000 C 
BRANCH  13  19
ATOM     14  C   UNL     1      -5.516  12.774  20.230  0.00  0.00    +0.000 C 
ATOM     15  C   UNL     1      -4.031  12.632  20.372  0.00  0.00    +0.000 A 
ATOM     16  C   UNL     1      -3.364  12.615  21.536  0.00  0.00    +0.000 A 
ATOM     17  C   UNL     1      -1.900  12.448  21.594  0.00  0.00    +0.000 A 
ATOM     18  C   UNL     1      -1.342  12.431  22.983  0.00  0.00    +0.000 C 
ATOM     19  C   UNL     1      -1.174  12.258  20.465  0.00  0.00    +0.000 A 
ATOM     20  C   UNL     1      -1.969  12.349  19.138  0.00  0.00    +0.000 A 
ATOM     21  O   UNL     1      -1.430  12.273  18.035  0.00  0.00    +0.000 OA
ATOM     22  N   UNL     1      -3.326  12.509  19.211  0.00  0.00    +0.000 N 
ATOM     23  H   UNL     1      -3.808  12.527  18.318  0.00  0.00    +0.000 HD
ENDBRANCH  13  19
ENDBRANCH   1  13
BRANCH   7  24
ATOM     24  O   UNL     1       3.102   3.972  19.489  0.00  0.00    +0.000 OA
BRANCH  24  25
ATOM     25  C   UNL     1       2.222   3.011  18.750  0.00  0.00    +0.000 C 
ATOM     26  C   UNL     1       3.025   2.065  17.834  0.00  0.00    +0.000 C 
ATOM     27  C   UNL     1       1.492   2.137  19.766  0.00  0.00    +0.000 C 
ENDBRANCH  24  25
ENDBRANCH   7  24
TORSDOF 4
ENDMDL
MODEL 9
REMARK VINA RESULT:      -7.4      1.684      2.146
REMARK  Name = 
REMARK  9 active torsions:
REMARK  status: ('A' for Active; 'I' for Inactive)
REMARK    1  A    between atoms: C_1  and  C_2
REMARK    2  A    between atoms: C_4  and  C_5
REMARK    3  A    between atoms: C_6  and  C_7
REMARK    4  A    between atoms: C_7  and  N_8
REMARK    5  A    between atoms: C_14  and  O_15
REMARK    6  A    between atoms: O_15  and  C_16
REMARK    7  A    between atoms: C_16  and  C_17
REMARK    8  A    between atoms: C_16  and  C_18
REMARK    9  A    between atoms: C_19  and  C_20
REMARK                            x       y       z     vdW  Elec       q    Type
REMARK                         _______ _______ _______ _____ _____    ______ ____
ROOT
ATOM      1  N   UNL     1       0.926   9.962  19.766  0.00  0.00    +0.000 N 
ATOM      2  C   UNL     1       1.678   9.778  18.537  0.00  0.00    +0.000 C 
ATOM      3  C   UNL     1       1.858   8.499  18.943  0.00  0.00    +0.000 C 
ATOM      4  C   UNL     1       2.316   7.244  19.139  0.00  0.00    +0.000 A 
ATOM      5  C   UNL     1       3.081   7.108  17.937  0.00  0.00    +0.000 A 
ATOM      6  C   UNL     1       3.751   6.010  17.746  0.00  0.00    +0.000 A 
ATOM      7  C   UNL     1       3.521   5.138  18.749  0.00  0.00    +0.000 A 
ATOM      8  C   UNL     1       2.557   5.553  20.042  0.00  0.00    +0.000 A 
ATOM      9  C   UNL     1       2.599   4.331  21.014  0.00  0.00    +0.000 C 
ATOM     10  C   UNL     1       1.801   6.810  20.388  0.00  0.00    +0.000 A 
ATOM     11  C   UNL     1       0.835   8.487  20.788  0.00  0.00    +0.000 C 
ATOM     12  O   UNL     1       0.100   8.563  21.783  0.00  0.00    +0.000 OA
ENDROOT
BRANCH   1  13
ATOM     13  C   UNL     1       0.262  11.345  19.450  0.00  0.00    +0.000 C 
BRANCH  13  19
ATOM     14  C   UNL     1      -4.300  13.887  22.150  0.00  0.00    +0.000 C 
ATOM     15  C   UNL     1      -3.261  13.160  21.351  0.00  0.00    +0.000 A 
ATOM     16  C   UNL     1      -3.429  12.699  20.103  0.00  0.00    +0.000 A 
ATOM     17  C   UNL     1      -2.348  12.011  19.373  0.00  0.00    +0.000 A 
ATOM     18  C   UNL     1      -2.719  11.591  17.984  0.00  0.00    +0.000 C 
ATOM     19  C   UNL     1      -1.120  11.859  19.926  0.00  0.00    +0.000 A 
ATOM     20  C   UNL     1      -0.983  12.345  21.391  0.00  0.00    +0.000 A 
ATOM     21  O   UNL     1       0.049  12.201  22.044  0.00  0.00    +0.000 OA
ATOM     22  N   UNL     1      -2.058  12.967  21.965  0.00  0.00    +0.000 N 
ATOM     23  H   UNL     1      -1.910  13.300  22.912  0.00  0.00    +0.000 HD
ENDBRANCH  13  19
ENDBRANCH   1  13
BRANCH   7  24
ATOM     24  O   UNL     1       4.229   3.937  18.585  0.00  0.00    +0.000 OA
BRANCH  24  25
ATOM     25  C   UNL     1       3.611   2.864  17.741  0.00  0.00    +0.000 C 
ATOM     26  C   UNL     1       3.614   1.490  18.443  0.00  0.00    +0.000 C 
ATOM     27  C   UNL     1       2.154   3.228  17.476  0.00  0.00    +0.000 C 
ENDBRANCH  24  25
ENDBRANCH   7  24
TORSDOF 4
ENDMDL
