MODEL 1
REMARK VINA RESULT:      -7.4      0.000      0.000
REMARK  Name = 
REMARK  7 active torsions:
REMARK  status: ('A' for Active; 'I' for Inactive)
REMARK    1  A    between atoms: C_1  and  C_2
REMARK    2  A    between atoms: C_2  and  C_3
REMARK    3  A    between atoms: C_2  and  N_8
REMARK    4  A    between atoms: C_3  and  S_4
REMARK    5  A    between atoms: S_4  and  C_5
REMARK    6  A    between atoms: C_14  and  O_15
REMARK    7  A    between atoms: O_15  and  C_16
REMARK                            x       y       z     vdW  Elec       q    Type
REMARK                         _______ _______ _______ _____ _____    ______ ____
ROOT
ATOM      1  N   UNL     1      -0.668  11.474  19.524  0.00  0.00    +0.000 N 
ATOM      2  C   UNL     1       0.023  10.398  19.982  0.00  0.00    +0.000 A 
ATOM      3  N   UNL     1      -0.061   9.901  21.221  0.00  0.00    +0.000 NA
ATOM      4  N   UNL     1       0.825   8.885  21.221  0.00  0.00    +0.000 N 
ATOM      5  C   UNL     1       1.386   8.640  20.004  0.00  0.00    +0.000 A 
ATOM      6  N   UNL     1       2.198   7.624  19.672  0.00  0.00    +0.000 NA
ATOM      7  C   UNL     1       2.568   7.683  18.378  0.00  0.00    +0.000 A 
ATOM      8  N   UNL     1       2.284   8.676  17.502  0.00  0.00    +0.000 NA
ATOM      9  C   UNL     1       1.451   9.676  17.896  0.00  0.00    +0.000 A 
ATOM     10  C   UNL     1       0.946   9.666  19.185  0.00  0.00    +0.000 A 
ATOM     11  H   UNL     1      -0.077  12.277  19.316  0.00  0.00    +0.000 HD
ATOM     12  H   UNL     1       0.996   8.379  22.080  0.00  0.00    +0.000 HD
ENDROOT
BRANCH   1  14
ATOM     13  C   UNL     1      -1.738  13.137  20.968  0.00  0.00    +0.000 C 
ATOM     14  C   UNL     1      -1.943  11.870  20.135  0.00  0.00    +0.000 C 
BRANCH  14  15
ATOM     15  C   UNL     1      -3.084  12.004  19.118  0.00  0.00    +0.000 C 
BRANCH  15  16
ATOM     16  S   UNL     1      -2.906  11.052  17.625  0.00  0.00    +0.000 S 
ATOM     17  C   UNL     1      -4.476  11.314  16.811  0.00  0.00    +0.000 C 
ATOM     18  O   UNL     1      -1.908  11.675  16.777  0.00  0.00    +0.000 OA
ATOM     19  O   UNL     1      -2.844   9.641  17.941  0.00  0.00    +0.000 OA
ENDBRANCH  15  16
ENDBRANCH  14  15
ENDBRANCH   1  14
BRANCH   7  20
ATOM     20  O   UNL     1       3.299   6.589  17.919  0.00  0.00    +0.000 OA
BRANCH  20  21
ATOM     21  C   UNL     1       2.875   5.329  18.284  0.00  0.00    +0.000 A 
ATOM     22  C   UNL     1       1.704   4.732  17.795  0.00  0.00    +0.000 A 
ATOM     23  C   UNL     1       1.342   3.450  18.212  0.00  0.00    +0.000 A 
ATOM     24  C   UNL     1       2.126   2.782  19.145  0.00  0.00    +0.000 A 
ATOM     25  F   UNL     1       1.769   1.554  19.545  0.00  0.00    +0.000 F 
ATOM     26  C   UNL     1       3.269   3.373  19.672  0.00  0.00    +0.000 A 
ATOM     27  C   UNL     1       3.631   4.645  19.241  0.00  0.00    +0.000 A 
ATOM     28  F   UNL     1       4.732   5.209  19.762  0.00  0.00    +0.000 F 
ENDBRANCH  20  21
ENDBRANCH   7  20
TORSDOF 5
ENDMDL
MODEL 2
REMARK VINA RESULT:      -7.3      4.069      7.835
REMARK  Name = 
REMARK  7 active torsions:
REMARK  status: ('A' for Active; 'I' for Inactive)
REMARK    1  A    between atoms: C_1  and  C_2
REMARK    2  A    between atoms: C_2  and  C_3
REMARK    3  A    between atoms: C_2  and  N_8
REMARK    4  A    between atoms: C_3  and  S_4
REMARK    5  A    between atoms: S_4  and  C_5
REMARK    6  A    between atoms: C_14  and  O_15
REMARK    7  A    between atoms: O_15  and  C_16
REMARK                            x       y       z     vdW  Elec       q    Type
REMARK                         _______ _______ _______ _____ _____    ______ ____
ROOT
ATOM      1  N   UNL     1       3.304   5.630  19.814  0.00  0.00    +0.000 N 
ATOM      2  C   UNL     1       3.140   6.623  18.901  0.00  0.00    +0.000 A 
ATOM      3  N   UNL     1       3.675   6.634  17.674  0.00  0.00    +0.000 NA
ATOM      4  N   UNL     1       3.282   7.819  17.164  0.00  0.00    +0.000 N 
ATOM      5  C   UNL     1       2.428   8.513  17.967  0.00  0.00    +0.000 A 
ATOM      6  N   UNL     1       1.779   9.650  17.676  0.00  0.00    +0.000 NA
ATOM      7  C   UNL     1       1.010  10.063  18.701  0.00  0.00    +0.000 A 
ATOM      8  N   UNL     1       0.943   9.509  19.934  0.00  0.00    +0.000 NA
ATOM      9  C   UNL     1       1.620   8.353  20.168  0.00  0.00    +0.000 A 
ATOM     10  C   UNL     1       2.377   7.797  19.152  0.00  0.00    +0.000 A 
ATOM     11  H   UNL     1       3.846   5.913  20.628  0.00  0.00    +0.000 HD
ATOM     12  H   UNL     1       3.616   8.098  16.251  0.00  0.00    +0.000 HD
ENDROOT
BRANCH   1  14
ATOM     13  C   UNL     1       5.110   4.151  19.073  0.00  0.00    +0.000 C 
ATOM     14  C   UNL     1       3.617   4.259  19.392  0.00  0.00    +0.000 C 
BRANCH  14  15
ATOM     15  C   UNL     1       3.144   3.198  20.394  0.00  0.00    +0.000 C 
BRANCH  15  16
ATOM     16  S   UNL     1       1.406   3.213  20.775  0.00  0.00    +0.000 S 
ATOM     17  C   UNL     1       0.705   2.279  19.421  0.00  0.00    +0.000 C 
ATOM     18  O   UNL     1       1.172   2.422  21.968  0.00  0.00    +0.000 OA
ATOM     19  O   UNL     1       0.883   4.557  20.654  0.00  0.00    +0.000 OA
ENDBRANCH  15  16
ENDBRANCH  14  15
ENDBRANCH   1  14
BRANCH   7  20
ATOM     20  O   UNL     1       0.196  11.162  18.428  0.00  0.00    +0.000 OA
BRANCH  20  21
ATOM     21  C   UNL     1      -1.149  10.938  18.227  0.00  0.00    +0.000 A 
ATOM     22  C   UNL     1      -1.651   9.918  17.406  0.00  0.00    +0.000 A 
ATOM     23  C   UNL     1      -3.030   9.754  17.254  0.00  0.00    +0.000 A 
ATOM     24  C   UNL     1      -3.902  10.631  17.888  0.00  0.00    +0.000 A 
ATOM     25  F   UNL     1      -5.223  10.471  17.732  0.00  0.00    +0.000 F 
ATOM     26  C   UNL     1      -3.423  11.673  18.673  0.00  0.00    +0.000 A 
ATOM     27  C   UNL     1      -2.048  11.821  18.832  0.00  0.00    +0.000 A 
ATOM     28  F   UNL     1      -1.595  12.835  19.586  0.00  0.00    +0.000 F 
ENDBRANCH  20  21
ENDBRANCH   7  20
TORSDOF 5
ENDMDL
MODEL 3
REMARK VINA RESULT:      -7.1      4.172      8.244
REMARK  Name = 
REMARK  7 active torsions:
REMARK  status: ('A' for Active; 'I' for Inactive)
REMARK    1  A    between atoms: C_1  and  C_2
REMARK    2  A    between atoms: C_2  and  C_3
REMARK    3  A    between atoms: C_2  and  N_8
REMARK    4  A    between atoms: C_3  and  S_4
REMARK    5  A    between atoms: S_4  and  C_5
REMARK    6  A    between atoms: C_14  and  O_15
REMARK    7  A    between atoms: O_15  and  C_16
REMARK                            x       y       z     vdW  Elec       q    Type
REMARK                         _______ _______ _______ _____ _____    ______ ____
ROOT
ATOM      1  N   UNL     1       3.630   5.212  17.492  0.00  0.00    +0.000 N 
ATOM      2  C   UNL     1       3.049   5.827  18.554  0.00  0.00    +0.000 A 
ATOM      3  N   UNL     1       2.929   5.299  19.778  0.00  0.00    +0.000 NA
ATOM      4  N   UNL     1       2.256   6.240  20.470  0.00  0.00    +0.000 N 
ATOM      5  C   UNL     1       2.041   7.392  19.774  0.00  0.00    +0.000 A 
ATOM      6  N   UNL     1       1.516   8.537  20.236  0.00  0.00    +0.000 NA
ATOM      7  C   UNL     1       1.449   9.479  19.277  0.00  0.00    +0.000 A 
ATOM      8  N   UNL     1       1.751   9.320  17.967  0.00  0.00    +0.000 NA
ATOM      9  C   UNL     1       2.286   8.138  17.559  0.00  0.00    +0.000 A 
ATOM     10  C   UNL     1       2.474   7.127  18.485  0.00  0.00    +0.000 A 
ATOM     11  H   UNL     1       2.974   4.977  16.750  0.00  0.00    +0.000 HD
ATOM     12  H   UNL     1       1.982   6.050  21.424  0.00  0.00    +0.000 HD
ENDROOT
BRANCH   1  14
ATOM     13  C   UNL     1       3.954   2.801  17.774  0.00  0.00    +0.000 C 
ATOM     14  C   UNL     1       4.642   4.165  17.686  0.00  0.00    +0.000 C 
BRANCH  14  15
ATOM     15  C   UNL     1       5.757   4.203  16.633  0.00  0.00    +0.000 C 
BRANCH  15  16
ATOM     16  S   UNL     1       6.513   5.791  16.362  0.00  0.00    +0.000 S 
ATOM     17  C   UNL     1       7.151   6.196  17.982  0.00  0.00    +0.000 C 
ATOM     18  O   UNL     1       7.673   5.628  15.506  0.00  0.00    +0.000 OA
ATOM     19  O   UNL     1       5.499   6.780  16.067  0.00  0.00    +0.000 OA
ENDBRANCH  15  16
ENDBRANCH  14  15
ENDBRANCH   1  14
BRANCH   7  20
ATOM     20  O   UNL     1       1.044  10.741  19.710  0.00  0.00    +0.000 OA
BRANCH  20  21
ATOM     21  C   UNL     1      -0.273  11.100  19.514  0.00  0.00    +0.000 A 
ATOM     22  C   UNL     1      -1.052  10.638  18.444  0.00  0.00    +0.000 A 
ATOM     23  C   UNL     1      -2.381  11.048  18.313  0.00  0.00    +0.000 A 
ATOM     24  C   UNL     1      -2.916  11.947  19.228  0.00  0.00    +0.000 A 
ATOM     25  F   UNL     1      -4.190  12.341  19.093  0.00  0.00    +0.000 F 
ATOM     26  C   UNL     1      -2.148  12.448  20.273  0.00  0.00    +0.000 A 
ATOM     27  C   UNL     1      -0.829  12.024  20.404  0.00  0.00    +0.000 A 
ATOM     28  F   UNL     1      -0.094  12.519  21.412  0.00  0.00    +0.000 F 
ENDBRANCH  20  21
ENDBRANCH   7  20
TORSDOF 5
ENDMDL
MODEL 4
REMARK VINA RESULT:      -7.1      2.097      2.623
REMARK  Name = 
REMARK  7 active torsions:
REMARK  status: ('A' for Active; 'I' for Inactive)
REMARK    1  A    between atoms: C_1  and  C_2
REMARK    2  A    between atoms: C_2  and  C_3
REMARK    3  A    between atoms: C_2  and  N_8
REMARK    4  A    between atoms: C_3  and  S_4
REMARK    5  A    between atoms: S_4  and  C_5
REMARK    6  A    between atoms: C_14  and  O_15
REMARK    7  A    between atoms: O_15  and  C_16
REMARK                            x       y       z     vdW  Elec       q    Type
REMARK                         _______ _______ _______ _____ _____    ______ ____
ROOT
ATOM      1  N   UNL     1       0.308  10.976  18.629  0.00  0.00    +0.000 N 
ATOM      2  C   UNL     1       0.718   9.973  19.448  0.00  0.00    +0.000 A 
ATOM      3  N   UNL     1       0.410   9.866  20.746  0.00  0.00    +0.000 NA
ATOM      4  N   UNL     1       1.068   8.758  21.142  0.00  0.00    +0.000 N 
ATOM      5  C   UNL     1       1.689   8.091  20.130  0.00  0.00    +0.000 A 
ATOM      6  N   UNL     1       2.308   6.902  20.197  0.00  0.00    +0.000 NA
ATOM      7  C   UNL     1       2.812   6.533  19.004  0.00  0.00    +0.000 A 
ATOM      8  N   UNL     1       2.825   7.272  17.870  0.00  0.00    +0.000 NA
ATOM      9  C   UNL     1       2.176   8.467  17.861  0.00  0.00    +0.000 A 
ATOM     10  C   UNL     1       1.551   8.904  19.017  0.00  0.00    +0.000 A 
ATOM     11  H   UNL     1       1.067  11.579  18.315  0.00  0.00    +0.000 HD
ATOM     12  H   UNL     1       1.046   8.492  22.118  0.00  0.00    +0.000 HD
ENDROOT
BRANCH   1  14
ATOM     13  C   UNL     1      -0.545  13.097  19.508  0.00  0.00    +0.000 C 
ATOM     14  C   UNL     1      -0.916  11.735  18.917  0.00  0.00    +0.000 C 
BRANCH  14  15
ATOM     15  C   UNL     1      -1.854  11.845  17.708  0.00  0.00    +0.000 C 
BRANCH  15  16
ATOM     16  S   UNL     1      -2.427  10.303  17.029  0.00  0.00    +0.000 S 
ATOM     17  C   UNL     1      -2.995  10.785  15.404  0.00  0.00    +0.000 C 
ATOM     18  O   UNL     1      -1.292   9.426  16.812  0.00  0.00    +0.000 OA
ATOM     19  O   UNL     1      -3.597   9.848  17.748  0.00  0.00    +0.000 OA
ENDBRANCH  15  16
ENDBRANCH  14  15
ENDBRANCH   1  14
BRANCH   7  20
ATOM     20  O   UNL     1       3.350   5.248  18.958  0.00  0.00    +0.000 OA
BRANCH  20  21
ATOM     21  C   UNL     1       4.353   4.998  18.046  0.00  0.00    +0.000 A 
ATOM     22  C   UNL     1       4.124   4.480  16.763  0.00  0.00    +0.000 A 
ATOM     23  C   UNL     1       5.194   4.255  15.895  0.00  0.00    +0.000 A 
ATOM     24  C   UNL     1       6.492   4.509  16.322  0.00  0.00    +0.000 A 
ATOM     25  F   UNL     1       7.515   4.284  15.485  0.00  0.00    +0.000 F 
ATOM     26  C   UNL     1       6.744   4.983  17.604  0.00  0.00    +0.000 A 
ATOM     27  C   UNL     1       5.671   5.219  18.459  0.00  0.00    +0.000 A 
ATOM     28  F   UNL     1       5.925   5.670  19.697  0.00  0.00    +0.000 F 
ENDBRANCH  20  21
ENDBRANCH   7  20
TORSDOF 5
ENDMDL
MODEL 5
REMARK VINA RESULT:      -7.1      2.056      2.808
REMARK  Name = 
REMARK  7 active torsions:
REMARK  status: ('A' for Active; 'I' for Inactive)
REMARK    1  A    between atoms: C_1  and  C_2
REMARK    2  A    between atoms: C_2  and  C_3
REMARK    3  A    between atoms: C_2  and  N_8
REMARK    4  A    between atoms: C_3  and  S_4
REMARK    5  A    between atoms: S_4  and  C_5
REMARK    6  A    between atoms: C_14  and  O_15
REMARK    7  A    between atoms: O_15  and  C_16
REMARK                            x       y       z     vdW  Elec       q    Type
REMARK                         _______ _______ _______ _____ _____    ______ ____
ROOT
ATOM      1  N   UNL     1       0.380  11.185  18.571  0.00  0.00    +0.000 N 
ATOM      2  C   UNL     1       0.678  10.167  19.420  0.00  0.00    +0.000 A 
ATOM      3  N   UNL     1       0.281  10.088  20.695  0.00  0.00    +0.000 NA
ATOM      4  N   UNL     1       0.849   8.949  21.139  0.00  0.00    +0.000 N 
ATOM      5  C   UNL     1       1.496   8.240  20.173  0.00  0.00    +0.000 A 
ATOM      6  N   UNL     1       2.042   7.019  20.286  0.00  0.00    +0.000 NA
ATOM      7  C   UNL     1       2.601   6.612  19.130  0.00  0.00    +0.000 A 
ATOM      8  N   UNL     1       2.729   7.340  17.996  0.00  0.00    +0.000 NA
ATOM      9  C   UNL     1       2.150   8.569  17.939  0.00  0.00    +0.000 A 
ATOM     10  C   UNL     1       1.476   9.050  19.049  0.00  0.00    +0.000 A 
ATOM     11  H   UNL     1       1.190  11.742  18.304  0.00  0.00    +0.000 HD
ATOM     12  H   UNL     1       0.748   8.693  22.112  0.00  0.00    +0.000 HD
ENDROOT
BRANCH   1  14
ATOM     13  C   UNL     1      -0.404  13.376  19.335  0.00  0.00    +0.000 C 
ATOM     14  C   UNL     1      -0.816  12.013  18.774  0.00  0.00    +0.000 C 
BRANCH  14  15
ATOM     15  C   UNL     1      -1.691  12.124  17.519  0.00  0.00    +0.000 C 
BRANCH  15  16
ATOM     16  S   UNL     1      -2.908  10.843  17.306  0.00  0.00    +0.000 S 
ATOM     17  C   UNL     1      -2.989  10.679  15.528  0.00  0.00    +0.000 C 
ATOM     18  O   UNL     1      -2.370   9.588  17.799  0.00  0.00    +0.000 OA
ATOM     19  O   UNL     1      -4.208  11.317  17.730  0.00  0.00    +0.000 OA
ENDBRANCH  15  16
ENDBRANCH  14  15
ENDBRANCH   1  14
BRANCH   7  20
ATOM     20  O   UNL     1       3.068   5.299  19.126  0.00  0.00    +0.000 OA
BRANCH  20  21
ATOM     21  C   UNL     1       4.327   5.061  18.618  0.00  0.00    +0.000 A 
ATOM     22  C   UNL     1       5.509   5.480  19.246  0.00  0.00    +0.000 A 
ATOM     23  C   UNL     1       6.749   5.201  18.668  0.00  0.00    +0.000 A 
ATOM     24  C   UNL     1       6.805   4.539  17.447  0.00  0.00    +0.000 A 
ATOM     25  F   UNL     1       7.999   4.280  16.895  0.00  0.00    +0.000 F 
ATOM     26  C   UNL     1       5.644   4.152  16.789  0.00  0.00    +0.000 A 
ATOM     27  C   UNL     1       4.413   4.421  17.378  0.00  0.00    +0.000 A 
ATOM     28  F   UNL     1       3.297   4.050  16.731  0.00  0.00    +0.000 F 
ENDBRANCH  20  21
ENDBRANCH   7  20
TORSDOF 5
ENDMDL
MODEL 6
REMARK VINA RESULT:      -7.1      4.104      7.923
REMARK  Name = 
REMARK  7 active torsions:
REMARK  status: ('A' for Active; 'I' for Inactive)
REMARK    1  A    between atoms: C_1  and  C_2
REMARK    2  A    between atoms: C_2  and  C_3
REMARK    3  A    between atoms: C_2  and  N_8
REMARK    4  A    between atoms: C_3  and  S_4
REMARK    5  A    between atoms: S_4  and  C_5
REMARK    6  A    between atoms: C_14  and  O_15
REMARK    7  A    between atoms: O_15  and  C_16
REMARK                            x       y       z     vdW  Elec       q    Type
REMARK                         _______ _______ _______ _____ _____    ______ ____
ROOT
ATOM      1  N   UNL     1       3.433   5.832  19.865  0.00  0.00    +0.000 N 
ATOM      2  C   UNL     1       3.003   6.895  19.137  0.00  0.00    +0.000 A 
ATOM      3  N   UNL     1       3.396   7.183  17.891  0.00  0.00    +0.000 NA
ATOM      4  N   UNL     1       2.751   8.332  17.608  0.00  0.00    +0.000 N 
ATOM      5  C   UNL     1       1.877   8.730  18.574  0.00  0.00    +0.000 A 
ATOM      6  N   UNL     1       1.011   9.753  18.518  0.00  0.00    +0.000 NA
ATOM      7  C   UNL     1       0.293   9.862  19.652  0.00  0.00    +0.000 A 
ATOM      8  N   UNL     1       0.454   9.135  20.782  0.00  0.00    +0.000 NA
ATOM      9  C   UNL     1       1.343   8.107  20.777  0.00  0.00    +0.000 A 
ATOM     10  C   UNL     1       2.077   7.855  19.630  0.00  0.00    +0.000 A 
ATOM     11  H   UNL     1       3.999   6.093  20.671  0.00  0.00    +0.000 HD
ATOM     12  H   UNL     1       2.933   8.797  16.728  0.00  0.00    +0.000 HD
ENDROOT
BRANCH   1  14
ATOM     13  C   UNL     1       5.448   4.738  19.004  0.00  0.00    +0.000 C 
ATOM     14  C   UNL     1       3.936   4.619  19.207  0.00  0.00    +0.000 C 
BRANCH  14  15
ATOM     15  C   UNL     1       3.532   3.329  19.933  0.00  0.00    +0.000 C 
BRANCH  15  16
ATOM     16  S   UNL     1       1.794   2.948  19.928  0.00  0.00    +0.000 S 
ATOM     17  C   UNL     1       1.470   2.602  21.651  0.00  0.00    +0.000 C 
ATOM     18  O   UNL     1       1.044   4.149  19.614  0.00  0.00    +0.000 OA
ATOM     19  O   UNL     1       1.559   1.711  19.215  0.00  0.00    +0.000 OA
ENDBRANCH  15  16
ENDBRANCH  14  15
ENDBRANCH   1  14
BRANCH   7  20
ATOM     20  O   UNL     1      -0.725  10.815  19.621  0.00  0.00    +0.000 OA
BRANCH  20  21
ATOM     21  C   UNL     1      -1.649  10.741  18.601  0.00  0.00    +0.000 A 
ATOM     22  C   UNL     1      -1.500   9.916  17.476  0.00  0.00    +0.000 A 
ATOM     23  C   UNL     1      -2.482   9.897  16.484  0.00  0.00    +0.000 A 
ATOM     24  C   UNL     1      -3.590  10.729  16.596  0.00  0.00    +0.000 A 
ATOM     25  F   UNL     1      -4.525  10.709  15.636  0.00  0.00    +0.000 F 
ATOM     26  C   UNL     1      -3.736  11.583  17.682  0.00  0.00    +0.000 A 
ATOM     27  C   UNL     1      -2.760  11.587  18.674  0.00  0.00    +0.000 A 
ATOM     28  F   UNL     1      -2.907  12.421  19.715  0.00  0.00    +0.000 F 
ENDBRANCH  20  21
ENDBRANCH   7  20
TORSDOF 5
ENDMDL
MODEL 7
REMARK VINA RESULT:      -7.0      4.163      8.238
REMARK  Name = 
REMARK  7 active torsions:
REMARK  status: ('A' for Active; 'I' for Inactive)
REMARK    1  A    between atoms: C_1  and  C_2
REMARK    2  A    between atoms: C_2  and  C_3
REMARK    3  A    between atoms: C_2  and  N_8
REMARK    4  A    between atoms: C_3  and  S_4
REMARK    5  A    between atoms: S_4  and  C_5
REMARK    6  A    between atoms: C_14  and  O_15
REMARK    7  A    between atoms: O_15  and  C_16
REMARK                            x       y       z     vdW  Elec       q    Type
REMARK                         _______ _______ _______ _____ _____    ______ ____
ROOT
ATOM      1  N   UNL     1       3.757   5.502  17.918  0.00  0.00    +0.000 N 
ATOM      2  C   UNL     1       3.024   6.202  18.823  0.00  0.00    +0.000 A 
ATOM      3  N   UNL     1       2.739   5.790  20.064  0.00  0.00    +0.000 NA
ATOM      4  N   UNL     1       1.964   6.776  20.559  0.00  0.00    +0.000 N 
ATOM      5  C   UNL     1       1.836   7.850  19.731  0.00  0.00    +0.000 A 
ATOM      6  N   UNL     1       1.239   9.020  20.001  0.00  0.00    +0.000 NA
ATOM      7  C   UNL     1       1.297   9.865  18.954  0.00  0.00    +0.000 A 
ATOM      8  N   UNL     1       1.783   9.589  17.721  0.00  0.00    +0.000 NA
ATOM      9  C   UNL     1       2.383   8.387  17.509  0.00  0.00    +0.000 A 
ATOM     10  C   UNL     1       2.450   7.474  18.548  0.00  0.00    +0.000 A 
ATOM     11  H   UNL     1       3.214   5.181  17.118  0.00  0.00    +0.000 HD
ATOM     12  H   UNL     1       1.560   6.671  21.480  0.00  0.00    +0.000 HD
ENDROOT
BRANCH   1  14
ATOM     13  C   UNL     1       4.246   3.104  17.988  0.00  0.00    +0.000 C 
ATOM     14  C   UNL     1       4.743   4.505  18.352  0.00  0.00    +0.000 C 
BRANCH  14  15
ATOM     15  C   UNL     1       6.158   4.790  17.832  0.00  0.00    +0.000 C 
BRANCH  15  16
ATOM     16  S   UNL     1       6.259   5.443  16.179  0.00  0.00    +0.000 S 
ATOM     17  C   UNL     1       6.111   3.972  15.174  0.00  0.00    +0.000 C 
ATOM     18  O   UNL     1       5.074   6.234  15.906  0.00  0.00    +0.000 OA
ATOM     19  O   UNL     1       7.584   5.970  15.935  0.00  0.00    +0.000 OA
ENDBRANCH  15  16
ENDBRANCH  14  15
ENDBRANCH   1  14
BRANCH   7  20
ATOM     20  O   UNL     1       0.820  11.151  19.201  0.00  0.00    +0.000 OA
BRANCH  20  21
ATOM     21  C   UNL     1      -0.540  11.363  19.124  0.00  0.00    +0.000 A 
ATOM     22  C   UNL     1      -1.354  10.822  18.118  0.00  0.00    +0.000 A 
ATOM     23  C   UNL     1      -2.726  11.082  18.109  0.00  0.00    +0.000 A 
ATOM     24  C   UNL     1      -3.275  11.913  19.078  0.00  0.00    +0.000 A 
ATOM     25  F   UNL     1      -4.592  12.163  19.059  0.00  0.00    +0.000 F 
ATOM     26  C   UNL     1      -2.479  12.491  20.060  0.00  0.00    +0.000 A 
ATOM     27  C   UNL     1      -1.115  12.215  20.071  0.00  0.00    +0.000 A 
ATOM     28  F   UNL     1      -0.354  12.785  21.019  0.00  0.00    +0.000 F 
ENDBRANCH  20  21
ENDBRANCH   7  20
TORSDOF 5
ENDMDL
MODEL 8
REMARK VINA RESULT:      -7.0      4.352      8.495
REMARK  Name = 
REMARK  7 active torsions:
REMARK  status: ('A' for Active; 'I' for Inactive)
REMARK    1  A    between atoms: C_1  and  C_2
REMARK    2  A    between atoms: C_2  and  C_3
REMARK    3  A    between atoms: C_2  and  N_8
REMARK    4  A    between atoms: C_3  and  S_4
REMARK    5  A    between atoms: S_4  and  C_5
REMARK    6  A    between atoms: C_14  and  O_15
REMARK    7  A    between atoms: O_15  and  C_16
REMARK                            x       y       z     vdW  Elec       q    Type
REMARK                         _______ _______ _______ _____ _____    ______ ____
ROOT
ATOM      1  N   UNL     1       3.696   5.644  18.480  0.00  0.00    +0.000 N 
ATOM      2  C   UNL     1       2.885   6.441  19.223  0.00  0.00    +0.000 A 
ATOM      3  N   UNL     1       2.475   6.172  20.468  0.00  0.00    +0.000 NA
ATOM      4  N   UNL     1       1.665   7.207  20.770  0.00  0.00    +0.000 N 
ATOM      5  C   UNL     1       1.631   8.180  19.817  0.00  0.00    +0.000 A 
ATOM      6  N   UNL     1       1.022   9.373  19.893  0.00  0.00    +0.000 NA
ATOM      7  C   UNL     1       1.193  10.094  18.768  0.00  0.00    +0.000 A 
ATOM      8  N   UNL     1       1.795   9.680  17.629  0.00  0.00    +0.000 NA
ATOM      9  C   UNL     1       2.400   8.462  17.614  0.00  0.00    +0.000 A 
ATOM     10  C   UNL     1       2.355   7.673  18.750  0.00  0.00    +0.000 A 
ATOM     11  H   UNL     1       3.232   5.233  17.671  0.00  0.00    +0.000 HD
ATOM     12  H   UNL     1       1.171   7.206  21.652  0.00  0.00    +0.000 HD
ENDROOT
BRANCH   1  14
ATOM     13  C   UNL     1       4.525   3.340  18.430  0.00  0.00    +0.000 C 
ATOM     14  C   UNL     1       4.624   4.702  19.120  0.00  0.00    +0.000 C 
BRANCH  14  15
ATOM     15  C   UNL     1       6.063   5.230  19.193  0.00  0.00    +0.000 C 
BRANCH  15  16
ATOM     16  S   UNL     1       6.831   5.604  17.632  0.00  0.00    +0.000 S 
ATOM     17  C   UNL     1       7.778   7.072  18.010  0.00  0.00    +0.000 C 
ATOM     18  O   UNL     1       7.801   4.573  17.318  0.00  0.00    +0.000 OA
ATOM     19  O   UNL     1       5.828   6.006  16.669  0.00  0.00    +0.000 OA
ENDBRANCH  15  16
ENDBRANCH  14  15
ENDBRANCH   1  14
BRANCH   7  20
ATOM     20  O   UNL     1       0.707  11.399  18.820  0.00  0.00    +0.000 OA
BRANCH  20  21
ATOM     21  C   UNL     1       1.599  12.411  19.105  0.00  0.00    +0.000 A 
ATOM     22  C   UNL     1       2.462  12.975  18.155  0.00  0.00    +0.000 A 
ATOM     23  C   UNL     1       3.339  13.999  18.522  0.00  0.00    +0.000 A 
ATOM     24  C   UNL     1       3.381  14.428  19.844  0.00  0.00    +0.000 A 
ATOM     25  F   UNL     1       4.229  15.406  20.190  0.00  0.00    +0.000 F 
ATOM     26  C   UNL     1       2.562  13.853  20.809  0.00  0.00    +0.000 A 
ATOM     27  C   UNL     1       1.681  12.844  20.432  0.00  0.00    +0.000 A 
ATOM     28  F   UNL     1       0.901  12.290  21.373  0.00  0.00    +0.000 F 
ENDBRANCH  20  21
ENDBRANCH   7  20
TORSDOF 5
ENDMDL
MODEL 9
REMARK VINA RESULT:      -7.0      1.429      1.705
REMARK  Name = 
REMARK  7 active torsions:
REMARK  status: ('A' for Active; 'I' for Inactive)
REMARK    1  A    between atoms: C_1  and  C_2
REMARK    2  A    between atoms: C_2  and  C_3
REMARK    3  A    between atoms: C_2  and  N_8
REMARK    4  A    between atoms: C_3  and  S_4
REMARK    5  A    between atoms: S_4  and  C_5
REMARK    6  A    between atoms: C_14  and  O_15
REMARK    7  A    between atoms: O_15  and  C_16
REMARK                            x       y       z     vdW  Elec       q    Type
REMARK                         _______ _______ _______ _____ _____    ______ ____
ROOT
ATOM      1  N   UNL     1      -1.393  11.722  19.658  0.00  0.00    +0.000 N 
ATOM      2  C   UNL     1      -0.683  10.879  20.452  0.00  0.00    +0.000 A 
ATOM      3  N   UNL     1      -0.800  10.795  21.782  0.00  0.00    +0.000 NA
ATOM      4  N   UNL     1       0.122   9.874  22.128  0.00  0.00    +0.000 N 
ATOM      5  C   UNL     1       0.741   9.284  21.067  0.00  0.00    +0.000 A 
ATOM      6  N   UNL     1       1.601   8.255  21.095  0.00  0.00    +0.000 NA
ATOM      7  C   UNL     1       2.021   7.921  19.861  0.00  0.00    +0.000 A 
ATOM      8  N   UNL     1       1.738   8.572  18.708  0.00  0.00    +0.000 NA
ATOM      9  C   UNL     1       0.854   9.605  18.742  0.00  0.00    +0.000 A 
ATOM     10  C   UNL     1       0.298   9.978  19.953  0.00  0.00    +0.000 A 
ATOM     11  H   UNL     1      -0.824  12.446  19.223  0.00  0.00    +0.000 HD
ATOM     12  H   UNL     1       0.276   9.673  23.107  0.00  0.00    +0.000 HD
ENDROOT
BRANCH   1  14
ATOM     13  C   UNL     1      -2.560  13.671  20.575  0.00  0.00    +0.000 C 
ATOM     14  C   UNL     1      -2.705  12.231  20.078  0.00  0.00    +0.000 C 
BRANCH  14  15
ATOM     15  C   UNL     1      -3.784  12.079  18.997  0.00  0.00    +0.000 C 
BRANCH  15  16
ATOM     16  S   UNL     1      -3.244  11.369  17.457  0.00  0.00    +0.000 S 
ATOM     17  C   UNL     1      -3.171   9.625  17.841  0.00  0.00    +0.000 C 
ATOM     18  O   UNL     1      -4.295  11.517  16.468  0.00  0.00    +0.000 OA
ATOM     19  O   UNL     1      -1.885  11.778  17.171  0.00  0.00    +0.000 OA
ENDBRANCH  15  16
ENDBRANCH  14  15
ENDBRANCH   1  14
BRANCH   7  20
ATOM     20  O   UNL     1       2.810   6.773  19.792  0.00  0.00    +0.000 OA
BRANCH  20  21
ATOM     21  C   UNL     1       2.182   5.571  19.542  0.00  0.00    +0.000 A 
ATOM     22  C   UNL     1       1.446   4.865  20.505  0.00  0.00    +0.000 A 
ATOM     23  C   UNL     1       0.838   3.652  20.174  0.00  0.00    +0.000 A 
ATOM     24  C   UNL     1       0.999   3.127  18.897  0.00  0.00    +0.000 A 
ATOM     25  F   UNL     1       0.418   1.959  18.589  0.00  0.00    +0.000 F 
ATOM     26  C   UNL     1       1.759   3.791  17.941  0.00  0.00    +0.000 A 
ATOM     27  C   UNL     1       2.350   5.007  18.274  0.00  0.00    +0.000 A 
ATOM     28  F   UNL     1       3.088   5.636  17.346  0.00  0.00    +0.000 F 
ENDBRANCH  20  21
ENDBRANCH   7  20
TORSDOF 5
ENDMDL
