MODEL 1
REMARK VINA RESULT:      -8.5      0.000      0.000
REMARK  Name = 
REMARK  6 active torsions:
REMARK  status: ('A' for Active; 'I' for Inactive)
REMARK    1  A    between atoms: C_1  and  C_2
REMARK    2  A    between atoms: C_4  and  N_5
REMARK    3  A    between atoms: C_6  and  C_8
REMARK    4  A    between atoms: N_12  and  C_13
REMARK    5  A    between atoms: C_24  and  O_25
REMARK    6  A    between atoms: O_25  and  C_26
REMARK                            x       y       z     vdW  Elec       q    Type
REMARK                         _______ _______ _______ _____ _____    ______ ____
ROOT
ATOM      1  N   UNL     1       1.449   9.032  20.977  0.00  0.00    +0.000 N 
ATOM      2  C   UNL     1       1.563   8.627  19.654  0.00  0.00    +0.000 C 
ATOM      3  O   UNL     1       0.955   9.059  18.686  0.00  0.00    +0.000 OA
ATOM      4  H   UNL     1       2.056   8.578  21.648  0.00  0.00    +0.000 HD
ENDROOT
BRANCH   1   8
ATOM      5  C   UNL     1      -0.359  13.650  21.263  0.00  0.00    +0.000 C 
ATOM      6  C   UNL     1      -0.325  12.236  21.770  0.00  0.00    +0.000 A 
ATOM      7  C   UNL     1       0.517  11.314  21.116  0.00  0.00    +0.000 A 
ATOM      8  C   UNL     1       0.586   9.988  21.531  0.00  0.00    +0.000 A 
ATOM      9  C   UNL     1      -0.250   9.551  22.560  0.00  0.00    +0.000 A 
ATOM     10  C   UNL     1      -1.134  10.435  23.172  0.00  0.00    +0.000 A 
ATOM     11  C   UNL     1      -1.129  11.795  22.834  0.00  0.00    +0.000 A 
BRANCH  11  12
ATOM     12  O   UNL     1      -1.910  12.722  23.506  0.00  0.00    +0.000 OA
BRANCH  12  13
ATOM     13  C   UNL     1      -3.277  12.669  23.327  0.00  0.00    +0.000 A 
ATOM     14  C   UNL     1      -3.905  12.876  22.097  0.00  0.00    +0.000 A 
ATOM     15  C   UNL     1      -5.295  12.933  22.037  0.00  0.00    +0.000 A 
ATOM     16  C   UNL     1      -6.012  12.709  23.200  0.00  0.00    +0.000 A 
ATOM     17  N   UNL     1      -5.439  12.426  24.391  0.00  0.00    +0.000 NA
ATOM     18  C   UNL     1      -4.082  12.408  24.426  0.00  0.00    +0.000 A 
ENDBRANCH  12  13
ENDBRANCH  11  12
ENDBRANCH   1   8
BRANCH   2  19
ATOM     19  C   UNL     1       2.599   7.534  19.537  0.00  0.00    +0.000 C 
ATOM     20  C   UNL     1       1.992   6.179  19.868  0.00  0.00    +0.000 C 
ATOM     21  C   UNL     1       2.974   5.232  19.249  0.00  0.00    +0.000 C 
ATOM     22  O   UNL     1       3.098   4.082  19.633  0.00  0.00    +0.000 OA
ATOM     23  N   UNL     1       3.680   5.935  18.258  0.00  0.00    +0.000 N 
ATOM     24  C   UNL     1       3.179   7.295  18.156  0.00  0.00    +0.000 C 
BRANCH  23  25
ATOM     25  C   UNL     1       4.780   5.409  17.529  0.00  0.00    +0.000 A 
ATOM     26  C   UNL     1       4.626   4.997  16.197  0.00  0.00    +0.000 A 
ATOM     27  C   UNL     1       5.671   4.393  15.503  0.00  0.00    +0.000 A 
ATOM     28  F   UNL     1       5.478   3.997  14.238  0.00  0.00    +0.000 F 
ATOM     29  C   UNL     1       6.896   4.180  16.104  0.00  0.00    +0.000 A 
ATOM     30  C   UNL     1       7.069   4.612  17.409  0.00  0.00    +0.000 A 
ATOM     31  F   UNL     1       8.247   4.400  18.013  0.00  0.00    +0.000 F 
ATOM     32  C   UNL     1       6.040   5.238  18.118  0.00  0.00    +0.000 A 
ENDBRANCH  23  25
ENDBRANCH   2  19
TORSDOF 5
ENDMDL
MODEL 2
REMARK VINA RESULT:      -8.5      4.747     11.367
REMARK  Name = 
REMARK  6 active torsions:
REMARK  status: ('A' for Active; 'I' for Inactive)
REMARK    1  A    between atoms: C_1  and  C_2
REMARK    2  A    between atoms: C_4  and  N_5
REMARK    3  A    between atoms: C_6  and  C_8
REMARK    4  A    between atoms: N_12  and  C_13
REMARK    5  A    between atoms: C_24  and  O_25
REMARK    6  A    between atoms: O_25  and  C_26
REMARK                            x       y       z     vdW  Elec       q    Type
REMARK                         _______ _______ _______ _____ _____    ______ ____
ROOT
ATOM      1  N   UNL     1       0.999   9.110  20.447  0.00  0.00    +0.000 N 
ATOM      2  C   UNL     1       1.103   9.721  21.689  0.00  0.00    +0.000 C 
ATOM      3  O   UNL     1       1.764   9.351  22.649  0.00  0.00    +0.000 OA
ATOM      4  H   UNL     1       0.423   9.575  19.757  0.00  0.00    +0.000 HD
ENDROOT
BRANCH   1   8
ATOM      5  C   UNL     1       2.125   4.312  21.067  0.00  0.00    +0.000 C 
ATOM      6  C   UNL     1       2.209   5.569  20.249  0.00  0.00    +0.000 A 
ATOM      7  C   UNL     1       1.544   6.718  20.723  0.00  0.00    +0.000 A 
ATOM      8  C   UNL     1       1.575   7.910  20.008  0.00  0.00    +0.000 A 
ATOM      9  C   UNL     1       2.210   7.943  18.764  0.00  0.00    +0.000 A 
ATOM     10  C   UNL     1       2.816   6.798  18.253  0.00  0.00    +0.000 A 
ATOM     11  C   UNL     1       2.883   5.626  19.018  0.00  0.00    +0.000 A 
BRANCH  11  12
ATOM     12  O   UNL     1       3.581   4.508  18.589  0.00  0.00    +0.000 OA
BRANCH  12  13
ATOM     13  C   UNL     1       4.910   4.661  18.257  0.00  0.00    +0.000 A 
ATOM     14  C   UNL     1       5.420   4.433  16.977  0.00  0.00    +0.000 A 
ATOM     15  C   UNL     1       6.795   4.487  16.766  0.00  0.00    +0.000 A 
ATOM     16  C   UNL     1       7.610   4.837  17.830  0.00  0.00    +0.000 A 
ATOM     17  N   UNL     1       7.144   5.142  19.061  0.00  0.00    +0.000 NA
ATOM     18  C   UNL     1       5.802   5.052  19.246  0.00  0.00    +0.000 A 
ENDBRANCH  12  13
ENDBRANCH  11  12
ENDBRANCH   1   8
BRANCH   2  19
ATOM     19  C   UNL     1       0.270  10.980  21.717  0.00  0.00    +0.000 C 
ATOM     20  C   UNL     1      -0.359  11.239  20.356  0.00  0.00    +0.000 C 
ATOM     21  C   UNL     1      -1.472  12.182  20.696  0.00  0.00    +0.000 C 
ATOM     22  O   UNL     1      -1.945  12.952  19.878  0.00  0.00    +0.000 OA
ATOM     23  N   UNL     1      -1.772  12.016  22.059  0.00  0.00    +0.000 N 
ATOM     24  C   UNL     1      -0.940  10.971  22.631  0.00  0.00    +0.000 C 
BRANCH  23  25
ATOM     25  C   UNL     1      -2.694  12.819  22.783  0.00  0.00    +0.000 A 
ATOM     26  C   UNL     1      -4.077  12.671  22.593  0.00  0.00    +0.000 A 
ATOM     27  C   UNL     1      -4.986  13.516  23.223  0.00  0.00    +0.000 A 
ATOM     28  F   UNL     1      -6.297  13.353  23.002  0.00  0.00    +0.000 F 
ATOM     29  C   UNL     1      -4.556  14.528  24.060  0.00  0.00    +0.000 A 
ATOM     30  C   UNL     1      -3.195  14.663  24.280  0.00  0.00    +0.000 A 
ATOM     31  F   UNL     1      -2.760  15.649  25.076  0.00  0.00    +0.000 F 
ATOM     32  C   UNL     1      -2.266  13.814  23.672  0.00  0.00    +0.000 A 
ENDBRANCH  23  25
ENDBRANCH   2  19
TORSDOF 5
ENDMDL
MODEL 3
REMARK VINA RESULT:      -8.5      4.740     11.450
REMARK  Name = 
REMARK  6 active torsions:
REMARK  status: ('A' for Active; 'I' for Inactive)
REMARK    1  A    between atoms: C_1  and  C_2
REMARK    2  A    between atoms: C_4  and  N_5
REMARK    3  A    between atoms: C_6  and  C_8
REMARK    4  A    between atoms: N_12  and  C_13
REMARK    5  A    between atoms: C_24  and  O_25
REMARK    6  A    between atoms: O_25  and  C_26
REMARK                            x       y       z     vdW  Elec       q    Type
REMARK                         _______ _______ _______ _____ _____    ______ ____
ROOT
ATOM      1  N   UNL     1       1.076   8.962  20.407  0.00  0.00    +0.000 N 
ATOM      2  C   UNL     1       1.187   9.607  21.631  0.00  0.00    +0.000 C 
ATOM      3  O   UNL     1       1.842   9.258  22.602  0.00  0.00    +0.000 OA
ATOM      4  H   UNL     1       0.506   9.413  19.703  0.00  0.00    +0.000 HD
ENDROOT
BRANCH   1   8
ATOM      5  C   UNL     1       1.994   4.127  21.080  0.00  0.00    +0.000 C 
ATOM      6  C   UNL     1       2.176   5.382  20.275  0.00  0.00    +0.000 A 
ATOM      7  C   UNL     1       1.520   6.552  20.709  0.00  0.00    +0.000 A 
ATOM      8  C   UNL     1       1.641   7.744  20.002  0.00  0.00    +0.000 A 
ATOM      9  C   UNL     1       2.359   7.758  18.805  0.00  0.00    +0.000 A 
ATOM     10  C   UNL     1       2.960   6.595  18.332  0.00  0.00    +0.000 A 
ATOM     11  C   UNL     1       2.935   5.419  19.094  0.00  0.00    +0.000 A 
BRANCH  11  12
ATOM     12  O   UNL     1       3.622   4.279  18.708  0.00  0.00    +0.000 OA
BRANCH  12  13
ATOM     13  C   UNL     1       4.871   4.434  18.146  0.00  0.00    +0.000 A 
ATOM     14  C   UNL     1       5.127   4.304  16.779  0.00  0.00    +0.000 A 
ATOM     15  C   UNL     1       6.440   4.348  16.319  0.00  0.00    +0.000 A 
ATOM     16  C   UNL     1       7.449   4.594  17.235  0.00  0.00    +0.000 A 
ATOM     17  N   UNL     1       7.230   4.804  18.551  0.00  0.00    +0.000 NA
ATOM     18  C   UNL     1       5.944   4.724  18.977  0.00  0.00    +0.000 A 
ENDBRANCH  12  13
ENDBRANCH  11  12
ENDBRANCH   1   8
BRANCH   2  19
ATOM     19  C   UNL     1       0.366  10.875  21.622  0.00  0.00    +0.000 C 
ATOM     20  C   UNL     1      -0.474  10.964  20.357  0.00  0.00    +0.000 C 
ATOM     21  C   UNL     1      -1.519  11.965  20.741  0.00  0.00    +0.000 C 
ATOM     22  O   UNL     1      -2.119  12.629  19.913  0.00  0.00    +0.000 OA
ATOM     23  N   UNL     1      -1.596  11.988  22.144  0.00  0.00    +0.000 N 
ATOM     24  C   UNL     1      -0.681  11.012  22.711  0.00  0.00    +0.000 C 
BRANCH  23  25
ATOM     25  C   UNL     1      -2.390  12.899  22.891  0.00  0.00    +0.000 A 
ATOM     26  C   UNL     1      -1.799  13.970  23.578  0.00  0.00    +0.000 A 
ATOM     27  C   UNL     1      -2.554  14.811  24.389  0.00  0.00    +0.000 A 
ATOM     28  F   UNL     1      -1.948  15.812  25.042  0.00  0.00    +0.000 F 
ATOM     29  C   UNL     1      -3.913  14.621  24.544  0.00  0.00    +0.000 A 
ATOM     30  C   UNL     1      -4.513  13.586  23.846  0.00  0.00    +0.000 A 
ATOM     31  F   UNL     1      -5.828  13.377  23.996  0.00  0.00    +0.000 F 
ATOM     32  C   UNL     1      -3.777  12.741  23.011  0.00  0.00    +0.000 A 
ENDBRANCH  23  25
ENDBRANCH   2  19
TORSDOF 5
ENDMDL
MODEL 4
REMARK VINA RESULT:      -8.4      4.451     11.020
REMARK  Name = 
REMARK  6 active torsions:
REMARK  status: ('A' for Active; 'I' for Inactive)
REMARK    1  A    between atoms: C_1  and  C_2
REMARK    2  A    between atoms: C_4  and  N_5
REMARK    3  A    between atoms: C_6  and  C_8
REMARK    4  A    between atoms: N_12  and  C_13
REMARK    5  A    between atoms: C_24  and  O_25
REMARK    6  A    between atoms: O_25  and  C_26
REMARK                            x       y       z     vdW  Elec       q    Type
REMARK                         _______ _______ _______ _____ _____    ______ ____
ROOT
ATOM      1  N   UNL     1       1.356   8.444  19.284  0.00  0.00    +0.000 N 
ATOM      2  C   UNL     1       1.082   8.982  20.535  0.00  0.00    +0.000 C 
ATOM      3  O   UNL     1       1.668   8.763  21.585  0.00  0.00    +0.000 OA
ATOM      4  H   UNL     1       0.780   8.762  18.515  0.00  0.00    +0.000 HD
ENDROOT
BRANCH   1   8
ATOM      5  C   UNL     1       3.569   4.033  19.845  0.00  0.00    +0.000 C 
ATOM      6  C   UNL     1       3.496   5.371  19.166  0.00  0.00    +0.000 A 
ATOM      7  C   UNL     1       2.452   6.245  19.528  0.00  0.00    +0.000 A 
ATOM      8  C   UNL     1       2.324   7.495  18.930  0.00  0.00    +0.000 A 
ATOM      9  C   UNL     1       3.198   7.851  17.901  0.00  0.00    +0.000 A 
ATOM     10  C   UNL     1       4.196   6.972  17.489  0.00  0.00    +0.000 A 
ATOM     11  C   UNL     1       4.399   5.759  18.162  0.00  0.00    +0.000 A 
BRANCH  11  12
ATOM     12  O   UNL     1       5.455   4.916  17.854  0.00  0.00    +0.000 OA
BRANCH  12  13
ATOM     13  C   UNL     1       5.888   4.870  16.546  0.00  0.00    +0.000 A 
ATOM     14  C   UNL     1       5.195   4.220  15.524  0.00  0.00    +0.000 A 
ATOM     15  C   UNL     1       5.772   4.115  14.261  0.00  0.00    +0.000 A 
ATOM     16  C   UNL     1       6.996   4.727  14.045  0.00  0.00    +0.000 A 
ATOM     17  N   UNL     1       7.657   5.432  14.990  0.00  0.00    +0.000 NA
ATOM     18  C   UNL     1       7.085   5.492  16.219  0.00  0.00    +0.000 A 
ENDBRANCH  12  13
ENDBRANCH  11  12
ENDBRANCH   1   8
BRANCH   2  19
ATOM     19  C   UNL     1      -0.083   9.938  20.442  0.00  0.00    +0.000 C 
ATOM     20  C   UNL     1       0.399  11.380  20.495  0.00  0.00    +0.000 C 
ATOM     21  C   UNL     1      -0.768  12.124  19.921  0.00  0.00    +0.000 C 
ATOM     22  O   UNL     1      -0.973  13.300  20.167  0.00  0.00    +0.000 OA
ATOM     23  N   UNL     1      -1.519  11.218  19.153  0.00  0.00    +0.000 N 
ATOM     24  C   UNL     1      -0.878   9.914  19.150  0.00  0.00    +0.000 C 
BRANCH  23  25
ATOM     25  C   UNL     1      -2.767  11.520  18.545  0.00  0.00    +0.000 A 
ATOM     26  C   UNL     1      -3.807  12.094  19.292  0.00  0.00    +0.000 A 
ATOM     27  C   UNL     1      -5.064  12.307  18.732  0.00  0.00    +0.000 A 
ATOM     28  F   UNL     1      -6.036  12.841  19.484  0.00  0.00    +0.000 F 
ATOM     29  C   UNL     1      -5.328  11.961  17.421  0.00  0.00    +0.000 A 
ATOM     30  C   UNL     1      -4.300  11.422  16.666  0.00  0.00    +0.000 A 
ATOM     31  F   UNL     1      -4.543  11.066  15.397  0.00  0.00    +0.000 F 
ATOM     32  C   UNL     1      -3.026  11.218  17.202  0.00  0.00    +0.000 A 
ENDBRANCH  23  25
ENDBRANCH   2  19
TORSDOF 5
ENDMDL
MODEL 5
REMARK VINA RESULT:      -8.3      4.799     11.424
REMARK  Name = 
REMARK  6 active torsions:
REMARK  status: ('A' for Active; 'I' for Inactive)
REMARK    1  A    between atoms: C_1  and  C_2
REMARK    2  A    between atoms: C_4  and  N_5
REMARK    3  A    between atoms: C_6  and  C_8
REMARK    4  A    between atoms: N_12  and  C_13
REMARK    5  A    between atoms: C_24  and  O_25
REMARK    6  A    between atoms: O_25  and  C_26
REMARK                            x       y       z     vdW  Elec       q    Type
REMARK                         _______ _______ _______ _____ _____    ______ ____
ROOT
ATOM      1  N   UNL     1       1.037   9.051  20.385  0.00  0.00    +0.000 N 
ATOM      2  C   UNL     1       1.108   9.680  21.621  0.00  0.00    +0.000 C 
ATOM      3  O   UNL     1       1.736   9.320  22.606  0.00  0.00    +0.000 OA
ATOM      4  H   UNL     1       0.486   9.510  19.671  0.00  0.00    +0.000 HD
ENDROOT
BRANCH   1   8
ATOM      5  C   UNL     1       2.113   4.256  21.109  0.00  0.00    +0.000 C 
ATOM      6  C   UNL     1       2.229   5.500  20.275  0.00  0.00    +0.000 A 
ATOM      7  C   UNL     1       1.559   6.660  20.713  0.00  0.00    +0.000 A 
ATOM      8  C   UNL     1       1.619   7.842  19.981  0.00  0.00    +0.000 A 
ATOM      9  C   UNL     1       2.290   7.852  18.757  0.00  0.00    +0.000 A 
ATOM     10  C   UNL     1       2.904   6.697  18.281  0.00  0.00    +0.000 A 
ATOM     11  C   UNL     1       2.941   5.535  19.064  0.00  0.00    +0.000 A 
BRANCH  11  12
ATOM     12  O   UNL     1       3.643   4.407  18.673  0.00  0.00    +0.000 OA
BRANCH  12  13
ATOM     13  C   UNL     1       4.962   4.560  18.303  0.00  0.00    +0.000 A 
ATOM     14  C   UNL     1       5.941   5.107  19.136  0.00  0.00    +0.000 A 
ATOM     15  C   UNL     1       7.217   5.344  18.633  0.00  0.00    +0.000 A 
ATOM     16  C   UNL     1       7.492   4.957  17.331  0.00  0.00    +0.000 A 
ATOM     17  N   UNL     1       6.593   4.353  16.524  0.00  0.00    +0.000 NA
ATOM     18  C   UNL     1       5.348   4.163  17.031  0.00  0.00    +0.000 A 
ENDBRANCH  12  13
ENDBRANCH  11  12
ENDBRANCH   1   8
BRANCH   2  19
ATOM     19  C   UNL     1       0.283  10.944  21.605  0.00  0.00    +0.000 C 
ATOM     20  C   UNL     1      -0.502  11.058  20.307  0.00  0.00    +0.000 C 
ATOM     21  C   UNL     1      -1.568  12.047  20.668  0.00  0.00    +0.000 C 
ATOM     22  O   UNL     1      -2.135  12.727  19.829  0.00  0.00    +0.000 OA
ATOM     23  N   UNL     1      -1.706  12.038  22.067  0.00  0.00    +0.000 N 
ATOM     24  C   UNL     1      -0.811  11.052  22.650  0.00  0.00    +0.000 C 
BRANCH  23  25
ATOM     25  C   UNL     1      -2.536  12.928  22.798  0.00  0.00    +0.000 A 
ATOM     26  C   UNL     1      -3.774  12.502  23.303  0.00  0.00    +0.000 A 
ATOM     27  C   UNL     1      -4.638  13.389  23.938  0.00  0.00    +0.000 A 
ATOM     28  F   UNL     1      -5.819  12.946  24.390  0.00  0.00    +0.000 F 
ATOM     29  C   UNL     1      -4.304  14.720  24.095  0.00  0.00    +0.000 A 
ATOM     30  C   UNL     1      -3.071  15.145  23.629  0.00  0.00    +0.000 A 
ATOM     31  F   UNL     1      -2.736  16.436  23.758  0.00  0.00    +0.000 F 
ATOM     32  C   UNL     1      -2.180  14.267  23.005  0.00  0.00    +0.000 A 
ENDBRANCH  23  25
ENDBRANCH   2  19
TORSDOF 5
ENDMDL
MODEL 6
REMARK VINA RESULT:      -8.3      5.540     11.485
REMARK  Name = 
REMARK  6 active torsions:
REMARK  status: ('A' for Active; 'I' for Inactive)
REMARK    1  A    between atoms: C_1  and  C_2
REMARK    2  A    between atoms: C_4  and  N_5
REMARK    3  A    between atoms: C_6  and  C_8
REMARK    4  A    between atoms: N_12  and  C_13
REMARK    5  A    between atoms: C_24  and  O_25
REMARK    6  A    between atoms: O_25  and  C_26
REMARK                            x       y       z     vdW  Elec       q    Type
REMARK                         _______ _______ _______ _____ _____    ______ ____
ROOT
ATOM      1  N   UNL     1      -0.655  10.808  20.281  0.00  0.00    +0.000 N 
ATOM      2  C   UNL     1      -0.504  11.984  21.003  0.00  0.00    +0.000 C 
ATOM      3  O   UNL     1       0.486  12.363  21.612  0.00  0.00    +0.000 OA
ATOM      4  H   UNL     1      -1.543  10.670  19.814  0.00  0.00    +0.000 HD
ENDROOT
BRANCH   1   8
ATOM      5  C   UNL     1       2.716   8.326  17.608  0.00  0.00    +0.000 C 
ATOM      6  C   UNL     1       1.887   8.454  18.854  0.00  0.00    +0.000 A 
ATOM      7  C   UNL     1       1.044   9.576  18.980  0.00  0.00    +0.000 A 
ATOM      8  C   UNL     1       0.257   9.757  20.113  0.00  0.00    +0.000 A 
ATOM      9  C   UNL     1       0.367   8.852  21.172  0.00  0.00    +0.000 A 
ATOM     10  C   UNL     1       1.243   7.774  21.087  0.00  0.00    +0.000 A 
ATOM     11  C   UNL     1       1.955   7.525  19.906  0.00  0.00    +0.000 A 
BRANCH  11  12
ATOM     12  O   UNL     1       2.743   6.397  19.748  0.00  0.00    +0.000 OA
BRANCH  12  13
ATOM     13  C   UNL     1       2.114   5.195  19.501  0.00  0.00    +0.000 A 
ATOM     14  C   UNL     1       1.627   4.356  20.505  0.00  0.00    +0.000 A 
ATOM     15  C   UNL     1       1.122   3.103  20.169  0.00  0.00    +0.000 A 
ATOM     16  C   UNL     1       1.056   2.760  18.828  0.00  0.00    +0.000 A 
ATOM     17  N   UNL     1       1.444   3.579  17.826  0.00  0.00    +0.000 NA
ATOM     18  C   UNL     1       1.961   4.781  18.185  0.00  0.00    +0.000 A 
ENDBRANCH  12  13
ENDBRANCH  11  12
ENDBRANCH   1   8
BRANCH   2  19
ATOM     19  C   UNL     1      -1.774  12.798  20.935  0.00  0.00    +0.000 C 
ATOM     20  C   UNL     1      -2.713  12.244  19.874  0.00  0.00    +0.000 C 
ATOM     21  C   UNL     1      -4.030  12.833  20.278  0.00  0.00    +0.000 C 
ATOM     22  O   UNL     1      -4.942  12.990  19.485  0.00  0.00    +0.000 OA
ATOM     23  N   UNL     1      -3.947  13.172  21.640  0.00  0.00    +0.000 N 
ATOM     24  C   UNL     1      -2.650  12.792  22.173  0.00  0.00    +0.000 C 
BRANCH  23  25
ATOM     25  C   UNL     1      -4.958  13.866  22.357  0.00  0.00    +0.000 A 
ATOM     26  C   UNL     1      -4.925  15.264  22.471  0.00  0.00    +0.000 A 
ATOM     27  C   UNL     1      -5.855  15.947  23.250  0.00  0.00    +0.000 A 
ATOM     28  F   UNL     1      -5.778  17.281  23.347  0.00  0.00    +0.000 F 
ATOM     29  C   UNL     1      -6.844  15.269  23.937  0.00  0.00    +0.000 A 
ATOM     30  C   UNL     1      -6.905  13.892  23.806  0.00  0.00    +0.000 A 
ATOM     31  F   UNL     1      -7.848  13.216  24.478  0.00  0.00    +0.000 F 
ATOM     32  C   UNL     1      -5.993  13.188  23.015  0.00  0.00    +0.000 A 
ENDBRANCH  23  25
ENDBRANCH   2  19
TORSDOF 5
ENDMDL
MODEL 7
REMARK VINA RESULT:      -8.2      4.645     11.275
REMARK  Name = 
REMARK  6 active torsions:
REMARK  status: ('A' for Active; 'I' for Inactive)
REMARK    1  A    between atoms: C_1  and  C_2
REMARK    2  A    between atoms: C_4  and  N_5
REMARK    3  A    between atoms: C_6  and  C_8
REMARK    4  A    between atoms: N_12  and  C_13
REMARK    5  A    between atoms: C_24  and  O_25
REMARK    6  A    between atoms: O_25  and  C_26
REMARK                            x       y       z     vdW  Elec       q    Type
REMARK                         _______ _______ _______ _____ _____    ______ ____
ROOT
ATOM      1  N   UNL     1       1.530   8.866  19.078  0.00  0.00    +0.000 N 
ATOM      2  C   UNL     1       1.056   9.275  20.317  0.00  0.00    +0.000 C 
ATOM      3  O   UNL     1       1.314   8.793  21.410  0.00  0.00    +0.000 OA
ATOM      4  H   UNL     1       1.229   9.404  18.274  0.00  0.00    +0.000 HD
ENDROOT
BRANCH   1   8
ATOM      5  C   UNL     1       3.276   4.298  19.945  0.00  0.00    +0.000 C 
ATOM      6  C   UNL     1       3.315   5.573  19.151  0.00  0.00    +0.000 A 
ATOM      7  C   UNL     1       2.391   6.587  19.474  0.00  0.00    +0.000 A 
ATOM      8  C   UNL     1       2.370   7.787  18.771  0.00  0.00    +0.000 A 
ATOM      9  C   UNL     1       3.225   7.954  17.680  0.00  0.00    +0.000 A 
ATOM     10  C   UNL     1       4.099   6.936  17.309  0.00  0.00    +0.000 A 
ATOM     11  C   UNL     1       4.203   5.770  18.080  0.00  0.00    +0.000 A 
BRANCH  11  12
ATOM     12  O   UNL     1       5.144   4.790  17.807  0.00  0.00    +0.000 OA
BRANCH  12  13
ATOM     13  C   UNL     1       5.702   4.760  16.547  0.00  0.00    +0.000 A 
ATOM     14  C   UNL     1       5.129   4.091  15.463  0.00  0.00    +0.000 A 
ATOM     15  C   UNL     1       5.828   4.005  14.262  0.00  0.00    +0.000 A 
ATOM     16  C   UNL     1       7.048   4.655  14.163  0.00  0.00    +0.000 A 
ATOM     17  N   UNL     1       7.594   5.377  15.166  0.00  0.00    +0.000 NA
ATOM     18  C   UNL     1       6.905   5.417  16.335  0.00  0.00    +0.000 A 
ENDBRANCH  12  13
ENDBRANCH  11  12
ENDBRANCH   1   8
BRANCH   2  19
ATOM     19  C   UNL     1       0.140  10.465  20.153  0.00  0.00    +0.000 C 
ATOM     20  C   UNL     1       0.653  11.392  19.062  0.00  0.00    +0.000 C 
ATOM     21  C   UNL     1      -0.569  12.191  18.726  0.00  0.00    +0.000 C 
ATOM     22  O   UNL     1      -0.502  13.300  18.224  0.00  0.00    +0.000 OA
ATOM     23  N   UNL     1      -1.691  11.451  19.136  0.00  0.00    +0.000 N 
ATOM     24  C   UNL     1      -1.273  10.173  19.686  0.00  0.00    +0.000 C 
BRANCH  23  25
ATOM     25  C   UNL     1      -3.028  11.928  19.094  0.00  0.00    +0.000 A 
ATOM     26  C   UNL     1      -3.555  12.677  20.157  0.00  0.00    +0.000 A 
ATOM     27  C   UNL     1      -4.891  13.069  20.171  0.00  0.00    +0.000 A 
ATOM     28  F   UNL     1      -5.360  13.768  21.213  0.00  0.00    +0.000 F 
ATOM     29  C   UNL     1      -5.742  12.735  19.136  0.00  0.00    +0.000 A 
ATOM     30  C   UNL     1      -5.225  12.024  18.066  0.00  0.00    +0.000 A 
ATOM     31  F   UNL     1      -6.040  11.677  17.060  0.00  0.00    +0.000 F 
ATOM     32  C   UNL     1      -3.883  11.636  18.023  0.00  0.00    +0.000 A 
ENDBRANCH  23  25
ENDBRANCH   2  19
TORSDOF 5
ENDMDL
MODEL 8
REMARK VINA RESULT:      -8.2      1.621      1.963
REMARK  Name = 
REMARK  6 active torsions:
REMARK  status: ('A' for Active; 'I' for Inactive)
REMARK    1  A    between atoms: C_1  and  C_2
REMARK    2  A    between atoms: C_4  and  N_5
REMARK    3  A    between atoms: C_6  and  C_8
REMARK    4  A    between atoms: N_12  and  C_13
REMARK    5  A    between atoms: C_24  and  O_25
REMARK    6  A    between atoms: O_25  and  C_26
REMARK                            x       y       z     vdW  Elec       q    Type
REMARK                         _______ _______ _______ _____ _____    ______ ____
ROOT
ATOM      1  N   UNL     1       1.289   8.830  19.991  0.00  0.00    +0.000 N 
ATOM      2  C   UNL     1       1.220   7.676  20.760  0.00  0.00    +0.000 C 
ATOM      3  O   UNL     1       0.373   7.382  21.590  0.00  0.00    +0.000 OA
ATOM      4  H   UNL     1       2.052   8.893  19.329  0.00  0.00    +0.000 HD
ENDROOT
BRANCH   1   8
ATOM      5  C   UNL     1      -0.356  13.034  22.062  0.00  0.00    +0.000 C 
ATOM      6  C   UNL     1      -0.454  11.996  20.980  0.00  0.00    +0.000 A 
ATOM      7  C   UNL     1       0.476  10.937  20.989  0.00  0.00    +0.000 A 
ATOM      8  C   UNL     1       0.445   9.949  20.010  0.00  0.00    +0.000 A 
ATOM      9  C   UNL     1      -0.473  10.055  18.963  0.00  0.00    +0.000 A 
ATOM     10  C   UNL     1      -1.355  11.131  18.906  0.00  0.00    +0.000 A 
ATOM     11  C   UNL     1      -1.402  12.068  19.946  0.00  0.00    +0.000 A 
BRANCH  11  12
ATOM     12  O   UNL     1      -2.347  13.082  19.979  0.00  0.00    +0.000 OA
BRANCH  12  13
ATOM     13  C   UNL     1      -3.639  12.753  20.330  0.00  0.00    +0.000 A 
ATOM     14  C   UNL     1      -4.624  12.398  19.406  0.00  0.00    +0.000 A 
ATOM     15  C   UNL     1      -5.934  12.208  19.838  0.00  0.00    +0.000 A 
ATOM     16  C   UNL     1      -6.200  12.309  21.194  0.00  0.00    +0.000 A 
ATOM     17  N   UNL     1      -5.256  12.571  22.124  0.00  0.00    +0.000 NA
ATOM     18  C   UNL     1      -3.994  12.783  21.671  0.00  0.00    +0.000 A 
ENDBRANCH  12  13
ENDBRANCH  11  12
ENDBRANCH   1   8
BRANCH   2  19
ATOM     19  C   UNL     1       2.374   6.762  20.422  0.00  0.00    +0.000 C 
ATOM     20  C   UNL     1       1.980   5.305  20.611  0.00  0.00    +0.000 C 
ATOM     21  C   UNL     1       3.018   4.589  19.801  0.00  0.00    +0.000 C 
ATOM     22  O   UNL     1       3.324   3.429  20.017  0.00  0.00    +0.000 OA
ATOM     23  N   UNL     1       3.536   5.502  18.865  0.00  0.00    +0.000 N 
ATOM     24  C   UNL     1       2.855   6.780  18.984  0.00  0.00    +0.000 C 
BRANCH  23  25
ATOM     25  C   UNL     1       4.625   5.230  17.996  0.00  0.00    +0.000 A 
ATOM     26  C   UNL     1       4.413   5.026  16.624  0.00  0.00    +0.000 A 
ATOM     27  C   UNL     1       5.458   4.665  15.778  0.00  0.00    +0.000 A 
ATOM     28  F   UNL     1       5.211   4.462  14.477  0.00  0.00    +0.000 F 
ATOM     29  C   UNL     1       6.741   4.497  16.263  0.00  0.00    +0.000 A 
ATOM     30  C   UNL     1       6.968   4.726  17.610  0.00  0.00    +0.000 A 
ATOM     31  F   UNL     1       8.203   4.553  18.100  0.00  0.00    +0.000 F 
ATOM     32  C   UNL     1       5.937   5.107  18.473  0.00  0.00    +0.000 A 
ENDBRANCH  23  25
ENDBRANCH   2  19
TORSDOF 5
ENDMDL
MODEL 9
REMARK VINA RESULT:      -8.2      4.484     11.515
REMARK  Name = 
REMARK  6 active torsions:
REMARK  status: ('A' for Active; 'I' for Inactive)
REMARK    1  A    between atoms: C_1  and  C_2
REMARK    2  A    between atoms: C_4  and  N_5
REMARK    3  A    between atoms: C_6  and  C_8
REMARK    4  A    between atoms: N_12  and  C_13
REMARK    5  A    between atoms: C_24  and  O_25
REMARK    6  A    between atoms: O_25  and  C_26
REMARK                            x       y       z     vdW  Elec       q    Type
REMARK                         _______ _______ _______ _____ _____    ______ ____
ROOT
ATOM      1  N   UNL     1       1.925   8.420  18.927  0.00  0.00    +0.000 N 
ATOM      2  C   UNL     1       1.416   8.546  20.212  0.00  0.00    +0.000 C 
ATOM      3  O   UNL     1       1.459   7.724  21.115  0.00  0.00    +0.000 OA
ATOM      4  H   UNL     1       1.821   9.220  18.314  0.00  0.00    +0.000 HD
ENDROOT
BRANCH   1   8
ATOM      5  C   UNL     1       2.188   3.578  17.854  0.00  0.00    +0.000 C 
ATOM      6  C   UNL     1       2.794   4.952  17.807  0.00  0.00    +0.000 A 
ATOM      7  C   UNL     1       2.060   6.022  18.359  0.00  0.00    +0.000 A 
ATOM      8  C   UNL     1       2.562   7.319  18.339  0.00  0.00    +0.000 A 
ATOM      9  C   UNL     1       3.774   7.572  17.693  0.00  0.00    +0.000 A 
ATOM     10  C   UNL     1       4.478   6.535  17.088  0.00  0.00    +0.000 A 
ATOM     11  C   UNL     1       4.034   5.211  17.200  0.00  0.00    +0.000 A 
BRANCH  11  12
ATOM     12  O   UNL     1       4.772   4.144  16.712  0.00  0.00    +0.000 OA
BRANCH  12  13
ATOM     13  C   UNL     1       5.592   4.366  15.627  0.00  0.00    +0.000 A 
ATOM     14  C   UNL     1       5.284   3.957  14.327  0.00  0.00    +0.000 A 
ATOM     15  C   UNL     1       6.231   4.109  13.317  0.00  0.00    +0.000 A 
ATOM     16  C   UNL     1       7.429   4.731  13.628  0.00  0.00    +0.000 A 
ATOM     17  N   UNL     1       7.727   5.210  14.855  0.00  0.00    +0.000 NA
ATOM     18  C   UNL     1       6.799   5.021  15.827  0.00  0.00    +0.000 A 
ENDBRANCH  12  13
ENDBRANCH  11  12
ENDBRANCH   1   8
BRANCH   2  19
ATOM     19  C   UNL     1       0.775   9.903  20.383  0.00  0.00    +0.000 C 
ATOM     20  C   UNL     1      -0.288  10.135  19.319  0.00  0.00    +0.000 C 
ATOM     21  C   UNL     1      -1.099  11.242  19.919  0.00  0.00    +0.000 C 
ATOM     22  O   UNL     1      -1.767  12.000  19.238  0.00  0.00    +0.000 OA
ATOM     23  N   UNL     1      -0.883  11.227  21.308  0.00  0.00    +0.000 N 
ATOM     24  C   UNL     1      -0.001  10.129  21.666  0.00  0.00    +0.000 C 
BRANCH  23  25
ATOM     25  C   UNL     1      -1.388  12.202  22.210  0.00  0.00    +0.000 A 
ATOM     26  C   UNL     1      -0.668  13.377  22.472  0.00  0.00    +0.000 A 
ATOM     27  C   UNL     1      -1.105  14.294  23.424  0.00  0.00    +0.000 A 
ATOM     28  F   UNL     1      -0.380  15.396  23.657  0.00  0.00    +0.000 F 
ATOM     29  C   UNL     1      -2.265  14.077  24.142  0.00  0.00    +0.000 A 
ATOM     30  C   UNL     1      -3.001  12.935  23.869  0.00  0.00    +0.000 A 
ATOM     31  F   UNL     1      -4.120  12.701  24.568  0.00  0.00    +0.000 F 
ATOM     32  C   UNL     1      -2.590  12.011  22.905  0.00  0.00    +0.000 A 
ENDBRANCH  23  25
ENDBRANCH   2  19
TORSDOF 5
ENDMDL
