MODEL 1
REMARK VINA RESULT:      -5.8      0.000      0.000
REMARK  Name = 
REMARK  11 active torsions:
REMARK  status: ('A' for Active; 'I' for Inactive)
REMARK    1  A    between atoms: C_1  and  C_2
REMARK    2  A    between atoms: C_2  and  C_3
REMARK    3  A    between atoms: C_3  and  C_4
REMARK    4  A    between atoms: C_4  and  C_5
REMARK    5  A    between atoms: C_5  and  S_6
REMARK    6  A    between atoms: S_6  and  C_7
REMARK    7  A    between atoms: C_7  and  C_8
REMARK    8  A    between atoms: C_10  and  C_11
REMARK    9  A    between atoms: C_11  and  O_13
REMARK   10  A    between atoms: O_13  and  C_14
REMARK   11  A    between atoms: C_15  and  N_16
REMARK                            x       y       z     vdW  Elec       q    Type
REMARK                         _______ _______ _______ _____ _____    ______ ____
ROOT
ATOM      1  C   UNL     1       3.783   5.482  18.349  0.00  0.00    +0.000 A 
ATOM      2  C   UNL     1       4.236   5.678  17.061  0.00  0.00    +0.000 A 
ATOM      3  C   UNL     1       5.613   5.294  16.872  0.00  0.00    +0.000 A 
ATOM      4  C   UNL     1       6.142   4.785  18.048  0.00  0.00    +0.000 A 
ATOM      5  S   UNL     1       5.002   4.790  19.326  0.00  0.00    +0.000 S 
ENDROOT
BRANCH   4   6
ATOM      6  N   UNL     1       7.389   4.313  18.268  0.00  0.00    +0.000 N 
ATOM      7  H   UNL     1       8.195   4.811  17.891  0.00  0.00    +0.000 HD
ATOM      8  H   UNL     1       7.580   3.755  19.094  0.00  0.00    +0.000 HD
ENDBRANCH   4   6
BRANCH   3   9
ATOM      9  C   UNL     1       6.363   5.425  15.624  0.00  0.00    +0.000 C 
ATOM     10  O   UNL     1       7.512   5.855  15.551  0.00  0.00    +0.000 OA
BRANCH   9  11
ATOM     11  O   UNL     1       5.632   5.024  14.538  0.00  0.00    +0.000 OA
ATOM     12  C   UNL     1       6.101   3.827  13.919  0.00  0.00    +0.000 C 
ENDBRANCH   9  11
ENDBRANCH   3   9
BRANCH   1  13
ATOM     13  C   UNL     1       2.437   5.811  18.922  0.00  0.00    +0.000 C 
BRANCH  13  14
ATOM     14  S   UNL     1       2.337   5.181  20.629  0.00  0.00    +0.000 S 
BRANCH  14  15
ATOM     15  C   UNL     1       0.931   4.036  20.458  0.00  0.00    +0.000 C 
BRANCH  15  16
ATOM     16  C   UNL     1       1.476   2.692  19.971  0.00  0.00    +0.000 C 
BRANCH  16  17
ATOM     17  C   UNL     1       1.145   2.419  18.502  0.00  0.00    +0.000 C 
BRANCH  17  19
ATOM     18  C   UNL     1       3.513   1.525  18.491  0.00  0.00    +0.000 C 
ATOM     19  C   UNL     1       2.430   2.231  17.691  0.00  0.00    +0.000 C 
ENDBRANCH  17  19
ENDBRANCH  16  17
ENDBRANCH  15  16
ENDBRANCH  14  15
ENDBRANCH  13  14
ENDBRANCH   1  13
TORSDOF 9
ENDMDL
MODEL 2
REMARK VINA RESULT:      -5.8      1.030      1.276
REMARK  Name = 
REMARK  11 active torsions:
REMARK  status: ('A' for Active; 'I' for Inactive)
REMARK    1  A    between atoms: C_1  and  C_2
REMARK    2  A    between atoms: C_2  and  C_3
REMARK    3  A    between atoms: C_3  and  C_4
REMARK    4  A    between atoms: C_4  and  C_5
REMARK    5  A    between atoms: C_5  and  S_6
REMARK    6  A    between atoms: S_6  and  C_7
REMARK    7  A    between atoms: C_7  and  C_8
REMARK    8  A    between atoms: C_10  and  C_11
REMARK    9  A    between atoms: C_11  and  O_13
REMARK   10  A    between atoms: O_13  and  C_14
REMARK   11  A    between atoms: C_15  and  N_16
REMARK                            x       y       z     vdW  Elec       q    Type
REMARK                         _______ _______ _______ _____ _____    ______ ____
ROOT
ATOM      1  C   UNL     1       4.009   5.105  17.639  0.00  0.00    +0.000 A 
ATOM      2  C   UNL     1       4.528   4.972  16.368  0.00  0.00    +0.000 A 
ATOM      3  C   UNL     1       5.947   4.720  16.351  0.00  0.00    +0.000 A 
ATOM      4  C   UNL     1       6.443   4.642  17.643  0.00  0.00    +0.000 A 
ATOM      5  S   UNL     1       5.222   4.879  18.821  0.00  0.00    +0.000 S 
ENDROOT
BRANCH   4   6
ATOM      6  N   UNL     1       7.714   4.408  18.038  0.00  0.00    +0.000 N 
ATOM      7  H   UNL     1       8.482   4.925  17.611  0.00  0.00    +0.000 HD
ATOM      8  H   UNL     1       7.898   4.070  18.977  0.00  0.00    +0.000 HD
ENDBRANCH   4   6
BRANCH   3   9
ATOM      9  C   UNL     1       6.765   4.573  15.148  0.00  0.00    +0.000 C 
ATOM     10  O   UNL     1       7.689   5.325  14.845  0.00  0.00    +0.000 OA
BRANCH   9  11
ATOM     11  O   UNL     1       6.376   3.504  14.387  0.00  0.00    +0.000 OA
ATOM     12  C   UNL     1       6.257   3.784  12.992  0.00  0.00    +0.000 C 
ENDBRANCH   9  11
ENDBRANCH   3   9
BRANCH   1  13
ATOM     13  C   UNL     1       2.598   5.421  18.039  0.00  0.00    +0.000 C 
BRANCH  13  14
ATOM     14  S   UNL     1       2.614   6.416  19.566  0.00  0.00    +0.000 S 
BRANCH  14  15
ATOM     15  C   UNL     1       2.000   5.179  20.753  0.00  0.00    +0.000 C 
BRANCH  15  16
ATOM     16  C   UNL     1       1.105   4.200  19.990  0.00  0.00    +0.000 C 
BRANCH  16  17
ATOM     17  C   UNL     1       1.326   2.747  20.414  0.00  0.00    +0.000 C 
BRANCH  17  19
ATOM     18  C   UNL     1       2.873   1.773  18.663  0.00  0.00    +0.000 C 
ATOM     19  C   UNL     1       2.754   2.305  20.082  0.00  0.00    +0.000 C 
ENDBRANCH  17  19
ENDBRANCH  16  17
ENDBRANCH  15  16
ENDBRANCH  14  15
ENDBRANCH  13  14
ENDBRANCH   1  13
TORSDOF 9
ENDMDL
MODEL 3
REMARK VINA RESULT:      -5.7      1.331      1.885
REMARK  Name = 
REMARK  11 active torsions:
REMARK  status: ('A' for Active; 'I' for Inactive)
REMARK    1  A    between atoms: C_1  and  C_2
REMARK    2  A    between atoms: C_2  and  C_3
REMARK    3  A    between atoms: C_3  and  C_4
REMARK    4  A    between atoms: C_4  and  C_5
REMARK    5  A    between atoms: C_5  and  S_6
REMARK    6  A    between atoms: S_6  and  C_7
REMARK    7  A    between atoms: C_7  and  C_8
REMARK    8  A    between atoms: C_10  and  C_11
REMARK    9  A    between atoms: C_11  and  O_13
REMARK   10  A    between atoms: O_13  and  C_14
REMARK   11  A    between atoms: C_15  and  N_16
REMARK                            x       y       z     vdW  Elec       q    Type
REMARK                         _______ _______ _______ _____ _____    ______ ____
ROOT
ATOM      1  C   UNL     1       4.703   6.133  17.489  0.00  0.00    +0.000 A 
ATOM      2  C   UNL     1       5.012   5.885  16.168  0.00  0.00    +0.000 A 
ATOM      3  C   UNL     1       6.255   5.175  15.994  0.00  0.00    +0.000 A 
ATOM      4  C   UNL     1       6.827   4.886  17.222  0.00  0.00    +0.000 A 
ATOM      5  S   UNL     1       5.885   5.470  18.529  0.00  0.00    +0.000 S 
ENDROOT
BRANCH   4   6
ATOM      6  N   UNL     1       7.980   4.226  17.473  0.00  0.00    +0.000 N 
ATOM      7  H   UNL     1       7.954   3.244  17.748  0.00  0.00    +0.000 HD
ATOM      8  H   UNL     1       8.840   4.521  17.021  0.00  0.00    +0.000 HD
ENDBRANCH   4   6
BRANCH   3   9
ATOM      9  C   UNL     1       6.847   4.811  14.707  0.00  0.00    +0.000 C 
ATOM     10  O   UNL     1       7.835   5.358  14.222  0.00  0.00    +0.000 OA
BRANCH   9  11
ATOM     11  O   UNL     1       6.165   3.795  14.094  0.00  0.00    +0.000 OA
ATOM     12  C   UNL     1       6.473   3.625  12.711  0.00  0.00    +0.000 C 
ENDBRANCH   9  11
ENDBRANCH   3   9
BRANCH   1  13
ATOM     13  C   UNL     1       3.530   6.885  18.044  0.00  0.00    +0.000 C 
BRANCH  13  14
ATOM     14  S   UNL     1       2.537   5.768  19.088  0.00  0.00    +0.000 S 
BRANCH  14  15
ATOM     15  C   UNL     1       1.768   4.737  17.798  0.00  0.00    +0.000 C 
BRANCH  15  16
ATOM     16  C   UNL     1       2.350   3.328  17.914  0.00  0.00    +0.000 C 
BRANCH  16  17
ATOM     17  C   UNL     1       2.777   2.982  19.342  0.00  0.00    +0.000 C 
BRANCH  17  19
ATOM     18  C   UNL     1       1.637   2.772  21.593  0.00  0.00    +0.000 C 
ATOM     19  C   UNL     1       1.600   2.389  20.122  0.00  0.00    +0.000 C 
ENDBRANCH  17  19
ENDBRANCH  16  17
ENDBRANCH  15  16
ENDBRANCH  14  15
ENDBRANCH  13  14
ENDBRANCH   1  13
TORSDOF 9
ENDMDL
MODEL 4
REMARK VINA RESULT:      -5.7      1.793      2.584
REMARK  Name = 
REMARK  11 active torsions:
REMARK  status: ('A' for Active; 'I' for Inactive)
REMARK    1  A    between atoms: C_1  and  C_2
REMARK    2  A    between atoms: C_2  and  C_3
REMARK    3  A    between atoms: C_3  and  C_4
REMARK    4  A    between atoms: C_4  and  C_5
REMARK    5  A    between atoms: C_5  and  S_6
REMARK    6  A    between atoms: S_6  and  C_7
REMARK    7  A    between atoms: C_7  and  C_8
REMARK    8  A    between atoms: C_10  and  C_11
REMARK    9  A    between atoms: C_11  and  O_13
REMARK   10  A    between atoms: O_13  and  C_14
REMARK   11  A    between atoms: C_15  and  N_16
REMARK                            x       y       z     vdW  Elec       q    Type
REMARK                         _______ _______ _______ _____ _____    ______ ____
ROOT
ATOM      1  C   UNL     1       5.106   3.976  17.510  0.00  0.00    +0.000 A 
ATOM      2  C   UNL     1       5.447   3.799  16.186  0.00  0.00    +0.000 A 
ATOM      3  C   UNL     1       6.371   4.790  15.693  0.00  0.00    +0.000 A 
ATOM      4  C   UNL     1       6.718   5.675  16.701  0.00  0.00    +0.000 A 
ATOM      5  S   UNL     1       5.936   5.311  18.181  0.00  0.00    +0.000 S 
ENDROOT
BRANCH   4   6
ATOM      6  N   UNL     1       7.564   6.727  16.635  0.00  0.00    +0.000 N 
ATOM      7  H   UNL     1       8.310   6.824  17.324  0.00  0.00    +0.000 HD
ATOM      8  H   UNL     1       7.747   7.173  15.741  0.00  0.00    +0.000 HD
ENDBRANCH   4   6
BRANCH   3   9
ATOM      9  C   UNL     1       6.874   4.868  14.322  0.00  0.00    +0.000 C 
ATOM     10  O   UNL     1       7.873   5.502  13.988  0.00  0.00    +0.000 OA
BRANCH   9  11
ATOM     11  O   UNL     1       6.095   4.162  13.445  0.00  0.00    +0.000 OA
ATOM     12  C   UNL     1       6.794   3.659  12.307  0.00  0.00    +0.000 C 
ENDBRANCH   9  11
ENDBRANCH   3   9
BRANCH   1  13
ATOM     13  C   UNL     1       4.141   3.180  18.337  0.00  0.00    +0.000 C 
BRANCH  13  14
ATOM     14  S   UNL     1       2.565   3.018  17.437  0.00  0.00    +0.000 S 
BRANCH  14  15
ATOM     15  C   UNL     1       1.611   2.048  18.647  0.00  0.00    +0.000 C 
BRANCH  15  16
ATOM     16  C   UNL     1       2.235   2.272  20.025  0.00  0.00    +0.000 C 
BRANCH  16  17
ATOM     17  C   UNL     1       1.296   3.001  20.987  0.00  0.00    +0.000 C 
BRANCH  17  19
ATOM     18  C   UNL     1       2.080   5.394  20.739  0.00  0.00    +0.000 C 
ATOM     19  C   UNL     1       0.967   4.399  20.456  0.00  0.00    +0.000 C 
ENDBRANCH  17  19
ENDBRANCH  16  17
ENDBRANCH  15  16
ENDBRANCH  14  15
ENDBRANCH  13  14
ENDBRANCH   1  13
TORSDOF 9
ENDMDL
MODEL 5
REMARK VINA RESULT:      -5.6      2.354      3.433
REMARK  Name = 
REMARK  11 active torsions:
REMARK  status: ('A' for Active; 'I' for Inactive)
REMARK    1  A    between atoms: C_1  and  C_2
REMARK    2  A    between atoms: C_2  and  C_3
REMARK    3  A    between atoms: C_3  and  C_4
REMARK    4  A    between atoms: C_4  and  C_5
REMARK    5  A    between atoms: C_5  and  S_6
REMARK    6  A    between atoms: S_6  and  C_7
REMARK    7  A    between atoms: C_7  and  C_8
REMARK    8  A    between atoms: C_10  and  C_11
REMARK    9  A    between atoms: C_11  and  O_13
REMARK   10  A    between atoms: O_13  and  C_14
REMARK   11  A    between atoms: C_15  and  N_16
REMARK                            x       y       z     vdW  Elec       q    Type
REMARK                         _______ _______ _______ _____ _____    ______ ____
ROOT
ATOM      1  C   UNL     1       5.000   4.006  17.801  0.00  0.00    +0.000 A 
ATOM      2  C   UNL     1       5.743   4.966  18.456  0.00  0.00    +0.000 A 
ATOM      3  C   UNL     1       6.698   5.632  17.606  0.00  0.00    +0.000 A 
ATOM      4  C   UNL     1       6.610   5.154  16.308  0.00  0.00    +0.000 A 
ATOM      5  S   UNL     1       5.416   3.936  16.146  0.00  0.00    +0.000 S 
ENDROOT
BRANCH   4   6
ATOM      6  N   UNL     1       7.325   5.535  15.227  0.00  0.00    +0.000 N 
ATOM      7  H   UNL     1       6.894   5.525  14.303  0.00  0.00    +0.000 HD
ATOM      8  H   UNL     1       8.092   6.192  15.333  0.00  0.00    +0.000 HD
ENDBRANCH   4   6
BRANCH   3   9
ATOM      9  C   UNL     1       7.640   6.663  18.039  0.00  0.00    +0.000 C 
ATOM     10  O   UNL     1       8.294   6.608  19.078  0.00  0.00    +0.000 OA
BRANCH   9  11
ATOM     11  O   UNL     1       7.703   7.707  17.156  0.00  0.00    +0.000 OA
ATOM     12  C   UNL     1       8.001   8.968  17.753  0.00  0.00    +0.000 C 
ENDBRANCH   9  11
ENDBRANCH   3   9
BRANCH   1  13
ATOM     13  C   UNL     1       3.961   3.086  18.370  0.00  0.00    +0.000 C 
BRANCH  13  14
ATOM     14  S   UNL     1       2.464   3.154  17.333  0.00  0.00    +0.000 S 
BRANCH  14  15
ATOM     15  C   UNL     1       1.212   2.648  18.556  0.00  0.00    +0.000 C 
BRANCH  15  16
ATOM     16  C   UNL     1       1.940   2.298  19.855  0.00  0.00    +0.000 C 
BRANCH  16  17
ATOM     17  C   UNL     1       1.414   3.086  21.056  0.00  0.00    +0.000 C 
BRANCH  17  19
ATOM     18  C   UNL     1       1.748   5.541  20.540  0.00  0.00    +0.000 C 
ATOM     19  C   UNL     1       2.273   4.331  21.295  0.00  0.00    +0.000 C 
ENDBRANCH  17  19
ENDBRANCH  16  17
ENDBRANCH  15  16
ENDBRANCH  14  15
ENDBRANCH  13  14
ENDBRANCH   1  13
TORSDOF 9
ENDMDL
MODEL 6
REMARK VINA RESULT:      -5.5      1.146      1.731
REMARK  Name = 
REMARK  11 active torsions:
REMARK  status: ('A' for Active; 'I' for Inactive)
REMARK    1  A    between atoms: C_1  and  C_2
REMARK    2  A    between atoms: C_2  and  C_3
REMARK    3  A    between atoms: C_3  and  C_4
REMARK    4  A    between atoms: C_4  and  C_5
REMARK    5  A    between atoms: C_5  and  S_6
REMARK    6  A    between atoms: S_6  and  C_7
REMARK    7  A    between atoms: C_7  and  C_8
REMARK    8  A    between atoms: C_10  and  C_11
REMARK    9  A    between atoms: C_11  and  O_13
REMARK   10  A    between atoms: O_13  and  C_14
REMARK   11  A    between atoms: C_15  and  N_16
REMARK                            x       y       z     vdW  Elec       q    Type
REMARK                         _______ _______ _______ _____ _____    ______ ____
ROOT
ATOM      1  C   UNL     1       3.712   5.675  19.030  0.00  0.00    +0.000 A 
ATOM      2  C   UNL     1       4.152   6.296  17.880  0.00  0.00    +0.000 A 
ATOM      3  C   UNL     1       5.466   5.873  17.466  0.00  0.00    +0.000 A 
ATOM      4  C   UNL     1       5.959   4.904  18.327  0.00  0.00    +0.000 A 
ATOM      5  S   UNL     1       4.861   4.542  19.591  0.00  0.00    +0.000 S 
ENDROOT
BRANCH   4   6
ATOM      6  N   UNL     1       7.144   4.257  18.266  0.00  0.00    +0.000 N 
ATOM      7  H   UNL     1       7.739   4.209  19.093  0.00  0.00    +0.000 HD
ATOM      8  H   UNL     1       7.273   3.500  17.602  0.00  0.00    +0.000 HD
ENDBRANCH   4   6
BRANCH   3   9
ATOM      9  C   UNL     1       6.194   6.388  16.308  0.00  0.00    +0.000 C 
ATOM     10  O   UNL     1       5.707   6.517  15.187  0.00  0.00    +0.000 OA
BRANCH   9  11
ATOM     11  O   UNL     1       7.492   6.702  16.611  0.00  0.00    +0.000 OA
ATOM     12  C   UNL     1       7.643   7.863  17.428  0.00  0.00    +0.000 C 
ENDBRANCH   9  11
ENDBRANCH   3   9
BRANCH   1  13
ATOM     13  C   UNL     1       2.431   5.901  19.777  0.00  0.00    +0.000 C 
BRANCH  13  14
ATOM     14  S   UNL     1       2.294   4.679  21.122  0.00  0.00    +0.000 S 
BRANCH  14  15
ATOM     15  C   UNL     1       0.866   3.718  20.529  0.00  0.00    +0.000 C 
BRANCH  15  16
ATOM     16  C   UNL     1       1.398   2.454  19.852  0.00  0.00    +0.000 C 
BRANCH  16  17
ATOM     17  C   UNL     1       1.196   2.468  18.335  0.00  0.00    +0.000 C 
BRANCH  17  19
ATOM     18  C   UNL     1       3.521   1.469  18.376  0.00  0.00    +0.000 C 
ATOM     19  C   UNL     1       2.542   2.349  17.616  0.00  0.00    +0.000 C 
ENDBRANCH  17  19
ENDBRANCH  16  17
ENDBRANCH  15  16
ENDBRANCH  14  15
ENDBRANCH  13  14
ENDBRANCH   1  13
TORSDOF 9
ENDMDL
MODEL 7
REMARK VINA RESULT:      -5.5      1.387      1.865
REMARK  Name = 
REMARK  11 active torsions:
REMARK  status: ('A' for Active; 'I' for Inactive)
REMARK    1  A    between atoms: C_1  and  C_2
REMARK    2  A    between atoms: C_2  and  C_3
REMARK    3  A    between atoms: C_3  and  C_4
REMARK    4  A    between atoms: C_4  and  C_5
REMARK    5  A    between atoms: C_5  and  S_6
REMARK    6  A    between atoms: S_6  and  C_7
REMARK    7  A    between atoms: C_7  and  C_8
REMARK    8  A    between atoms: C_10  and  C_11
REMARK    9  A    between atoms: C_11  and  O_13
REMARK   10  A    between atoms: O_13  and  C_14
REMARK   11  A    between atoms: C_15  and  N_16
REMARK                            x       y       z     vdW  Elec       q    Type
REMARK                         _______ _______ _______ _____ _____    ______ ____
ROOT
ATOM      1  C   UNL     1       4.847   6.330  17.276  0.00  0.00    +0.000 A 
ATOM      2  C   UNL     1       5.098   6.073  15.945  0.00  0.00    +0.000 A 
ATOM      3  C   UNL     1       6.296   5.301  15.727  0.00  0.00    +0.000 A 
ATOM      4  C   UNL     1       6.893   4.976  16.935  0.00  0.00    +0.000 A 
ATOM      5  S   UNL     1       6.027   5.601  18.274  0.00  0.00    +0.000 S 
ENDROOT
BRANCH   4   6
ATOM      6  N   UNL     1       8.017   4.257  17.144  0.00  0.00    +0.000 N 
ATOM      7  H   UNL     1       8.906   4.734  17.292  0.00  0.00    +0.000 HD
ATOM      8  H   UNL     1       7.956   3.332  17.559  0.00  0.00    +0.000 HD
ENDBRANCH   4   6
BRANCH   3   9
ATOM      9  C   UNL     1       6.825   4.914  14.420  0.00  0.00    +0.000 C 
ATOM     10  O   UNL     1       7.875   5.342  13.945  0.00  0.00    +0.000 OA
BRANCH   9  11
ATOM     11  O   UNL     1       6.008   4.025  13.775  0.00  0.00    +0.000 OA
ATOM     12  C   UNL     1       6.493   3.589  12.506  0.00  0.00    +0.000 C 
ENDBRANCH   9  11
ENDBRANCH   3   9
BRANCH   1  13
ATOM     13  C   UNL     1       3.733   7.139  17.873  0.00  0.00    +0.000 C 
BRANCH  13  14
ATOM     14  S   UNL     1       2.304   6.055  18.192  0.00  0.00    +0.000 S 
BRANCH  14  15
ATOM     15  C   UNL     1       2.463   5.848  19.994  0.00  0.00    +0.000 C 
BRANCH  15  16
ATOM     16  C   UNL     1       2.520   4.349  20.292  0.00  0.00    +0.000 C 
BRANCH  16  17
ATOM     17  C   UNL     1       1.145   3.759  20.612  0.00  0.00    +0.000 C 
BRANCH  17  19
ATOM     18  C   UNL     1       1.894   2.265  18.711  0.00  0.00    +0.000 C 
ATOM     19  C   UNL     1       0.711   2.786  19.512  0.00  0.00    +0.000 C 
ENDBRANCH  17  19
ENDBRANCH  16  17
ENDBRANCH  15  16
ENDBRANCH  14  15
ENDBRANCH  13  14
ENDBRANCH   1  13
TORSDOF 9
ENDMDL
MODEL 8
REMARK VINA RESULT:      -5.5      2.391      3.402
REMARK  Name = 
REMARK  11 active torsions:
REMARK  status: ('A' for Active; 'I' for Inactive)
REMARK    1  A    between atoms: C_1  and  C_2
REMARK    2  A    between atoms: C_2  and  C_3
REMARK    3  A    between atoms: C_3  and  C_4
REMARK    4  A    between atoms: C_4  and  C_5
REMARK    5  A    between atoms: C_5  and  S_6
REMARK    6  A    between atoms: S_6  and  C_7
REMARK    7  A    between atoms: C_7  and  C_8
REMARK    8  A    between atoms: C_10  and  C_11
REMARK    9  A    between atoms: C_11  and  O_13
REMARK   10  A    between atoms: O_13  and  C_14
REMARK   11  A    between atoms: C_15  and  N_16
REMARK                            x       y       z     vdW  Elec       q    Type
REMARK                         _______ _______ _______ _____ _____    ______ ____
ROOT
ATOM      1  C   UNL     1       5.604   4.254  16.279  0.00  0.00    +0.000 A 
ATOM      2  C   UNL     1       5.385   3.645  15.062  0.00  0.00    +0.000 A 
ATOM      3  C   UNL     1       6.299   4.073  14.032  0.00  0.00    +0.000 A 
ATOM      4  C   UNL     1       7.209   4.987  14.539  0.00  0.00    +0.000 A 
ATOM      5  S   UNL     1       6.945   5.311  16.201  0.00  0.00    +0.000 S 
ENDROOT
BRANCH   4   6
ATOM      6  N   UNL     1       8.223   5.604  13.893  0.00  0.00    +0.000 N 
ATOM      7  H   UNL     1       8.029   6.168  13.066  0.00  0.00    +0.000 HD
ATOM      8  H   UNL     1       9.062   5.865  14.401  0.00  0.00    +0.000 HD
ENDBRANCH   4   6
BRANCH   3   9
ATOM      9  C   UNL     1       6.276   3.623  12.642  0.00  0.00    +0.000 C 
ATOM     10  O   UNL     1       7.094   3.966  11.791  0.00  0.00    +0.000 OA
BRANCH   9  11
ATOM     11  O   UNL     1       5.228   2.779  12.390  0.00  0.00    +0.000 OA
ATOM     12  C   UNL     1       4.293   3.268  11.429  0.00  0.00    +0.000 C 
ENDBRANCH   9  11
ENDBRANCH   3   9
BRANCH   1  13
ATOM     13  C   UNL     1       4.826   4.098  17.552  0.00  0.00    +0.000 C 
BRANCH  13  14
ATOM     14  S   UNL     1       3.107   3.639  17.155  0.00  0.00    +0.000 S 
BRANCH  14  15
ATOM     15  C   UNL     1       3.030   2.000  17.946  0.00  0.00    +0.000 C 
BRANCH  15  16
ATOM     16  C   UNL     1       1.877   2.018  18.951  0.00  0.00    +0.000 C 
BRANCH  16  17
ATOM     17  C   UNL     1       1.325   3.424  19.191  0.00  0.00    +0.000 C 
BRANCH  17  19
ATOM     18  C   UNL     1       2.026   2.841  21.552  0.00  0.00    +0.000 C 
ATOM     19  C   UNL     1       1.078   3.653  20.684  0.00  0.00    +0.000 C 
ENDBRANCH  17  19
ENDBRANCH  16  17
ENDBRANCH  15  16
ENDBRANCH  14  15
ENDBRANCH  13  14
ENDBRANCH   1  13
TORSDOF 9
ENDMDL
MODEL 9
REMARK VINA RESULT:      -5.5      1.775      2.583
REMARK  Name = 
REMARK  11 active torsions:
REMARK  status: ('A' for Active; 'I' for Inactive)
REMARK    1  A    between atoms: C_1  and  C_2
REMARK    2  A    between atoms: C_2  and  C_3
REMARK    3  A    between atoms: C_3  and  C_4
REMARK    4  A    between atoms: C_4  and  C_5
REMARK    5  A    between atoms: C_5  and  S_6
REMARK    6  A    between atoms: S_6  and  C_7
REMARK    7  A    between atoms: C_7  and  C_8
REMARK    8  A    between atoms: C_10  and  C_11
REMARK    9  A    between atoms: C_11  and  O_13
REMARK   10  A    between atoms: O_13  and  C_14
REMARK   11  A    between atoms: C_15  and  N_16
REMARK                            x       y       z     vdW  Elec       q    Type
REMARK                         _______ _______ _______ _____ _____    ______ ____
ROOT
ATOM      1  C   UNL     1       4.911   4.289  17.463  0.00  0.00    +0.000 A 
ATOM      2  C   UNL     1       5.277   3.971  16.173  0.00  0.00    +0.000 A 
ATOM      3  C   UNL     1       6.313   4.823  15.643  0.00  0.00    +0.000 A 
ATOM      4  C   UNL     1       6.713   5.750  16.592  0.00  0.00    +0.000 A 
ATOM      5  S   UNL     1       5.847   5.587  18.062  0.00  0.00    +0.000 S 
ENDROOT
BRANCH   4   6
ATOM      6  N   UNL     1       7.661   6.706  16.479  0.00  0.00    +0.000 N 
ATOM      7  H   UNL     1       7.691   7.474  17.150  0.00  0.00    +0.000 HD
ATOM      8  H   UNL     1       8.551   6.486  16.042  0.00  0.00    +0.000 HD
ENDBRANCH   4   6
BRANCH   3   9
ATOM      9  C   UNL     1       6.868   4.738  14.293  0.00  0.00    +0.000 C 
ATOM     10  O   UNL     1       6.432   4.000  13.412  0.00  0.00    +0.000 OA
BRANCH   9  11
ATOM     11  O   UNL     1       7.941   5.571  14.124  0.00  0.00    +0.000 OA
ATOM     12  C   UNL     1       8.362   5.725  12.769  0.00  0.00    +0.000 C 
ENDBRANCH   9  11
ENDBRANCH   3   9
BRANCH   1  13
ATOM     13  C   UNL     1       3.842   3.662  18.309  0.00  0.00    +0.000 C 
BRANCH  13  14
ATOM     14  S   UNL     1       2.271   4.548  18.051  0.00  0.00    +0.000 S 
BRANCH  14  15
ATOM     15  C   UNL     1       2.401   5.805  19.362  0.00  0.00    +0.000 C 
BRANCH  15  16
ATOM     16  C   UNL     1       1.884   5.184  20.661  0.00  0.00    +0.000 C 
BRANCH  16  17
ATOM     17  C   UNL     1       0.967   3.984  20.416  0.00  0.00    +0.000 C 
BRANCH  17  19
ATOM     18  C   UNL     1       2.714   2.508  21.501  0.00  0.00    +0.000 C 
ATOM     19  C   UNL     1       1.242   2.884  21.446  0.00  0.00    +0.000 C 
ENDBRANCH  17  19
ENDBRANCH  16  17
ENDBRANCH  15  16
ENDBRANCH  14  15
ENDBRANCH  13  14
ENDBRANCH   1  13
TORSDOF 9
ENDMDL
