MODEL 1
REMARK VINA RESULT:      -8.5      0.000      0.000
REMARK  Name = 
REMARK  10 active torsions:
REMARK  status: ('A' for Active; 'I' for Inactive)
REMARK    1  A    between atoms: C_1  and  C_2
REMARK    2  A    between atoms: C_2  and  O_3
REMARK    3  A    between atoms: O_3  and  C_4
REMARK    4  A    between atoms: C_4  and  C_6
REMARK    5  A    between atoms: C_6  and  O_7
REMARK    6  A    between atoms: O_7  and  C_8
REMARK    7  A    between atoms: C_11  and  C_12
REMARK    8  A    between atoms: N_18  and  C_19
REMARK    9  A    between atoms: C_22  and  O_23
REMARK   10  A    between atoms: O_23  and  C_24
REMARK                            x       y       z     vdW  Elec       q    Type
REMARK                         _______ _______ _______ _____ _____    ______ ____
ROOT
ATOM      1  C   UNL     1       2.429   6.234  19.914  0.00  0.00    +0.000 A 
ATOM      2  N   UNL     1       3.297   5.798  19.048  0.00  0.00    +0.000 NA
ATOM      3  C   UNL     1       3.713   4.520  19.249  0.00  0.00    +0.000 A 
ATOM      4  C   UNL     1       3.279   3.679  20.244  0.00  0.00    +0.000 A 
ATOM      5  C   UNL     1       3.954   2.478  20.049  0.00  0.00    +0.000 A 
ATOM      6  N   UNL     1       4.770   2.524  18.991  0.00  0.00    +0.000 NA
ATOM      7  N   UNL     1       4.643   3.801  18.499  0.00  0.00    +0.000 N 
ATOM      8  C   UNL     1       2.311   4.152  21.186  0.00  0.00    +0.000 A 
ATOM      9  O   UNL     1       1.852   3.481  22.106  0.00  0.00    +0.000 OA
ATOM     10  N   UNL     1       1.930   5.459  20.956  0.00  0.00    +0.000 N 
ATOM     11  H   UNL     1       1.216   5.806  21.576  0.00  0.00    +0.000 HD
ENDROOT
BRANCH   1  15
ATOM     12  C   UNL     1       0.847  10.202  19.657  0.00  0.00    +0.000 A 
ATOM     13  C   UNL     1       0.782   9.486  20.851  0.00  0.00    +0.000 A 
ATOM     14  C   UNL     1       1.324   8.204  20.934  0.00  0.00    +0.000 A 
ATOM     15  C   UNL     1       1.929   7.628  19.812  0.00  0.00    +0.000 A 
ATOM     16  C   UNL     1       1.977   8.339  18.607  0.00  0.00    +0.000 A 
ATOM     17  C   UNL     1       1.432   9.626  18.530  0.00  0.00    +0.000 A 
BRANCH  12  18
ATOM     18  O   UNL     1       0.265  11.431  19.704  0.00  0.00    +0.000 OA
BRANCH  18  19
ATOM     19  C   UNL     1      -0.557  11.793  18.601  0.00  0.00    +0.000 C 
BRANCH  19  20
ATOM     20  C   UNL     1      -2.007  11.621  19.011  0.00  0.00    +0.000 C 
ATOM     21  O   UNL     1      -2.543  12.130  19.986  0.00  0.00    +0.000 OA
BRANCH  20  22
ATOM     22  O   UNL     1      -2.612  10.749  18.153  0.00  0.00    +0.000 OA
BRANCH  22  24
ATOM     23  C   UNL     1      -2.740   9.832  15.955  0.00  0.00    +0.000 C 
ATOM     24  C   UNL     1      -2.497  11.093  16.765  0.00  0.00    +0.000 C 
ENDBRANCH  22  24
ENDBRANCH  20  22
ENDBRANCH  19  20
ENDBRANCH  18  19
ENDBRANCH  12  18
ENDBRANCH   1  15
BRANCH   7  25
ATOM     25  C   UNL     1       5.406   4.215  17.368  0.00  0.00    +0.000 A 
ATOM     26  C   UNL     1       6.625   4.882  17.564  0.00  0.00    +0.000 A 
ATOM     27  C   UNL     1       7.398   5.279  16.468  0.00  0.00    +0.000 A 
ATOM     28  C   UNL     1       6.973   5.011  15.166  0.00  0.00    +0.000 A 
ATOM     29  C   UNL     1       5.748   4.382  14.963  0.00  0.00    +0.000 A 
ATOM     30  C   UNL     1       4.971   3.983  16.056  0.00  0.00    +0.000 A 
BRANCH  28  31
ATOM     31  O   UNL     1       7.809   5.439  14.172  0.00  0.00    +0.000 OA
ATOM     32  C   UNL     1       7.499   4.955  12.868  0.00  0.00    +0.000 C 
ENDBRANCH  28  31
ENDBRANCH   7  25
TORSDOF 8
ENDMDL
MODEL 2
REMARK VINA RESULT:      -8.3      0.800      1.494
REMARK  Name = 
REMARK  10 active torsions:
REMARK  status: ('A' for Active; 'I' for Inactive)
REMARK    1  A    between atoms: C_1  and  C_2
REMARK    2  A    between atoms: C_2  and  O_3
REMARK    3  A    between atoms: O_3  and  C_4
REMARK    4  A    between atoms: C_4  and  C_6
REMARK    5  A    between atoms: C_6  and  O_7
REMARK    6  A    between atoms: O_7  and  C_8
REMARK    7  A    between atoms: C_11  and  C_12
REMARK    8  A    between atoms: N_18  and  C_19
REMARK    9  A    between atoms: C_22  and  O_23
REMARK   10  A    between atoms: O_23  and  C_24
REMARK                            x       y       z     vdW  Elec       q    Type
REMARK                         _______ _______ _______ _____ _____    ______ ____
ROOT
ATOM      1  C   UNL     1       2.379   6.004  20.130  0.00  0.00    +0.000 A 
ATOM      2  N   UNL     1       3.292   5.621  19.286  0.00  0.00    +0.000 NA
ATOM      3  C   UNL     1       3.745   4.353  19.470  0.00  0.00    +0.000 A 
ATOM      4  C   UNL     1       3.306   3.472  20.427  0.00  0.00    +0.000 A 
ATOM      5  C   UNL     1       4.029   2.300  20.226  0.00  0.00    +0.000 A 
ATOM      6  N   UNL     1       4.880   2.402  19.200  0.00  0.00    +0.000 NA
ATOM      7  N   UNL     1       4.725   3.686  18.736  0.00  0.00    +0.000 N 
ATOM      8  C   UNL     1       2.289   3.886  21.345  0.00  0.00    +0.000 A 
ATOM      9  O   UNL     1       1.822   3.177  22.231  0.00  0.00    +0.000 OA
ATOM     10  N   UNL     1       1.871   5.185  21.134  0.00  0.00    +0.000 N 
ATOM     11  H   UNL     1       1.124   5.491  21.736  0.00  0.00    +0.000 HD
ENDROOT
BRANCH   1  15
ATOM     12  C   UNL     1       0.950  10.028  19.850  0.00  0.00    +0.000 A 
ATOM     13  C   UNL     1       1.548   9.407  18.754  0.00  0.00    +0.000 A 
ATOM     14  C   UNL     1       1.986   8.088  18.845  0.00  0.00    +0.000 A 
ATOM     15  C   UNL     1       1.834   7.383  20.044  0.00  0.00    +0.000 A 
ATOM     16  C   UNL     1       1.252   8.012  21.151  0.00  0.00    +0.000 A 
ATOM     17  C   UNL     1       0.812   9.337  21.053  0.00  0.00    +0.000 A 
BRANCH  12  18
ATOM     18  O   UNL     1       0.584  11.321  19.635  0.00  0.00    +0.000 OA
BRANCH  18  19
ATOM     19  C   UNL     1      -0.809  11.580  19.513  0.00  0.00    +0.000 C 
BRANCH  19  20
ATOM     20  C   UNL     1      -1.031  12.422  18.271  0.00  0.00    +0.000 C 
ATOM     21  O   UNL     1      -0.584  13.543  18.074  0.00  0.00    +0.000 OA
BRANCH  20  22
ATOM     22  O   UNL     1      -1.871  11.756  17.426  0.00  0.00    +0.000 OA
BRANCH  22  24
ATOM     23  C   UNL     1      -3.750  10.302  17.643  0.00  0.00    +0.000 C 
ATOM     24  C   UNL     1      -2.254  10.446  17.867  0.00  0.00    +0.000 C 
ENDBRANCH  22  24
ENDBRANCH  20  22
ENDBRANCH  19  20
ENDBRANCH  18  19
ENDBRANCH  12  18
ENDBRANCH   1  15
BRANCH   7  25
ATOM     25  C   UNL     1       5.513   4.156  17.644  0.00  0.00    +0.000 A 
ATOM     26  C   UNL     1       5.161   3.799  16.334  0.00  0.00    +0.000 A 
ATOM     27  C   UNL     1       5.909   4.265  15.248  0.00  0.00    +0.000 A 
ATOM     28  C   UNL     1       7.009   5.098  15.451  0.00  0.00    +0.000 A 
ATOM     29  C   UNL     1       7.387   5.428  16.749  0.00  0.00    +0.000 A 
ATOM     30  C   UNL     1       6.642   4.964  17.839  0.00  0.00    +0.000 A 
BRANCH  28  31
ATOM     31  O   UNL     1       7.664   5.498  14.318  0.00  0.00    +0.000 OA
ATOM     32  C   UNL     1       7.294   4.811  13.127  0.00  0.00    +0.000 C 
ENDBRANCH  28  31
ENDBRANCH   7  25
TORSDOF 8
ENDMDL
MODEL 3
REMARK VINA RESULT:      -8.3      1.561      2.507
REMARK  Name = 
REMARK  10 active torsions:
REMARK  status: ('A' for Active; 'I' for Inactive)
REMARK    1  A    between atoms: C_1  and  C_2
REMARK    2  A    between atoms: C_2  and  O_3
REMARK    3  A    between atoms: O_3  and  C_4
REMARK    4  A    between atoms: C_4  and  C_6
REMARK    5  A    between atoms: C_6  and  O_7
REMARK    6  A    between atoms: O_7  and  C_8
REMARK    7  A    between atoms: C_11  and  C_12
REMARK    8  A    between atoms: N_18  and  C_19
REMARK    9  A    between atoms: C_22  and  O_23
REMARK   10  A    between atoms: O_23  and  C_24
REMARK                            x       y       z     vdW  Elec       q    Type
REMARK                         _______ _______ _______ _____ _____    ______ ____
ROOT
ATOM      1  C   UNL     1       2.481   6.164  19.900  0.00  0.00    +0.000 A 
ATOM      2  N   UNL     1       3.343   5.734  19.026  0.00  0.00    +0.000 NA
ATOM      3  C   UNL     1       3.774   4.461  19.224  0.00  0.00    +0.000 A 
ATOM      4  C   UNL     1       3.360   3.617  20.225  0.00  0.00    +0.000 A 
ATOM      5  C   UNL     1       4.044   2.423  20.024  0.00  0.00    +0.000 A 
ATOM      6  N   UNL     1       4.847   2.475  18.957  0.00  0.00    +0.000 NA
ATOM      7  N   UNL     1       4.702   3.750  18.465  0.00  0.00    +0.000 N 
ATOM      8  C   UNL     1       2.397   4.082  21.177  0.00  0.00    +0.000 A 
ATOM      9  O   UNL     1       1.955   3.409  22.103  0.00  0.00    +0.000 OA
ATOM     10  N   UNL     1       2.001   5.385  20.949  0.00  0.00    +0.000 N 
ATOM     11  H   UNL     1       1.290   5.726  21.577  0.00  0.00    +0.000 HD
ENDROOT
BRANCH   1  15
ATOM     12  C   UNL     1       0.855  10.114  19.650  0.00  0.00    +0.000 A 
ATOM     13  C   UNL     1       0.779   9.387  20.837  0.00  0.00    +0.000 A 
ATOM     14  C   UNL     1       1.335   8.112  20.918  0.00  0.00    +0.000 A 
ATOM     15  C   UNL     1       1.966   7.552  19.801  0.00  0.00    +0.000 A 
ATOM     16  C   UNL     1       2.025   8.274  18.603  0.00  0.00    +0.000 A 
ATOM     17  C   UNL     1       1.466   9.555  18.528  0.00  0.00    +0.000 A 
BRANCH  12  18
ATOM     18  O   UNL     1       0.258  11.336  19.698  0.00  0.00    +0.000 OA
BRANCH  18  19
ATOM     19  C   UNL     1       0.946  12.409  19.067  0.00  0.00    +0.000 C 
BRANCH  19  20
ATOM     20  C   UNL     1       1.867  13.051  20.087  0.00  0.00    +0.000 C 
ATOM     21  O   UNL     1       1.677  13.103  21.294  0.00  0.00    +0.000 OA
BRANCH  20  22
ATOM     22  O   UNL     1       2.920  13.627  19.436  0.00  0.00    +0.000 OA
BRANCH  22  24
ATOM     23  C   UNL     1       2.306  15.903  19.069  0.00  0.00    +0.000 C 
ATOM     24  C   UNL     1       2.554  14.558  18.407  0.00  0.00    +0.000 C 
ENDBRANCH  22  24
ENDBRANCH  20  22
ENDBRANCH  19  20
ENDBRANCH  18  19
ENDBRANCH  12  18
ENDBRANCH   1  15
BRANCH   7  25
ATOM     25  C   UNL     1       5.449   4.170  17.324  0.00  0.00    +0.000 A 
ATOM     26  C   UNL     1       6.774   4.599  17.486  0.00  0.00    +0.000 A 
ATOM     27  C   UNL     1       7.530   4.996  16.378  0.00  0.00    +0.000 A 
ATOM     28  C   UNL     1       6.980   4.963  15.097  0.00  0.00    +0.000 A 
ATOM     29  C   UNL     1       5.654   4.574  14.932  0.00  0.00    +0.000 A 
ATOM     30  C   UNL     1       4.894   4.175  16.037  0.00  0.00    +0.000 A 
BRANCH  28  31
ATOM     31  O   UNL     1       7.809   5.368  14.087  0.00  0.00    +0.000 OA
ATOM     32  C   UNL     1       7.501   4.841  12.800  0.00  0.00    +0.000 C 
ENDBRANCH  28  31
ENDBRANCH   7  25
TORSDOF 8
ENDMDL
MODEL 4
REMARK VINA RESULT:      -8.2      1.692      2.871
REMARK  Name = 
REMARK  10 active torsions:
REMARK  status: ('A' for Active; 'I' for Inactive)
REMARK    1  A    between atoms: C_1  and  C_2
REMARK    2  A    between atoms: C_2  and  O_3
REMARK    3  A    between atoms: O_3  and  C_4
REMARK    4  A    between atoms: C_4  and  C_6
REMARK    5  A    between atoms: C_6  and  O_7
REMARK    6  A    between atoms: O_7  and  C_8
REMARK    7  A    between atoms: C_11  and  C_12
REMARK    8  A    between atoms: N_18  and  C_19
REMARK    9  A    between atoms: C_22  and  O_23
REMARK   10  A    between atoms: O_23  and  C_24
REMARK                            x       y       z     vdW  Elec       q    Type
REMARK                         _______ _______ _______ _____ _____    ______ ____
ROOT
ATOM      1  C   UNL     1       2.471   6.191  19.807  0.00  0.00    +0.000 A 
ATOM      2  N   UNL     1       3.336   5.741  18.945  0.00  0.00    +0.000 NA
ATOM      3  C   UNL     1       3.796   4.487  19.197  0.00  0.00    +0.000 A 
ATOM      4  C   UNL     1       3.409   3.681  20.238  0.00  0.00    +0.000 A 
ATOM      5  C   UNL     1       4.117   2.494  20.086  0.00  0.00    +0.000 A 
ATOM      6  N   UNL     1       4.911   2.515  19.010  0.00  0.00    +0.000 NA
ATOM      7  N   UNL     1       4.733   3.763  18.462  0.00  0.00    +0.000 N 
ATOM      8  C   UNL     1       2.444   4.168  21.178  0.00  0.00    +0.000 A 
ATOM      9  O   UNL     1       2.025   3.528  22.138  0.00  0.00    +0.000 OA
ATOM     10  N   UNL     1       2.017   5.450  20.895  0.00  0.00    +0.000 N 
ATOM     11  H   UNL     1       1.304   5.804  21.513  0.00  0.00    +0.000 HD
ENDROOT
BRANCH   1  15
ATOM     12  C   UNL     1       1.039  10.193  19.320  0.00  0.00    +0.000 A 
ATOM     13  C   UNL     1       1.642   9.519  18.259  0.00  0.00    +0.000 A 
ATOM     14  C   UNL     1       2.082   8.206  18.418  0.00  0.00    +0.000 A 
ATOM     15  C   UNL     1       1.925   7.562  19.650  0.00  0.00    +0.000 A 
ATOM     16  C   UNL     1       1.337   8.245  20.722  0.00  0.00    +0.000 A 
ATOM     17  C   UNL     1       0.897   9.563  20.556  0.00  0.00    +0.000 A 
BRANCH  12  18
ATOM     18  O   UNL     1       0.672  11.474  19.039  0.00  0.00    +0.000 OA
BRANCH  18  19
ATOM     19  C   UNL     1       0.637  12.383  20.132  0.00  0.00    +0.000 C 
BRANCH  19  20
ATOM     20  C   UNL     1       1.962  13.120  20.181  0.00  0.00    +0.000 C 
ATOM     21  O   UNL     1       2.651  13.293  21.177  0.00  0.00    +0.000 OA
BRANCH  20  22
ATOM     22  O   UNL     1       2.239  13.623  18.943  0.00  0.00    +0.000 OA
BRANCH  22  24
ATOM     23  C   UNL     1       3.394  15.307  17.709  0.00  0.00    +0.000 C 
ATOM     24  C   UNL     1       3.504  14.291  18.834  0.00  0.00    +0.000 C 
ENDBRANCH  22  24
ENDBRANCH  20  22
ENDBRANCH  19  20
ENDBRANCH  18  19
ENDBRANCH  12  18
ENDBRANCH   1  15
BRANCH   7  25
ATOM     25  C   UNL     1       5.461   4.147  17.297  0.00  0.00    +0.000 A 
ATOM     26  C   UNL     1       4.865   4.012  16.035  0.00  0.00    +0.000 A 
ATOM     27  C   UNL     1       5.555   4.400  14.882  0.00  0.00    +0.000 A 
ATOM     28  C   UNL     1       6.840   4.936  14.970  0.00  0.00    +0.000 A 
ATOM     29  C   UNL     1       7.452   5.039  16.216  0.00  0.00    +0.000 A 
ATOM     30  C   UNL     1       6.767   4.651  17.373  0.00  0.00    +0.000 A 
BRANCH  28  31
ATOM     31  O   UNL     1       7.418   5.287  13.782  0.00  0.00    +0.000 OA
ATOM     32  C   UNL     1       7.090   4.450  12.676  0.00  0.00    +0.000 C 
ENDBRANCH  28  31
ENDBRANCH   7  25
TORSDOF 8
ENDMDL
MODEL 5
REMARK VINA RESULT:      -8.2      0.634      1.070
REMARK  Name = 
REMARK  10 active torsions:
REMARK  status: ('A' for Active; 'I' for Inactive)
REMARK    1  A    between atoms: C_1  and  C_2
REMARK    2  A    between atoms: C_2  and  O_3
REMARK    3  A    between atoms: O_3  and  C_4
REMARK    4  A    between atoms: C_4  and  C_6
REMARK    5  A    between atoms: C_6  and  O_7
REMARK    6  A    between atoms: O_7  and  C_8
REMARK    7  A    between atoms: C_11  and  C_12
REMARK    8  A    between atoms: N_18  and  C_19
REMARK    9  A    between atoms: C_22  and  O_23
REMARK   10  A    between atoms: O_23  and  C_24
REMARK                            x       y       z     vdW  Elec       q    Type
REMARK                         _______ _______ _______ _____ _____    ______ ____
ROOT
ATOM      1  C   UNL     1       2.424   6.096  20.061  0.00  0.00    +0.000 A 
ATOM      2  N   UNL     1       3.316   5.675  19.213  0.00  0.00    +0.000 NA
ATOM      3  C   UNL     1       3.743   4.402  19.415  0.00  0.00    +0.000 A 
ATOM      4  C   UNL     1       3.298   3.549  20.395  0.00  0.00    +0.000 A 
ATOM      5  C   UNL     1       3.992   2.358  20.208  0.00  0.00    +0.000 A 
ATOM      6  N   UNL     1       4.830   2.421  19.169  0.00  0.00    +0.000 NA
ATOM      7  N   UNL     1       4.698   3.699  18.682  0.00  0.00    +0.000 N 
ATOM      8  C   UNL     1       2.303   4.004  21.318  0.00  0.00    +0.000 A 
ATOM      9  O   UNL     1       1.832   3.323  22.224  0.00  0.00    +0.000 OA
ATOM     10  N   UNL     1       1.911   5.308  21.088  0.00  0.00    +0.000 N 
ATOM     11  H   UNL     1       1.179   5.642  21.694  0.00  0.00    +0.000 HD
ENDROOT
BRANCH   1  15
ATOM     12  C   UNL     1       0.797  10.044  19.787  0.00  0.00    +0.000 A 
ATOM     13  C   UNL     1       0.679   9.306  20.964  0.00  0.00    +0.000 A 
ATOM     14  C   UNL     1       1.235   8.031  21.054  0.00  0.00    +0.000 A 
ATOM     15  C   UNL     1       1.909   7.484  19.956  0.00  0.00    +0.000 A 
ATOM     16  C   UNL     1       2.010   8.217  18.767  0.00  0.00    +0.000 A 
ATOM     17  C   UNL     1       1.450   9.497  18.683  0.00  0.00    +0.000 A 
BRANCH  12  18
ATOM     18  O   UNL     1       0.195  11.264  19.824  0.00  0.00    +0.000 OA
BRANCH  18  19
ATOM     19  C   UNL     1      -0.849  11.491  18.885  0.00  0.00    +0.000 C 
BRANCH  19  20
ATOM     20  C   UNL     1      -1.976  12.220  19.591  0.00  0.00    +0.000 C 
ATOM     21  O   UNL     1      -1.867  12.913  20.593  0.00  0.00    +0.000 OA
BRANCH  20  22
ATOM     22  O   UNL     1      -3.155  11.925  18.969  0.00  0.00    +0.000 OA
BRANCH  22  24
ATOM     23  C   UNL     1      -4.357  10.926  17.167  0.00  0.00    +0.000 C 
ATOM     24  C   UNL     1      -3.027  11.519  17.599  0.00  0.00    +0.000 C 
ENDBRANCH  22  24
ENDBRANCH  20  22
ENDBRANCH  19  20
ENDBRANCH  18  19
ENDBRANCH  12  18
ENDBRANCH   1  15
BRANCH   7  25
ATOM     25  C   UNL     1       5.482   4.130  17.571  0.00  0.00    +0.000 A 
ATOM     26  C   UNL     1       4.964   4.009  16.273  0.00  0.00    +0.000 A 
ATOM     27  C   UNL     1       5.709   4.443  15.171  0.00  0.00    +0.000 A 
ATOM     28  C   UNL     1       6.971   5.011  15.348  0.00  0.00    +0.000 A 
ATOM     29  C   UNL     1       7.506   5.101  16.629  0.00  0.00    +0.000 A 
ATOM     30  C   UNL     1       6.766   4.668  17.735  0.00  0.00    +0.000 A 
BRANCH  28  31
ATOM     31  O   UNL     1       7.607   5.405  14.203  0.00  0.00    +0.000 OA
ATOM     32  C   UNL     1       7.264   4.670  13.033  0.00  0.00    +0.000 C 
ENDBRANCH  28  31
ENDBRANCH   7  25
TORSDOF 8
ENDMDL
MODEL 6
REMARK VINA RESULT:      -8.2      1.584      2.637
REMARK  Name = 
REMARK  10 active torsions:
REMARK  status: ('A' for Active; 'I' for Inactive)
REMARK    1  A    between atoms: C_1  and  C_2
REMARK    2  A    between atoms: C_2  and  O_3
REMARK    3  A    between atoms: O_3  and  C_4
REMARK    4  A    between atoms: C_4  and  C_6
REMARK    5  A    between atoms: C_6  and  O_7
REMARK    6  A    between atoms: O_7  and  C_8
REMARK    7  A    between atoms: C_11  and  C_12
REMARK    8  A    between atoms: N_18  and  C_19
REMARK    9  A    between atoms: C_22  and  O_23
REMARK   10  A    between atoms: O_23  and  C_24
REMARK                            x       y       z     vdW  Elec       q    Type
REMARK                         _______ _______ _______ _____ _____    ______ ____
ROOT
ATOM      1  C   UNL     1       2.408   6.160  19.883  0.00  0.00    +0.000 A 
ATOM      2  N   UNL     1       3.288   5.731  19.026  0.00  0.00    +0.000 NA
ATOM      3  C   UNL     1       3.743   4.471  19.254  0.00  0.00    +0.000 A 
ATOM      4  C   UNL     1       3.335   3.640  20.268  0.00  0.00    +0.000 A 
ATOM      5  C   UNL     1       4.046   2.456  20.099  0.00  0.00    +0.000 A 
ATOM      6  N   UNL     1       4.859   2.503  19.039  0.00  0.00    +0.000 NA
ATOM      7  N   UNL     1       4.693   3.764  18.519  0.00  0.00    +0.000 N 
ATOM      8  C   UNL     1       2.354   4.104  21.201  0.00  0.00    +0.000 A 
ATOM      9  O   UNL     1       1.916   3.441  22.137  0.00  0.00    +0.000 OA
ATOM     10  N   UNL     1       1.933   5.393  20.943  0.00  0.00    +0.000 N 
ATOM     11  H   UNL     1       1.209   5.733  21.556  0.00  0.00    +0.000 HD
ENDROOT
BRANCH   1  15
ATOM     12  C   UNL     1       0.987  10.175  19.470  0.00  0.00    +0.000 A 
ATOM     13  C   UNL     1       1.608   9.527  18.403  0.00  0.00    +0.000 A 
ATOM     14  C   UNL     1       2.044   8.210  18.537  0.00  0.00    +0.000 A 
ATOM     15  C   UNL     1       1.865   7.536  19.750  0.00  0.00    +0.000 A 
ATOM     16  C   UNL     1       1.259   8.193  20.828  0.00  0.00    +0.000 A 
ATOM     17  C   UNL     1       0.822   9.515  20.686  0.00  0.00    +0.000 A 
BRANCH  12  18
ATOM     18  O   UNL     1       0.626  11.463  19.214  0.00  0.00    +0.000 OA
BRANCH  18  19
ATOM     19  C   UNL     1       0.004  12.175  20.276  0.00  0.00    +0.000 C 
BRANCH  19  20
ATOM     20  C   UNL     1       1.031  13.107  20.891  0.00  0.00    +0.000 C 
ATOM     21  O   UNL     1       2.156  13.320  20.462  0.00  0.00    +0.000 OA
BRANCH  20  22
ATOM     22  O   UNL     1       0.524  13.626  22.048  0.00  0.00    +0.000 OA
BRANCH  22  24
ATOM     23  C   UNL     1      -1.293  13.955  23.557  0.00  0.00    +0.000 C 
ATOM     24  C   UNL     1      -0.734  13.071  22.456  0.00  0.00    +0.000 C 
ENDBRANCH  22  24
ENDBRANCH  20  22
ENDBRANCH  19  20
ENDBRANCH  18  19
ENDBRANCH  12  18
ENDBRANCH   1  15
BRANCH   7  25
ATOM     25  C   UNL     1       5.442   4.176  17.378  0.00  0.00    +0.000 A 
ATOM     26  C   UNL     1       6.661   4.846  17.557  0.00  0.00    +0.000 A 
ATOM     27  C   UNL     1       7.421   5.241  16.450  0.00  0.00    +0.000 A 
ATOM     28  C   UNL     1       6.982   4.967  15.155  0.00  0.00    +0.000 A 
ATOM     29  C   UNL     1       5.756   4.336  14.968  0.00  0.00    +0.000 A 
ATOM     30  C   UNL     1       4.992   3.938  16.072  0.00  0.00    +0.000 A 
BRANCH  28  31
ATOM     31  O   UNL     1       7.805   5.393  14.149  0.00  0.00    +0.000 OA
ATOM     32  C   UNL     1       7.469   4.921  12.848  0.00  0.00    +0.000 C 
ENDBRANCH  28  31
ENDBRANCH   7  25
TORSDOF 8
ENDMDL
MODEL 7
REMARK VINA RESULT:      -8.1      0.927      1.758
REMARK  Name = 
REMARK  10 active torsions:
REMARK  status: ('A' for Active; 'I' for Inactive)
REMARK    1  A    between atoms: C_1  and  C_2
REMARK    2  A    between atoms: C_2  and  O_3
REMARK    3  A    between atoms: O_3  and  C_4
REMARK    4  A    between atoms: C_4  and  C_6
REMARK    5  A    between atoms: C_6  and  O_7
REMARK    6  A    between atoms: O_7  and  C_8
REMARK    7  A    between atoms: C_11  and  C_12
REMARK    8  A    between atoms: N_18  and  C_19
REMARK    9  A    between atoms: C_22  and  O_23
REMARK   10  A    between atoms: O_23  and  C_24
REMARK                            x       y       z     vdW  Elec       q    Type
REMARK                         _______ _______ _______ _____ _____    ______ ____
ROOT
ATOM      1  C   UNL     1       2.436   6.178  19.969  0.00  0.00    +0.000 A 
ATOM      2  N   UNL     1       3.334   5.748  19.132  0.00  0.00    +0.000 NA
ATOM      3  C   UNL     1       3.753   4.473  19.345  0.00  0.00    +0.000 A 
ATOM      4  C   UNL     1       3.292   3.628  20.323  0.00  0.00    +0.000 A 
ATOM      5  C   UNL     1       3.981   2.432  20.149  0.00  0.00    +0.000 A 
ATOM      6  N   UNL     1       4.831   2.485  19.119  0.00  0.00    +0.000 NA
ATOM      7  N   UNL     1       4.711   3.762  18.624  0.00  0.00    +0.000 N 
ATOM      8  C   UNL     1       2.290   4.093  21.234  0.00  0.00    +0.000 A 
ATOM      9  O   UNL     1       1.806   3.418  22.138  0.00  0.00    +0.000 OA
ATOM     10  N   UNL     1       1.908   5.397  20.994  0.00  0.00    +0.000 N 
ATOM     11  H   UNL     1       1.172   5.739  21.590  0.00  0.00    +0.000 HD
ENDROOT
BRANCH   1  15
ATOM     12  C   UNL     1       0.835  10.135  19.666  0.00  0.00    +0.000 A 
ATOM     13  C   UNL     1       0.749   9.421  20.861  0.00  0.00    +0.000 A 
ATOM     14  C   UNL     1       1.296   8.144  20.960  0.00  0.00    +0.000 A 
ATOM     15  C   UNL     1       1.930   7.568  19.852  0.00  0.00    +0.000 A 
ATOM     16  C   UNL     1       1.999   8.277  18.646  0.00  0.00    +0.000 A 
ATOM     17  C   UNL     1       1.449   9.560  18.554  0.00  0.00    +0.000 A 
BRANCH  12  18
ATOM     18  O   UNL     1       0.245  11.361  19.698  0.00  0.00    +0.000 OA
BRANCH  18  19
ATOM     19  C   UNL     1      -1.114  11.406  20.113  0.00  0.00    +0.000 C 
BRANCH  19  20
ATOM     20  C   UNL     1      -1.948  11.932  18.961  0.00  0.00    +0.000 C 
ATOM     21  O   UNL     1      -1.545  12.166  17.830  0.00  0.00    +0.000 OA
BRANCH  20  22
ATOM     22  O   UNL     1      -3.218  12.169  19.402  0.00  0.00    +0.000 OA
BRANCH  22  24
ATOM     23  C   UNL     1      -4.409  13.802  20.668  0.00  0.00    +0.000 C 
ATOM     24  C   UNL     1      -3.301  12.764  20.704  0.00  0.00    +0.000 C 
ENDBRANCH  22  24
ENDBRANCH  20  22
ENDBRANCH  19  20
ENDBRANCH  18  19
ENDBRANCH  12  18
ENDBRANCH   1  15
BRANCH   7  25
ATOM     25  C   UNL     1       5.508   4.183  17.519  0.00  0.00    +0.000 A 
ATOM     26  C   UNL     1       5.125   3.830  16.217  0.00  0.00    +0.000 A 
ATOM     27  C   UNL     1       5.883   4.249  15.119  0.00  0.00    +0.000 A 
ATOM     28  C   UNL     1       7.023   5.032  15.301  0.00  0.00    +0.000 A 
ATOM     29  C   UNL     1       7.430   5.356  16.592  0.00  0.00    +0.000 A 
ATOM     30  C   UNL     1       6.676   4.939  17.695  0.00  0.00    +0.000 A 
BRANCH  28  31
ATOM     31  O   UNL     1       7.684   5.390  14.158  0.00  0.00    +0.000 OA
ATOM     32  C   UNL     1       7.263   4.715  12.977  0.00  0.00    +0.000 C 
ENDBRANCH  28  31
ENDBRANCH   7  25
TORSDOF 8
ENDMDL
MODEL 8
REMARK VINA RESULT:      -8.1      1.809      3.055
REMARK  Name = 
REMARK  10 active torsions:
REMARK  status: ('A' for Active; 'I' for Inactive)
REMARK    1  A    between atoms: C_1  and  C_2
REMARK    2  A    between atoms: C_2  and  O_3
REMARK    3  A    between atoms: O_3  and  C_4
REMARK    4  A    between atoms: C_4  and  C_6
REMARK    5  A    between atoms: C_6  and  O_7
REMARK    6  A    between atoms: O_7  and  C_8
REMARK    7  A    between atoms: C_11  and  C_12
REMARK    8  A    between atoms: N_18  and  C_19
REMARK    9  A    between atoms: C_22  and  O_23
REMARK   10  A    between atoms: O_23  and  C_24
REMARK                            x       y       z     vdW  Elec       q    Type
REMARK                         _______ _______ _______ _____ _____    ______ ____
ROOT
ATOM      1  C   UNL     1       2.399   6.139  19.956  0.00  0.00    +0.000 A 
ATOM      2  N   UNL     1       3.281   5.720  19.096  0.00  0.00    +0.000 NA
ATOM      3  C   UNL     1       3.735   4.457  19.311  0.00  0.00    +0.000 A 
ATOM      4  C   UNL     1       3.325   3.614  20.313  0.00  0.00    +0.000 A 
ATOM      5  C   UNL     1       4.035   2.431  20.132  0.00  0.00    +0.000 A 
ATOM      6  N   UNL     1       4.851   2.491  19.075  0.00  0.00    +0.000 NA
ATOM      7  N   UNL     1       4.687   3.758  18.569  0.00  0.00    +0.000 N 
ATOM      8  C   UNL     1       2.341   4.067  21.250  0.00  0.00    +0.000 A 
ATOM      9  O   UNL     1       1.901   3.393  22.176  0.00  0.00    +0.000 OA
ATOM     10  N   UNL     1       1.922   5.360  21.006  0.00  0.00    +0.000 N 
ATOM     11  H   UNL     1       1.197   5.692  21.621  0.00  0.00    +0.000 HD
ENDROOT
BRANCH   1  15
ATOM     12  C   UNL     1       0.981  10.159  19.584  0.00  0.00    +0.000 A 
ATOM     13  C   UNL     1       1.575   9.511  18.502  0.00  0.00    +0.000 A 
ATOM     14  C   UNL     1       2.010   8.192  18.623  0.00  0.00    +0.000 A 
ATOM     15  C   UNL     1       1.858   7.516  19.839  0.00  0.00    +0.000 A 
ATOM     16  C   UNL     1       1.280   8.174  20.932  0.00  0.00    +0.000 A 
ATOM     17  C   UNL     1       0.844   9.497  20.803  0.00  0.00    +0.000 A 
BRANCH  12  18
ATOM     18  O   UNL     1       0.619  11.448  19.339  0.00  0.00    +0.000 OA
BRANCH  18  19
ATOM     19  C   UNL     1       0.805  12.377  20.399  0.00  0.00    +0.000 C 
BRANCH  19  20
ATOM     20  C   UNL     1       2.124  13.094  20.179  0.00  0.00    +0.000 C 
ATOM     21  O   UNL     1       2.604  13.400  19.096  0.00  0.00    +0.000 OA
BRANCH  20  22
ATOM     22  O   UNL     1       2.733  13.287  21.386  0.00  0.00    +0.000 OA
BRANCH  22  24
ATOM     23  C   UNL     1       2.363  15.556  22.018  0.00  0.00    +0.000 C 
ATOM     24  C   UNL     1       3.393  14.552  21.530  0.00  0.00    +0.000 C 
ENDBRANCH  22  24
ENDBRANCH  20  22
ENDBRANCH  19  20
ENDBRANCH  18  19
ENDBRANCH  12  18
ENDBRANCH   1  15
BRANCH   7  25
ATOM     25  C   UNL     1       5.439   4.184  17.435  0.00  0.00    +0.000 A 
ATOM     26  C   UNL     1       6.704   4.759  17.622  0.00  0.00    +0.000 A 
ATOM     27  C   UNL     1       7.466   5.165  16.521  0.00  0.00    +0.000 A 
ATOM     28  C   UNL     1       6.984   4.995  15.223  0.00  0.00    +0.000 A 
ATOM     29  C   UNL     1       5.714   4.458  15.031  0.00  0.00    +0.000 A 
ATOM     30  C   UNL     1       4.947   4.051  16.129  0.00  0.00    +0.000 A 
BRANCH  28  31
ATOM     31  O   UNL     1       7.813   5.422  14.223  0.00  0.00    +0.000 OA
ATOM     32  C   UNL     1       7.481   4.957  12.918  0.00  0.00    +0.000 C 
ENDBRANCH  28  31
ENDBRANCH   7  25
TORSDOF 8
ENDMDL
MODEL 9
REMARK VINA RESULT:      -8.1      1.753      2.556
REMARK  Name = 
REMARK  10 active torsions:
REMARK  status: ('A' for Active; 'I' for Inactive)
REMARK    1  A    between atoms: C_1  and  C_2
REMARK    2  A    between atoms: C_2  and  O_3
REMARK    3  A    between atoms: O_3  and  C_4
REMARK    4  A    between atoms: C_4  and  C_6
REMARK    5  A    between atoms: C_6  and  O_7
REMARK    6  A    between atoms: O_7  and  C_8
REMARK    7  A    between atoms: C_11  and  C_12
REMARK    8  A    between atoms: N_18  and  C_19
REMARK    9  A    between atoms: C_22  and  O_23
REMARK   10  A    between atoms: O_23  and  C_24
REMARK                            x       y       z     vdW  Elec       q    Type
REMARK                         _______ _______ _______ _____ _____    ______ ____
ROOT
ATOM      1  C   UNL     1       2.439   6.181  19.967  0.00  0.00    +0.000 A 
ATOM      2  N   UNL     1       3.300   5.755  19.090  0.00  0.00    +0.000 NA
ATOM      3  C   UNL     1       3.721   4.476  19.276  0.00  0.00    +0.000 A 
ATOM      4  C   UNL     1       3.298   3.625  20.267  0.00  0.00    +0.000 A 
ATOM      5  C   UNL     1       3.974   2.427  20.055  0.00  0.00    +0.000 A 
ATOM      6  N   UNL     1       4.780   2.485  18.990  0.00  0.00    +0.000 NA
ATOM      7  N   UNL     1       4.645   3.766  18.511  0.00  0.00    +0.000 N 
ATOM      8  C   UNL     1       2.337   4.087  21.222  0.00  0.00    +0.000 A 
ATOM      9  O   UNL     1       1.888   3.408  22.140  0.00  0.00    +0.000 OA
ATOM     10  N   UNL     1       1.951   5.395  21.007  0.00  0.00    +0.000 N 
ATOM     11  H   UNL     1       1.242   5.735  21.637  0.00  0.00    +0.000 HD
ENDROOT
BRANCH   1  15
ATOM     12  C   UNL     1       0.844  10.147  19.757  0.00  0.00    +0.000 A 
ATOM     13  C   UNL     1       0.775   9.413  20.940  0.00  0.00    +0.000 A 
ATOM     14  C   UNL     1       1.320   8.133  21.009  0.00  0.00    +0.000 A 
ATOM     15  C   UNL     1       1.935   7.575  19.882  0.00  0.00    +0.000 A 
ATOM     16  C   UNL     1       1.988   8.304  18.687  0.00  0.00    +0.000 A 
ATOM     17  C   UNL     1       1.439   9.589  18.626  0.00  0.00    +0.000 A 
BRANCH  12  18
ATOM     18  O   UNL     1       0.258  11.374  19.818  0.00  0.00    +0.000 OA
BRANCH  18  19
ATOM     19  C   UNL     1       0.762  12.274  20.797  0.00  0.00    +0.000 C 
BRANCH  19  20
ATOM     20  C   UNL     1      -0.383  12.681  21.705  0.00  0.00    +0.000 C 
ATOM     21  O   UNL     1      -1.542  12.297  21.617  0.00  0.00    +0.000 OA
BRANCH  20  22
ATOM     22  O   UNL     1       0.068  13.603  22.605  0.00  0.00    +0.000 OA
BRANCH  22  24
ATOM     23  C   UNL     1      -1.358  14.680  24.185  0.00  0.00    +0.000 C 
ATOM     24  C   UNL     1      -0.788  14.742  22.779  0.00  0.00    +0.000 C 
ENDBRANCH  22  24
ENDBRANCH  20  22
ENDBRANCH  19  20
ENDBRANCH  18  19
ENDBRANCH  12  18
ENDBRANCH   1  15
BRANCH   7  25
ATOM     25  C   UNL     1       5.398   4.192  17.377  0.00  0.00    +0.000 A 
ATOM     26  C   UNL     1       6.708   4.659  17.553  0.00  0.00    +0.000 A 
ATOM     27  C   UNL     1       7.469   5.064  16.451  0.00  0.00    +0.000 A 
ATOM     28  C   UNL     1       6.940   5.000  15.162  0.00  0.00    +0.000 A 
ATOM     29  C   UNL     1       5.628   4.572  14.982  0.00  0.00    +0.000 A 
ATOM     30  C   UNL     1       4.862   4.166  16.082  0.00  0.00    +0.000 A 
BRANCH  28  31
ATOM     31  O   UNL     1       7.773   5.415  14.159  0.00  0.00    +0.000 OA
ATOM     32  C   UNL     1       7.487   4.878  12.871  0.00  0.00    +0.000 C 
ENDBRANCH  28  31
ENDBRANCH   7  25
TORSDOF 8
ENDMDL
