MODEL 1
REMARK VINA RESULT:      -7.8      0.000      0.000
REMARK  Name = 
REMARK  15 active torsions:
REMARK  status: ('A' for Active; 'I' for Inactive)
REMARK    1  A    between atoms: C_1  and  C_2
REMARK    2  A    between atoms: C_2  and  N_3
REMARK    3  A    between atoms: N_3  and  C_4
REMARK    4  A    between atoms: N_3  and  C_6
REMARK    5  A    between atoms: C_4  and  C_5
REMARK    6  A    between atoms: C_6  and  C_7
REMARK    7  A    between atoms: C_7  and  C_8
REMARK    8  A    between atoms: C_8  and  N_9
REMARK    9  A    between atoms: N_9  and  C_10
REMARK   10  A    between atoms: C_12  and  C_13
REMARK   11  A    between atoms: C_14  and  C_15
REMARK   12  A    between atoms: C_25  and  O_26
REMARK   13  A    between atoms: O_26  and  C_27
REMARK   14  A    between atoms: C_28  and  O_29
REMARK   15  A    between atoms: O_29  and  C_30
REMARK                            x       y       z     vdW  Elec       q    Type
REMARK                         _______ _______ _______ _____ _____    ______ ____
ROOT
ATOM      1  C   UNL     1       7.001   5.617  16.472  0.00  0.00    +0.000 A 
ATOM      2  N   UNL     1       7.672   6.775  16.617  0.00  0.00    +0.000 NA
ATOM      3  C   UNL     1       7.131   7.676  17.431  0.00  0.00    +0.000 A 
ATOM      4  N   UNL     1       5.967   7.556  18.085  0.00  0.00    +0.000 NA
ATOM      5  C   UNL     1       5.302   6.408  17.932  0.00  0.00    +0.000 A 
ATOM      6  C   UNL     1       4.087   6.220  18.588  0.00  0.00    +0.000 A 
ATOM      7  C   UNL     1       3.305   5.038  18.501  0.00  0.00    +0.000 A 
ATOM      8  C   UNL     1       3.792   3.987  17.736  0.00  0.00    +0.000 A 
ATOM      9  C   UNL     1       5.019   4.187  17.066  0.00  0.00    +0.000 A 
ATOM     10  C   UNL     1       5.777   5.379  17.131  0.00  0.00    +0.000 A 
ENDROOT
BRANCH   1  11
ATOM     11  N   UNL     1       7.497   4.666  15.548  0.00  0.00    +0.000 N 
ATOM     12  H   UNL     1       8.509   4.661  15.571  0.00  0.00    +0.000 HD
BRANCH  11  13
ATOM     13  C   UNL     1       7.052   4.883  14.166  0.00  0.00    +0.000 C 
BRANCH  13  14
ATOM     14  C   UNL     1       6.164   3.707  13.754  0.00  0.00    +0.000 C 
BRANCH  14  15
ATOM     15  C   UNL     1       5.923   3.634  12.239  0.00  0.00    +0.000 C 
BRANCH  15  16
ATOM     16  N   UNL     1       5.006   2.560  11.804  0.00  0.00    +0.000 NA
BRANCH  16  18
ATOM     17  C   UNL     1       3.684   3.767  10.005  0.00  0.00    +0.000 C 
ATOM     18  C   UNL     1       3.706   3.105  11.378  0.00  0.00    +0.000 C 
ENDBRANCH  16  18
BRANCH  16  19
ATOM     19  C   UNL     1       5.641   1.684  10.799  0.00  0.00    +0.000 C 
ATOM     20  C   UNL     1       7.105   1.323  11.040  0.00  0.00    +0.000 C 
ENDBRANCH  16  19
ENDBRANCH  15  16
ENDBRANCH  14  15
ENDBRANCH  13  14
ENDBRANCH  11  13
ENDBRANCH   1  11
BRANCH   3  21
ATOM     21  C   UNL     1       7.912   8.918  17.629  0.00  0.00    +0.000 C 
ATOM     22  C   UNL     1       8.622   9.174  18.742  0.00  0.00    +0.000 C 
BRANCH  22  23
ATOM     23  C   UNL     1       9.449  10.361  18.976  0.00  0.00    +0.000 A 
ATOM     24  C   UNL     1       9.869  10.759  20.255  0.00  0.00    +0.000 A 
ATOM     25  C   UNL     1      10.703  11.872  20.416  0.00  0.00    +0.000 A 
ATOM     26  C   UNL     1      11.120  12.583  19.298  0.00  0.00    +0.000 A 
ATOM     27  F   UNL     1      11.922  13.645  19.452  0.00  0.00    +0.000 F 
ATOM     28  C   UNL     1      10.727  12.201  18.023  0.00  0.00    +0.000 A 
ATOM     29  C   UNL     1       9.898  11.091  17.862  0.00  0.00    +0.000 A 
ENDBRANCH  22  23
ENDBRANCH   3  21
BRANCH   7  30
ATOM     30  O   UNL     1       2.099   5.225  19.114  0.00  0.00    +0.000 OA
ATOM     31  C   UNL     1       2.001   5.327  20.520  0.00  0.00    +0.000 C 
ENDBRANCH   7  30
BRANCH   8  32
ATOM     32  O   UNL     1       3.364   2.744  17.404  0.00  0.00    +0.000 OA
ATOM     33  C   UNL     1       2.201   2.112  17.865  0.00  0.00    +0.000 C 
ENDBRANCH   8  32
TORSDOF 11
ENDMDL
MODEL 2
REMARK VINA RESULT:      -7.5      5.364      7.953
REMARK  Name = 
REMARK  15 active torsions:
REMARK  status: ('A' for Active; 'I' for Inactive)
REMARK    1  A    between atoms: C_1  and  C_2
REMARK    2  A    between atoms: C_2  and  N_3
REMARK    3  A    between atoms: N_3  and  C_4
REMARK    4  A    between atoms: N_3  and  C_6
REMARK    5  A    between atoms: C_4  and  C_5
REMARK    6  A    between atoms: C_6  and  C_7
REMARK    7  A    between atoms: C_7  and  C_8
REMARK    8  A    between atoms: C_8  and  N_9
REMARK    9  A    between atoms: N_9  and  C_10
REMARK   10  A    between atoms: C_12  and  C_13
REMARK   11  A    between atoms: C_14  and  C_15
REMARK   12  A    between atoms: C_25  and  O_26
REMARK   13  A    between atoms: O_26  and  C_27
REMARK   14  A    between atoms: C_28  and  O_29
REMARK   15  A    between atoms: O_29  and  C_30
REMARK                            x       y       z     vdW  Elec       q    Type
REMARK                         _______ _______ _______ _____ _____    ______ ____
ROOT
ATOM      1  C   UNL     1       2.656   6.299  19.851  0.00  0.00    +0.000 A 
ATOM      2  N   UNL     1       3.407   6.014  18.771  0.00  0.00    +0.000 NA
ATOM      3  C   UNL     1       3.460   6.944  17.822  0.00  0.00    +0.000 A 
ATOM      4  N   UNL     1       2.807   8.115  17.823  0.00  0.00    +0.000 NA
ATOM      5  C   UNL     1       2.057   8.389  18.894  0.00  0.00    +0.000 A 
ATOM      6  C   UNL     1       1.356   9.592  18.957  0.00  0.00    +0.000 A 
ATOM      7  C   UNL     1       0.539   9.985  20.049  0.00  0.00    +0.000 A 
ATOM      8  C   UNL     1       0.452   9.132  21.141  0.00  0.00    +0.000 A 
ATOM      9  C   UNL     1       1.158   7.911  21.067  0.00  0.00    +0.000 A 
ATOM     10  C   UNL     1       1.944   7.511  19.962  0.00  0.00    +0.000 A 
ENDROOT
BRANCH   1  11
ATOM     11  N   UNL     1       2.503   5.301  20.844  0.00  0.00    +0.000 N 
ATOM     12  H   UNL     1       3.317   4.699  20.854  0.00  0.00    +0.000 HD
BRANCH  11  13
ATOM     13  C   UNL     1       1.300   4.474  20.683  0.00  0.00    +0.000 C 
BRANCH  13  14
ATOM     14  C   UNL     1       1.464   3.213  21.533  0.00  0.00    +0.000 C 
BRANCH  14  15
ATOM     15  C   UNL     1       2.480   2.219  20.949  0.00  0.00    +0.000 C 
BRANCH  15  16
ATOM     16  N   UNL     1       3.149   2.667  19.709  0.00  0.00    +0.000 NA
BRANCH  16  18
ATOM     17  C   UNL     1       5.089   1.462  20.815  0.00  0.00    +0.000 C 
ATOM     18  C   UNL     1       4.608   2.484  19.791  0.00  0.00    +0.000 C 
ENDBRANCH  16  18
BRANCH  16  19
ATOM     19  C   UNL     1       2.539   2.050  18.515  0.00  0.00    +0.000 C 
ATOM     20  C   UNL     1       2.209   2.991  17.357  0.00  0.00    +0.000 C 
ENDBRANCH  16  19
ENDBRANCH  15  16
ENDBRANCH  14  15
ENDBRANCH  13  14
ENDBRANCH  11  13
ENDBRANCH   1  11
BRANCH   3  21
ATOM     21  C   UNL     1       4.341   6.642  16.671  0.00  0.00    +0.000 C 
ATOM     22  C   UNL     1       4.669   5.392  16.301  0.00  0.00    +0.000 C 
BRANCH  22  23
ATOM     23  C   UNL     1       5.496   5.030  15.148  0.00  0.00    +0.000 A 
ATOM     24  C   UNL     1       6.823   5.460  14.994  0.00  0.00    +0.000 A 
ATOM     25  C   UNL     1       7.585   5.040  13.897  0.00  0.00    +0.000 A 
ATOM     26  C   UNL     1       7.022   4.186  12.957  0.00  0.00    +0.000 A 
ATOM     27  F   UNL     1       7.753   3.781  11.911  0.00  0.00    +0.000 F 
ATOM     28  C   UNL     1       5.716   3.739  13.094  0.00  0.00    +0.000 A 
ATOM     29  C   UNL     1       4.956   4.156  14.188  0.00  0.00    +0.000 A 
ENDBRANCH  22  23
ENDBRANCH   3  21
BRANCH   7  30
ATOM     30  O   UNL     1      -0.143  11.127  19.739  0.00  0.00    +0.000 OA
ATOM     31  C   UNL     1       0.484  12.393  19.798  0.00  0.00    +0.000 C 
ENDBRANCH   7  30
BRANCH   8  32
ATOM     32  O   UNL     1      -0.200   9.135  22.329  0.00  0.00    +0.000 OA
ATOM     33  C   UNL     1      -0.654  10.263  23.028  0.00  0.00    +0.000 C 
ENDBRANCH   8  32
TORSDOF 11
ENDMDL
MODEL 3
REMARK VINA RESULT:      -7.5      5.327      7.741
REMARK  Name = 
REMARK  15 active torsions:
REMARK  status: ('A' for Active; 'I' for Inactive)
REMARK    1  A    between atoms: C_1  and  C_2
REMARK    2  A    between atoms: C_2  and  N_3
REMARK    3  A    between atoms: N_3  and  C_4
REMARK    4  A    between atoms: N_3  and  C_6
REMARK    5  A    between atoms: C_4  and  C_5
REMARK    6  A    between atoms: C_6  and  C_7
REMARK    7  A    between atoms: C_7  and  C_8
REMARK    8  A    between atoms: C_8  and  N_9
REMARK    9  A    between atoms: N_9  and  C_10
REMARK   10  A    between atoms: C_12  and  C_13
REMARK   11  A    between atoms: C_14  and  C_15
REMARK   12  A    between atoms: C_25  and  O_26
REMARK   13  A    between atoms: O_26  and  C_27
REMARK   14  A    between atoms: C_28  and  O_29
REMARK   15  A    between atoms: O_29  and  C_30
REMARK                            x       y       z     vdW  Elec       q    Type
REMARK                         _______ _______ _______ _____ _____    ______ ____
ROOT
ATOM      1  C   UNL     1       2.672   6.552  19.832  0.00  0.00    +0.000 A 
ATOM      2  N   UNL     1       3.463   6.220  18.795  0.00  0.00    +0.000 NA
ATOM      3  C   UNL     1       3.493   7.072  17.774  0.00  0.00    +0.000 A 
ATOM      4  N   UNL     1       2.783   8.203  17.666  0.00  0.00    +0.000 NA
ATOM      5  C   UNL     1       1.994   8.524  18.695  0.00  0.00    +0.000 A 
ATOM      6  C   UNL     1       1.232   9.690  18.645  0.00  0.00    +0.000 A 
ATOM      7  C   UNL     1       0.369  10.127  19.684  0.00  0.00    +0.000 A 
ATOM      8  C   UNL     1       0.298   9.362  20.840  0.00  0.00    +0.000 A 
ATOM      9  C   UNL     1       1.066   8.177  20.881  0.00  0.00    +0.000 A 
ATOM     10  C   UNL     1       1.898   7.730  19.829  0.00  0.00    +0.000 A 
ENDROOT
BRANCH   1  11
ATOM     11  N   UNL     1       2.545   5.630  20.899  0.00  0.00    +0.000 N 
ATOM     12  H   UNL     1       3.405   5.109  21.007  0.00  0.00    +0.000 HD
BRANCH  11  13
ATOM     13  C   UNL     1       1.431   4.687  20.748  0.00  0.00    +0.000 C 
BRANCH  13  14
ATOM     14  C   UNL     1       1.956   3.273  21.004  0.00  0.00    +0.000 C 
BRANCH  14  15
ATOM     15  C   UNL     1       1.733   2.323  19.817  0.00  0.00    +0.000 C 
BRANCH  15  16
ATOM     16  N   UNL     1       2.952   1.983  19.054  0.00  0.00    +0.000 NA
BRANCH  16  18
ATOM     17  C   UNL     1       1.710   3.446  17.393  0.00  0.00    +0.000 C 
ATOM     18  C   UNL     1       2.945   2.614  17.723  0.00  0.00    +0.000 C 
ENDBRANCH  16  18
BRANCH  16  19
ATOM     19  C   UNL     1       4.172   2.260  19.836  0.00  0.00    +0.000 C 
ATOM     20  C   UNL     1       5.076   3.376  19.314  0.00  0.00    +0.000 C 
ENDBRANCH  16  19
ENDBRANCH  15  16
ENDBRANCH  14  15
ENDBRANCH  13  14
ENDBRANCH  11  13
ENDBRANCH   1  11
BRANCH   3  21
ATOM     21  C   UNL     1       4.416   6.724  16.670  0.00  0.00    +0.000 C 
ATOM     22  C   UNL     1       4.590   5.469  16.221  0.00  0.00    +0.000 C 
BRANCH  22  23
ATOM     23  C   UNL     1       5.452   5.070  15.106  0.00  0.00    +0.000 A 
ATOM     24  C   UNL     1       6.764   5.543  14.947  0.00  0.00    +0.000 A 
ATOM     25  C   UNL     1       7.562   5.087  13.891  0.00  0.00    +0.000 A 
ATOM     26  C   UNL     1       7.050   4.155  12.997  0.00  0.00    +0.000 A 
ATOM     27  F   UNL     1       7.815   3.716  11.990  0.00  0.00    +0.000 F 
ATOM     28  C   UNL     1       5.759   3.666  13.141  0.00  0.00    +0.000 A 
ATOM     29  C   UNL     1       4.964   4.117  14.194  0.00  0.00    +0.000 A 
ENDBRANCH  22  23
ENDBRANCH   3  21
BRANCH   7  30
ATOM     30  O   UNL     1      -0.361  11.204  19.268  0.00  0.00    +0.000 OA
ATOM     31  C   UNL     1      -0.629  12.287  20.135  0.00  0.00    +0.000 C 
ENDBRANCH   7  30
BRANCH   8  32
ATOM     32  O   UNL     1      -0.382   9.427  22.011  0.00  0.00    +0.000 OA
ATOM     33  C   UNL     1       0.175   9.516  23.294  0.00  0.00    +0.000 C 
ENDBRANCH   8  32
TORSDOF 11
ENDMDL
MODEL 4
REMARK VINA RESULT:      -7.4      5.309      7.860
REMARK  Name = 
REMARK  15 active torsions:
REMARK  status: ('A' for Active; 'I' for Inactive)
REMARK    1  A    between atoms: C_1  and  C_2
REMARK    2  A    between atoms: C_2  and  N_3
REMARK    3  A    between atoms: N_3  and  C_4
REMARK    4  A    between atoms: N_3  and  C_6
REMARK    5  A    between atoms: C_4  and  C_5
REMARK    6  A    between atoms: C_6  and  C_7
REMARK    7  A    between atoms: C_7  and  C_8
REMARK    8  A    between atoms: C_8  and  N_9
REMARK    9  A    between atoms: N_9  and  C_10
REMARK   10  A    between atoms: C_12  and  C_13
REMARK   11  A    between atoms: C_14  and  C_15
REMARK   12  A    between atoms: C_25  and  O_26
REMARK   13  A    between atoms: O_26  and  C_27
REMARK   14  A    between atoms: C_28  and  O_29
REMARK   15  A    between atoms: O_29  and  C_30
REMARK                            x       y       z     vdW  Elec       q    Type
REMARK                         _______ _______ _______ _____ _____    ______ ____
ROOT
ATOM      1  C   UNL     1       3.052   6.498  19.457  0.00  0.00    +0.000 A 
ATOM      2  N   UNL     1       3.813   6.078  18.430  0.00  0.00    +0.000 NA
ATOM      3  C   UNL     1       3.848   6.863  17.357  0.00  0.00    +0.000 A 
ATOM      4  N   UNL     1       3.168   8.005  17.188  0.00  0.00    +0.000 NA
ATOM      5  C   UNL     1       2.408   8.413  18.208  0.00  0.00    +0.000 A 
ATOM      6  C   UNL     1       1.678   9.596  18.097  0.00  0.00    +0.000 A 
ATOM      7  C   UNL     1       0.848  10.123  19.121  0.00  0.00    +0.000 A 
ATOM      8  C   UNL     1       0.777   9.435  20.324  0.00  0.00    +0.000 A 
ATOM      9  C   UNL     1       1.512   8.233  20.428  0.00  0.00    +0.000 A 
ATOM     10  C   UNL     1       2.311   7.696  19.392  0.00  0.00    +0.000 A 
ENDROOT
BRANCH   1  11
ATOM     11  N   UNL     1       2.918   5.650  20.584  0.00  0.00    +0.000 N 
ATOM     12  H   UNL     1       3.633   4.933  20.560  0.00  0.00    +0.000 HD
BRANCH  11  13
ATOM     13  C   UNL     1       1.603   5.010  20.700  0.00  0.00    +0.000 C 
BRANCH  13  14
ATOM     14  C   UNL     1       1.789   3.637  21.349  0.00  0.00    +0.000 C 
BRANCH  14  15
ATOM     15  C   UNL     1       2.072   2.522  20.330  0.00  0.00    +0.000 C 
BRANCH  15  16
ATOM     16  N   UNL     1       2.850   2.941  19.146  0.00  0.00    +0.000 NA
BRANCH  16  18
ATOM     17  C   UNL     1       4.713   1.857  20.486  0.00  0.00    +0.000 C 
ATOM     18  C   UNL     1       4.184   2.318  19.132  0.00  0.00    +0.000 C 
ENDBRANCH  16  18
BRANCH  16  19
ATOM     19  C   UNL     1       2.086   2.737  17.900  0.00  0.00    +0.000 C 
ATOM     20  C   UNL     1       1.359   3.959  17.340  0.00  0.00    +0.000 C 
ENDBRANCH  16  19
ENDBRANCH  15  16
ENDBRANCH  14  15
ENDBRANCH  13  14
ENDBRANCH  11  13
ENDBRANCH   1  11
BRANCH   3  21
ATOM     21  C   UNL     1       4.740   6.419  16.262  0.00  0.00    +0.000 C 
ATOM     22  C   UNL     1       4.702   5.182  15.735  0.00  0.00    +0.000 C 
BRANCH  22  23
ATOM     23  C   UNL     1       5.525   4.700  14.623  0.00  0.00    +0.000 A 
ATOM     24  C   UNL     1       5.053   3.795  13.660  0.00  0.00    +0.000 A 
ATOM     25  C   UNL     1       5.866   3.408  12.587  0.00  0.00    +0.000 A 
ATOM     26  C   UNL     1       7.148   3.930  12.476  0.00  0.00    +0.000 A 
ATOM     27  F   UNL     1       7.923   3.564  11.447  0.00  0.00    +0.000 F 
ATOM     28  C   UNL     1       7.632   4.835  13.410  0.00  0.00    +0.000 A 
ATOM     29  C   UNL     1       6.822   5.223  14.477  0.00  0.00    +0.000 A 
ENDBRANCH  22  23
ENDBRANCH   3  21
BRANCH   7  30
ATOM     30  O   UNL     1       0.141  11.192  18.649  0.00  0.00    +0.000 OA
ATOM     31  C   UNL     1      -1.258  11.120  18.462  0.00  0.00    +0.000 C 
ENDBRANCH   7  30
BRANCH   8  32
ATOM     32  O   UNL     1       0.121   9.594  21.499  0.00  0.00    +0.000 OA
ATOM     33  C   UNL     1      -0.459   8.579  22.274  0.00  0.00    +0.000 C 
ENDBRANCH   8  32
TORSDOF 11
ENDMDL
MODEL 5
REMARK VINA RESULT:      -7.3      1.069      1.379
REMARK  Name = 
REMARK  15 active torsions:
REMARK  status: ('A' for Active; 'I' for Inactive)
REMARK    1  A    between atoms: C_1  and  C_2
REMARK    2  A    between atoms: C_2  and  N_3
REMARK    3  A    between atoms: N_3  and  C_4
REMARK    4  A    between atoms: N_3  and  C_6
REMARK    5  A    between atoms: C_4  and  C_5
REMARK    6  A    between atoms: C_6  and  C_7
REMARK    7  A    between atoms: C_7  and  C_8
REMARK    8  A    between atoms: C_8  and  N_9
REMARK    9  A    between atoms: N_9  and  C_10
REMARK   10  A    between atoms: C_12  and  C_13
REMARK   11  A    between atoms: C_14  and  C_15
REMARK   12  A    between atoms: C_25  and  O_26
REMARK   13  A    between atoms: O_26  and  C_27
REMARK   14  A    between atoms: C_28  and  O_29
REMARK   15  A    between atoms: O_29  and  C_30
REMARK                            x       y       z     vdW  Elec       q    Type
REMARK                         _______ _______ _______ _____ _____    ______ ____
ROOT
ATOM      1  C   UNL     1       6.242   5.704  15.971  0.00  0.00    +0.000 A 
ATOM      2  N   UNL     1       6.967   6.827  16.125  0.00  0.00    +0.000 NA
ATOM      3  C   UNL     1       7.102   7.281  17.368  0.00  0.00    +0.000 A 
ATOM      4  N   UNL     1       6.552   6.751  18.469  0.00  0.00    +0.000 NA
ATOM      5  C   UNL     1       5.827   5.640  18.309  0.00  0.00    +0.000 A 
ATOM      6  C   UNL     1       5.232   5.037  19.415  0.00  0.00    +0.000 A 
ATOM      7  C   UNL     1       4.451   3.853  19.357  0.00  0.00    +0.000 A 
ATOM      8  C   UNL     1       4.289   3.236  18.125  0.00  0.00    +0.000 A 
ATOM      9  C   UNL     1       4.887   3.856  17.006  0.00  0.00    +0.000 A 
ATOM     10  C   UNL     1       5.637   5.053  17.066  0.00  0.00    +0.000 A 
ENDROOT
BRANCH   1  11
ATOM     11  N   UNL     1       6.003   5.236  14.656  0.00  0.00    +0.000 N 
ATOM     12  H   UNL     1       5.158   4.680  14.638  0.00  0.00    +0.000 HD
BRANCH  11  13
ATOM     13  C   UNL     1       7.105   4.450  14.088  0.00  0.00    +0.000 C 
BRANCH  13  14
ATOM     14  C   UNL     1       7.153   4.704  12.580  0.00  0.00    +0.000 C 
BRANCH  14  15
ATOM     15  C   UNL     1       7.110   3.414  11.748  0.00  0.00    +0.000 C 
BRANCH  15  16
ATOM     16  N   UNL     1       5.884   2.606  11.914  0.00  0.00    +0.000 NA
BRANCH  16  18
ATOM     17  C   UNL     1       3.707   3.179  10.742  0.00  0.00    +0.000 C 
ATOM     18  C   UNL     1       4.678   3.451  11.885  0.00  0.00    +0.000 C 
ENDBRANCH  16  18
BRANCH  16  19
ATOM     19  C   UNL     1       5.845   1.484  10.956  0.00  0.00    +0.000 C 
ATOM     20  C   UNL     1       6.261   0.116  11.495  0.00  0.00    +0.000 C 
ENDBRANCH  16  19
ENDBRANCH  15  16
ENDBRANCH  14  15
ENDBRANCH  13  14
ENDBRANCH  11  13
ENDBRANCH   1  11
BRANCH   3  21
ATOM     21  C   UNL     1       7.954   8.481  17.528  0.00  0.00    +0.000 C 
ATOM     22  C   UNL     1       8.379   8.931  18.722  0.00  0.00    +0.000 C 
BRANCH  22  23
ATOM     23  C   UNL     1       9.259  10.081  18.940  0.00  0.00    +0.000 A 
ATOM     24  C   UNL     1       9.930  10.738  17.897  0.00  0.00    +0.000 A 
ATOM     25  C   UNL     1      10.717  11.867  18.156  0.00  0.00    +0.000 A 
ATOM     26  C   UNL     1      10.828  12.341  19.456  0.00  0.00    +0.000 A 
ATOM     27  F   UNL     1      11.576  13.424  19.703  0.00  0.00    +0.000 F 
ATOM     28  C   UNL     1      10.164  11.715  20.502  0.00  0.00    +0.000 A 
ATOM     29  C   UNL     1       9.378  10.592  20.244  0.00  0.00    +0.000 A 
ENDBRANCH  22  23
ENDBRANCH   3  21
BRANCH   7  30
ATOM     30  O   UNL     1       3.870   3.613  20.570  0.00  0.00    +0.000 OA
ATOM     31  C   UNL     1       2.562   4.064  20.858  0.00  0.00    +0.000 C 
ENDBRANCH   7  30
BRANCH   8  32
ATOM     32  O   UNL     1       3.639   2.140  17.663  0.00  0.00    +0.000 OA
ATOM     33  C   UNL     1       2.271   1.864  17.797  0.00  0.00    +0.000 C 
ENDBRANCH   8  32
TORSDOF 11
ENDMDL
MODEL 6
REMARK VINA RESULT:      -7.3      0.536      1.611
REMARK  Name = 
REMARK  15 active torsions:
REMARK  status: ('A' for Active; 'I' for Inactive)
REMARK    1  A    between atoms: C_1  and  C_2
REMARK    2  A    between atoms: C_2  and  N_3
REMARK    3  A    between atoms: N_3  and  C_4
REMARK    4  A    between atoms: N_3  and  C_6
REMARK    5  A    between atoms: C_4  and  C_5
REMARK    6  A    between atoms: C_6  and  C_7
REMARK    7  A    between atoms: C_7  and  C_8
REMARK    8  A    between atoms: C_8  and  N_9
REMARK    9  A    between atoms: N_9  and  C_10
REMARK   10  A    between atoms: C_12  and  C_13
REMARK   11  A    between atoms: C_14  and  C_15
REMARK   12  A    between atoms: C_25  and  O_26
REMARK   13  A    between atoms: O_26  and  C_27
REMARK   14  A    between atoms: C_28  and  O_29
REMARK   15  A    between atoms: O_29  and  C_30
REMARK                            x       y       z     vdW  Elec       q    Type
REMARK                         _______ _______ _______ _____ _____    ______ ____
ROOT
ATOM      1  C   UNL     1       6.979   5.407  16.393  0.00  0.00    +0.000 A 
ATOM      2  N   UNL     1       7.634   6.578  16.508  0.00  0.00    +0.000 NA
ATOM      3  C   UNL     1       7.186   7.420  17.435  0.00  0.00    +0.000 A 
ATOM      4  N   UNL     1       6.125   7.230  18.231  0.00  0.00    +0.000 NA
ATOM      5  C   UNL     1       5.474   6.070  18.107  0.00  0.00    +0.000 A 
ATOM      6  C   UNL     1       4.364   5.811  18.909  0.00  0.00    +0.000 A 
ATOM      7  C   UNL     1       3.608   4.610  18.864  0.00  0.00    +0.000 A 
ATOM      8  C   UNL     1       4.012   3.616  17.985  0.00  0.00    +0.000 A 
ATOM      9  C   UNL     1       5.132   3.887  17.169  0.00  0.00    +0.000 A 
ATOM     10  C   UNL     1       5.862   5.099  17.196  0.00  0.00    +0.000 A 
ENDROOT
BRANCH   1  11
ATOM     11  N   UNL     1       7.369   4.520  15.361  0.00  0.00    +0.000 N 
ATOM     12  H   UNL     1       7.767   5.043  14.591  0.00  0.00    +0.000 HD
BRANCH  11  13
ATOM     13  C   UNL     1       6.282   3.675  14.853  0.00  0.00    +0.000 C 
BRANCH  13  14
ATOM     14  C   UNL     1       5.701   4.335  13.601  0.00  0.00    +0.000 C 
BRANCH  14  15
ATOM     15  C   UNL     1       6.380   3.872  12.303  0.00  0.00    +0.000 C 
BRANCH  15  16
ATOM     16  N   UNL     1       5.525   3.069  11.405  0.00  0.00    +0.000 NA
BRANCH  16  18
ATOM     17  C   UNL     1       6.969   1.054  10.860  0.00  0.00    +0.000 C 
ATOM     18  C   UNL     1       5.759   1.626  11.590  0.00  0.00    +0.000 C 
ENDBRANCH  16  18
BRANCH  16  19
ATOM     19  C   UNL     1       4.106   3.460  11.519  0.00  0.00    +0.000 C 
ATOM     20  C   UNL     1       3.383   3.786  10.214  0.00  0.00    +0.000 C 
ENDBRANCH  16  19
ENDBRANCH  15  16
ENDBRANCH  14  15
ENDBRANCH  13  14
ENDBRANCH  11  13
ENDBRANCH   1  11
BRANCH   3  21
ATOM     21  C   UNL     1       7.956   8.675  17.593  0.00  0.00    +0.000 C 
ATOM     22  C   UNL     1       8.598   9.010  18.726  0.00  0.00    +0.000 C 
BRANCH  22  23
ATOM     23  C   UNL     1       9.410  10.211  18.926  0.00  0.00    +0.000 A 
ATOM     24  C   UNL     1       9.985  10.930  17.867  0.00  0.00    +0.000 A 
ATOM     25  C   UNL     1      10.710  12.103  18.113  0.00  0.00    +0.000 A 
ATOM     26  C   UNL     1      10.854  12.560  19.417  0.00  0.00    +0.000 A 
ATOM     27  F   UNL     1      11.542  13.684  19.651  0.00  0.00    +0.000 F 
ATOM     28  C   UNL     1      10.284  11.871  20.479  0.00  0.00    +0.000 A 
ATOM     29  C   UNL     1       9.561  10.704  20.235  0.00  0.00    +0.000 A 
ENDBRANCH  22  23
ENDBRANCH   3  21
BRANCH   7  30
ATOM     30  O   UNL     1       2.492   4.729  19.642  0.00  0.00    +0.000 OA
ATOM     31  C   UNL     1       2.156   5.956  20.259  0.00  0.00    +0.000 C 
ENDBRANCH   7  30
BRANCH   8  32
ATOM     32  O   UNL     1       3.575   2.378  17.647  0.00  0.00    +0.000 OA
ATOM     33  C   UNL     1       2.287   1.864  17.855  0.00  0.00    +0.000 C 
ENDBRANCH   8  32
TORSDOF 11
ENDMDL
MODEL 7
REMARK VINA RESULT:      -7.3      2.297      5.650
REMARK  Name = 
REMARK  15 active torsions:
REMARK  status: ('A' for Active; 'I' for Inactive)
REMARK    1  A    between atoms: C_1  and  C_2
REMARK    2  A    between atoms: C_2  and  N_3
REMARK    3  A    between atoms: N_3  and  C_4
REMARK    4  A    between atoms: N_3  and  C_6
REMARK    5  A    between atoms: C_4  and  C_5
REMARK    6  A    between atoms: C_6  and  C_7
REMARK    7  A    between atoms: C_7  and  C_8
REMARK    8  A    between atoms: C_8  and  N_9
REMARK    9  A    between atoms: N_9  and  C_10
REMARK   10  A    between atoms: C_12  and  C_13
REMARK   11  A    between atoms: C_14  and  C_15
REMARK   12  A    between atoms: C_25  and  O_26
REMARK   13  A    between atoms: O_26  and  C_27
REMARK   14  A    between atoms: C_28  and  O_29
REMARK   15  A    between atoms: O_29  and  C_30
REMARK                            x       y       z     vdW  Elec       q    Type
REMARK                         _______ _______ _______ _____ _____    ______ ____
ROOT
ATOM      1  C   UNL     1       5.165   5.672  16.729  0.00  0.00    +0.000 A 
ATOM      2  N   UNL     1       5.918   6.454  17.525  0.00  0.00    +0.000 NA
ATOM      3  C   UNL     1       7.128   6.771  17.071  0.00  0.00    +0.000 A 
ATOM      4  N   UNL     1       7.679   6.353  15.923  0.00  0.00    +0.000 NA
ATOM      5  C   UNL     1       6.929   5.571  15.141  0.00  0.00    +0.000 A 
ATOM      6  C   UNL     1       7.442   5.107  13.931  0.00  0.00    +0.000 A 
ATOM      7  C   UNL     1       6.729   4.281  13.024  0.00  0.00    +0.000 A 
ATOM      8  C   UNL     1       5.424   3.932  13.345  0.00  0.00    +0.000 A 
ATOM      9  C   UNL     1       4.912   4.398  14.576  0.00  0.00    +0.000 A 
ATOM     10  C   UNL     1       5.640   5.194  15.490  0.00  0.00    +0.000 A 
ENDROOT
BRANCH   1  11
ATOM     11  N   UNL     1       3.906   5.241  17.212  0.00  0.00    +0.000 N 
ATOM     12  H   UNL     1       3.270   5.102  16.437  0.00  0.00    +0.000 HD
BRANCH  11  13
ATOM     13  C   UNL     1       3.288   6.156  18.179  0.00  0.00    +0.000 C 
BRANCH  13  14
ATOM     14  C   UNL     1       2.254   5.375  18.992  0.00  0.00    +0.000 C 
BRANCH  14  15
ATOM     15  C   UNL     1       1.696   4.154  18.245  0.00  0.00    +0.000 C 
BRANCH  15  16
ATOM     16  N   UNL     1       1.617   2.916  19.047  0.00  0.00    +0.000 NA
BRANCH  16  18
ATOM     17  C   UNL     1       3.573   1.668  18.016  0.00  0.00    +0.000 C 
ATOM     18  C   UNL     1       2.949   2.320  19.246  0.00  0.00    +0.000 C 
ENDBRANCH  16  18
BRANCH  16  19
ATOM     19  C   UNL     1       0.870   3.132  20.301  0.00  0.00    +0.000 C 
ATOM     20  C   UNL     1       1.580   2.730  21.593  0.00  0.00    +0.000 C 
ENDBRANCH  16  19
ENDBRANCH  15  16
ENDBRANCH  14  15
ENDBRANCH  13  14
ENDBRANCH  11  13
ENDBRANCH   1  11
BRANCH   3  21
ATOM     21  C   UNL     1       7.920   7.682  17.929  0.00  0.00    +0.000 C 
ATOM     22  C   UNL     1       8.146   8.972  17.623  0.00  0.00    +0.000 C 
BRANCH  22  23
ATOM     23  C   UNL     1       8.880   9.932  18.451  0.00  0.00    +0.000 A 
ATOM     24  C   UNL     1       8.892   9.879  19.853  0.00  0.00    +0.000 A 
ATOM     25  C   UNL     1       9.655  10.791  20.594  0.00  0.00    +0.000 A 
ATOM     26  C   UNL     1      10.409  11.751  19.931  0.00  0.00    +0.000 A 
ATOM     27  F   UNL     1      11.142  12.619  20.639  0.00  0.00    +0.000 F 
ATOM     28  C   UNL     1      10.421  11.815  18.545  0.00  0.00    +0.000 A 
ATOM     29  C   UNL     1       9.663  10.906  17.807  0.00  0.00    +0.000 A 
ENDBRANCH  22  23
ENDBRANCH   3  21
BRANCH   7  30
ATOM     30  O   UNL     1       7.556   3.859  12.022  0.00  0.00    +0.000 OA
ATOM     31  C   UNL     1       7.432   2.566  11.465  0.00  0.00    +0.000 C 
ENDBRANCH   7  30
BRANCH   8  32
ATOM     32  O   UNL     1       4.448   3.184  12.774  0.00  0.00    +0.000 OA
ATOM     33  C   UNL     1       4.039   3.230  11.434  0.00  0.00    +0.000 C 
ENDBRANCH   8  32
TORSDOF 11
ENDMDL
MODEL 8
REMARK VINA RESULT:      -7.1      4.406      5.839
REMARK  Name = 
REMARK  15 active torsions:
REMARK  status: ('A' for Active; 'I' for Inactive)
REMARK    1  A    between atoms: C_1  and  C_2
REMARK    2  A    between atoms: C_2  and  N_3
REMARK    3  A    between atoms: N_3  and  C_4
REMARK    4  A    between atoms: N_3  and  C_6
REMARK    5  A    between atoms: C_4  and  C_5
REMARK    6  A    between atoms: C_6  and  C_7
REMARK    7  A    between atoms: C_7  and  C_8
REMARK    8  A    between atoms: C_8  and  N_9
REMARK    9  A    between atoms: N_9  and  C_10
REMARK   10  A    between atoms: C_12  and  C_13
REMARK   11  A    between atoms: C_14  and  C_15
REMARK   12  A    between atoms: C_25  and  O_26
REMARK   13  A    between atoms: O_26  and  C_27
REMARK   14  A    between atoms: C_28  and  O_29
REMARK   15  A    between atoms: O_29  and  C_30
REMARK                            x       y       z     vdW  Elec       q    Type
REMARK                         _______ _______ _______ _____ _____    ______ ____
ROOT
ATOM      1  C   UNL     1       4.083   6.211  17.388  0.00  0.00    +0.000 A 
ATOM      2  N   UNL     1       3.546   7.431  17.203  0.00  0.00    +0.000 NA
ATOM      3  C   UNL     1       2.719   7.865  18.150  0.00  0.00    +0.000 A 
ATOM      4  N   UNL     1       2.341   7.189  19.243  0.00  0.00    +0.000 NA
ATOM      5  C   UNL     1       2.870   5.974  19.417  0.00  0.00    +0.000 A 
ATOM      6  C   UNL     1       2.520   5.221  20.536  0.00  0.00    +0.000 A 
ATOM      7  C   UNL     1       3.030   3.927  20.820  0.00  0.00    +0.000 A 
ATOM      8  C   UNL     1       3.960   3.383  19.945  0.00  0.00    +0.000 A 
ATOM      9  C   UNL     1       4.304   4.148  18.808  0.00  0.00    +0.000 A 
ATOM     10  C   UNL     1       3.768   5.423  18.514  0.00  0.00    +0.000 A 
ENDROOT
BRANCH   1  11
ATOM     11  N   UNL     1       4.899   5.676  16.362  0.00  0.00    +0.000 N 
ATOM     12  H   UNL     1       4.707   4.689  16.250  0.00  0.00    +0.000 HD
BRANCH  11  13
ATOM     13  C   UNL     1       6.339   5.861  16.583  0.00  0.00    +0.000 C 
BRANCH  13  14
ATOM     14  C   UNL     1       7.076   4.656  15.997  0.00  0.00    +0.000 C 
BRANCH  14  15
ATOM     15  C   UNL     1       6.209   3.824  15.040  0.00  0.00    +0.000 C 
BRANCH  15  16
ATOM     16  N   UNL     1       6.148   4.330  13.653  0.00  0.00    +0.000 NA
BRANCH  16  18
ATOM     17  C   UNL     1       8.054   5.657  12.631  0.00  0.00    +0.000 C 
ATOM     18  C   UNL     1       7.474   4.300  13.013  0.00  0.00    +0.000 C 
ENDBRANCH  16  18
BRANCH  16  19
ATOM     19  C   UNL     1       5.098   3.644  12.876  0.00  0.00    +0.000 C 
ATOM     20  C   UNL     1       5.573   2.736  11.743  0.00  0.00    +0.000 C 
ENDBRANCH  16  19
ENDBRANCH  15  16
ENDBRANCH  14  15
ENDBRANCH  13  14
ENDBRANCH  11  13
ENDBRANCH   1  11
BRANCH   3  21
ATOM     21  C   UNL     1       2.187   9.235  17.964  0.00  0.00    +0.000 C 
ATOM     22  C   UNL     1       1.351   9.827  18.836  0.00  0.00    +0.000 C 
BRANCH  22  23
ATOM     23  C   UNL     1       0.829  11.191  18.730  0.00  0.00    +0.000 A 
ATOM     24  C   UNL     1      -0.543  11.484  18.705  0.00  0.00    +0.000 A 
ATOM     25  C   UNL     1      -0.987  12.811  18.656  0.00  0.00    +0.000 A 
ATOM     26  C   UNL     1      -0.059  13.844  18.636  0.00  0.00    +0.000 A 
ATOM     27  F   UNL     1      -0.484  15.113  18.594  0.00  0.00    +0.000 F 
ATOM     28  C   UNL     1       1.303  13.579  18.671  0.00  0.00    +0.000 A 
ATOM     29  C   UNL     1       1.746  12.257  18.722  0.00  0.00    +0.000 A 
ENDBRANCH  22  23
ENDBRANCH   3  21
BRANCH   7  30
ATOM     30  O   UNL     1       2.371   3.386  21.887  0.00  0.00    +0.000 OA
ATOM     31  C   UNL     1       1.237   2.562  21.707  0.00  0.00    +0.000 C 
ENDBRANCH   7  30
BRANCH   8  32
ATOM     32  O   UNL     1       4.652   2.221  19.857  0.00  0.00    +0.000 OA
ATOM     33  C   UNL     1       4.274   1.077  19.140  0.00  0.00    +0.000 C 
ENDBRANCH   8  32
TORSDOF 11
ENDMDL
MODEL 9
REMARK VINA RESULT:      -7.0      4.545      5.932
REMARK  Name = 
REMARK  15 active torsions:
REMARK  status: ('A' for Active; 'I' for Inactive)
REMARK    1  A    between atoms: C_1  and  C_2
REMARK    2  A    between atoms: C_2  and  N_3
REMARK    3  A    between atoms: N_3  and  C_4
REMARK    4  A    between atoms: N_3  and  C_6
REMARK    5  A    between atoms: C_4  and  C_5
REMARK    6  A    between atoms: C_6  and  C_7
REMARK    7  A    between atoms: C_7  and  C_8
REMARK    8  A    between atoms: C_8  and  N_9
REMARK    9  A    between atoms: N_9  and  C_10
REMARK   10  A    between atoms: C_12  and  C_13
REMARK   11  A    between atoms: C_14  and  C_15
REMARK   12  A    between atoms: C_25  and  O_26
REMARK   13  A    between atoms: O_26  and  C_27
REMARK   14  A    between atoms: C_28  and  O_29
REMARK   15  A    between atoms: O_29  and  C_30
REMARK                            x       y       z     vdW  Elec       q    Type
REMARK                         _______ _______ _______ _____ _____    ______ ____
ROOT
ATOM      1  C   UNL     1       3.936   6.652  17.410  0.00  0.00    +0.000 A 
ATOM      2  N   UNL     1       3.497   7.918  17.281  0.00  0.00    +0.000 NA
ATOM      3  C   UNL     1       2.586   8.322  18.162  0.00  0.00    +0.000 A 
ATOM      4  N   UNL     1       2.038   7.579  19.133  0.00  0.00    +0.000 NA
ATOM      5  C   UNL     1       2.472   6.321  19.252  0.00  0.00    +0.000 A 
ATOM      6  C   UNL     1       1.944   5.498  20.245  0.00  0.00    +0.000 A 
ATOM      7  C   UNL     1       2.340   4.152  20.462  0.00  0.00    +0.000 A 
ATOM      8  C   UNL     1       3.338   3.626  19.654  0.00  0.00    +0.000 A 
ATOM      9  C   UNL     1       3.862   4.462  18.644  0.00  0.00    +0.000 A 
ATOM     10  C   UNL     1       3.440   5.791  18.411  0.00  0.00    +0.000 A 
ENDROOT
BRANCH   1  11
ATOM     11  N   UNL     1       4.841   6.155  16.441  0.00  0.00    +0.000 N 
ATOM     12  H   UNL     1       4.648   5.178  16.261  0.00  0.00    +0.000 HD
BRANCH  11  13
ATOM     13  C   UNL     1       6.254   6.303  16.807  0.00  0.00    +0.000 C 
BRANCH  13  14
ATOM     14  C   UNL     1       6.963   4.972  16.550  0.00  0.00    +0.000 C 
BRANCH  14  15
ATOM     15  C   UNL     1       6.253   4.103  15.500  0.00  0.00    +0.000 C 
BRANCH  15  16
ATOM     16  N   UNL     1       6.294   4.634  14.121  0.00  0.00    +0.000 NA
BRANCH  16  18
ATOM     17  C   UNL     1       8.074   5.751  12.699  0.00  0.00    +0.000 C 
ATOM     18  C   UNL     1       7.654   4.566  13.561  0.00  0.00    +0.000 C 
ENDBRANCH  16  18
BRANCH  16  19
ATOM     19  C   UNL     1       5.269   4.000  13.270  0.00  0.00    +0.000 C 
ATOM     20  C   UNL     1       5.777   3.052  12.185  0.00  0.00    +0.000 C 
ENDBRANCH  16  19
ENDBRANCH  15  16
ENDBRANCH  14  15
ENDBRANCH  13  14
ENDBRANCH  11  13
ENDBRANCH   1  11
BRANCH   3  21
ATOM     21  C   UNL     1       2.160   9.736  18.046  0.00  0.00    +0.000 C 
ATOM     22  C   UNL     1       1.286  10.314  18.888  0.00  0.00    +0.000 C 
BRANCH  22  23
ATOM     23  C   UNL     1       0.862  11.716  18.852  0.00  0.00    +0.000 A 
ATOM     24  C   UNL     1       1.768  12.787  18.803  0.00  0.00    +0.000 A 
ATOM     25  C   UNL     1       1.307  14.106  18.716  0.00  0.00    +0.000 A 
ATOM     26  C   UNL     1      -0.059  14.354  18.674  0.00  0.00    +0.000 A 
ATOM     27  F   UNL     1      -0.499  15.615  18.585  0.00  0.00    +0.000 F 
ATOM     28  C   UNL     1      -0.973  13.310  18.709  0.00  0.00    +0.000 A 
ATOM     29  C   UNL     1      -0.515  11.995  18.793  0.00  0.00    +0.000 A 
ENDBRANCH  22  23
ENDBRANCH   3  21
BRANCH   7  30
ATOM     30  O   UNL     1       1.525   3.567  21.388  0.00  0.00    +0.000 OA
ATOM     31  C   UNL     1       1.771   2.255  21.855  0.00  0.00    +0.000 C 
ENDBRANCH   7  30
BRANCH   8  32
ATOM     32  O   UNL     1       3.968   2.431  19.538  0.00  0.00    +0.000 OA
ATOM     33  C   UNL     1       3.636   1.396  18.652  0.00  0.00    +0.000 C 
ENDBRANCH   8  32
TORSDOF 11
ENDMDL
