MODEL 1
REMARK VINA RESULT:      -6.0      0.000      0.000
REMARK  Name = 
REMARK  20 active torsions:
REMARK  status: ('A' for Active; 'I' for Inactive)
REMARK    1  A    between atoms: C_1  and  C_2
REMARK    2  A    between atoms: C_2  and  C_3
REMARK    3  A    between atoms: C_3  and  C_4
REMARK    4  A    between atoms: C_4  and  C_5
REMARK    5  A    between atoms: C_5  and  C_6
REMARK    6  A    between atoms: C_6  and  C_7
REMARK    7  A    between atoms: C_7  and  C_8
REMARK    8  A    between atoms: C_8  and  C_9
REMARK    9  A    between atoms: C_9  and  C_10
REMARK   10  A    between atoms: C_10  and  C_11
REMARK   11  A    between atoms: C_11  and  C_12
REMARK   12  A    between atoms: C_12  and  C_13
REMARK   13  A    between atoms: C_13  and  C_14
REMARK   14  A    between atoms: C_14  and  C_15
REMARK   15  A    between atoms: C_15  and  C_16
REMARK   16  A    between atoms: C_16  and  O_17
REMARK   17  A    between atoms: O_17  and  C_18
REMARK   18  A    between atoms: N_20  and  C_21
REMARK   19  A    between atoms: C_24  and  O_25
REMARK   20  A    between atoms: O_25  and  C_26
REMARK                            x       y       z     vdW  Elec       q    Type
REMARK                         _______ _______ _______ _____ _____    ______ ____
ROOT
ATOM      1  C   UNL     1       6.013   6.656  17.569  0.00  0.00    +0.000 C 
ENDROOT
BRANCH   1   2
ATOM      2  C   UNL     1       7.394   7.155  17.174  0.00  0.00    +0.000 C 
BRANCH   2   3
ATOM      3  O   UNL     1       8.135   7.612  18.354  0.00  0.00    +0.000 OA
BRANCH   3   4
ATOM      4  C   UNL     1       8.358   8.963  18.365  0.00  0.00    +0.000 C 
ATOM      5  O   UNL     1       7.831   9.702  17.564  0.00  0.00    +0.000 OA
ATOM      6  N   UNL     1       9.270   9.362  19.349  0.00  0.00    +0.000 N 
ATOM      7  H   UNL     1       9.747   8.626  19.849  0.00  0.00    +0.000 HD
BRANCH   6   8
ATOM      8  C   UNL     1       9.723  10.697  19.487  0.00  0.00    +0.000 A 
ATOM      9  C   UNL     1      10.422  11.373  18.479  0.00  0.00    +0.000 A 
ATOM     10  C   UNL     1      10.989  12.638  18.694  0.00  0.00    +0.000 A 
ATOM     11  C   UNL     1      10.737  13.336  19.874  0.00  0.00    +0.000 A 
ATOM     12  C   UNL     1      10.035  12.687  20.884  0.00  0.00    +0.000 A 
ATOM     13  C   UNL     1       9.522  11.385  20.687  0.00  0.00    +0.000 A 
BRANCH  11  14
ATOM     14  O   UNL     1      11.225  14.612  19.950  0.00  0.00    +0.000 OA
ATOM     15  C   UNL     1      11.066  15.393  18.762  0.00  0.00    +0.000 C 
ENDBRANCH  11  14
ENDBRANCH   6   8
ENDBRANCH   3   4
ENDBRANCH   2   3
ENDBRANCH   1   2
BRANCH   1  16
ATOM     16  C   UNL     1       6.059   5.617  18.693  0.00  0.00    +0.000 C 
BRANCH  16  17
ATOM     17  C   UNL     1       5.701   4.225  18.177  0.00  0.00    +0.000 C 
BRANCH  17  18
ATOM     18  C   UNL     1       4.826   4.312  16.933  0.00  0.00    +0.000 C 
BRANCH  18  19
ATOM     19  C   UNL     1       3.440   3.776  17.211  0.00  0.00    +0.000 C 
BRANCH  19  20
ATOM     20  C   UNL     1       3.535   2.316  17.615  0.00  0.00    +0.000 C 
BRANCH  20  21
ATOM     21  C   UNL     1       2.491   2.012  18.670  0.00  0.00    +0.000 C 
BRANCH  21  22
ATOM     22  C   UNL     1       3.035   2.343  20.046  0.00  0.00    +0.000 C 
BRANCH  22  23
ATOM     23  C   UNL     1       1.891   2.471  21.033  0.00  0.00    +0.000 C 
BRANCH  23  24
ATOM     24  C   UNL     1       1.221   3.822  20.871  0.00  0.00    +0.000 C 
BRANCH  24  25
ATOM     25  C   UNL     1       2.260   4.927  20.949  0.00  0.00    +0.000 C 
BRANCH  25  26
ATOM     26  C   UNL     1       1.704   6.203  20.344  0.00  0.00    +0.000 C 
BRANCH  26  27
ATOM     27  C   UNL     1       2.744   6.847  19.444  0.00  0.00    +0.000 C 
BRANCH  27  29
ATOM     28  C   UNL     1       2.401   8.627  17.737  0.00  0.00    +0.000 C 
ATOM     29  C   UNL     1       2.138   7.177  18.089  0.00  0.00    +0.000 C 
ENDBRANCH  27  29
ENDBRANCH  26  27
ENDBRANCH  25  26
ENDBRANCH  24  25
ENDBRANCH  23  24
ENDBRANCH  22  23
ENDBRANCH  21  22
ENDBRANCH  20  21
ENDBRANCH  19  20
ENDBRANCH  18  19
ENDBRANCH  17  18
ENDBRANCH  16  17
ENDBRANCH   1  16
TORSDOF 18
ENDMDL
MODEL 2
REMARK VINA RESULT:      -5.8      1.432      1.780
REMARK  Name = 
REMARK  20 active torsions:
REMARK  status: ('A' for Active; 'I' for Inactive)
REMARK    1  A    between atoms: C_1  and  C_2
REMARK    2  A    between atoms: C_2  and  C_3
REMARK    3  A    between atoms: C_3  and  C_4
REMARK    4  A    between atoms: C_4  and  C_5
REMARK    5  A    between atoms: C_5  and  C_6
REMARK    6  A    between atoms: C_6  and  C_7
REMARK    7  A    between atoms: C_7  and  C_8
REMARK    8  A    between atoms: C_8  and  C_9
REMARK    9  A    between atoms: C_9  and  C_10
REMARK   10  A    between atoms: C_10  and  C_11
REMARK   11  A    between atoms: C_11  and  C_12
REMARK   12  A    between atoms: C_12  and  C_13
REMARK   13  A    between atoms: C_13  and  C_14
REMARK   14  A    between atoms: C_14  and  C_15
REMARK   15  A    between atoms: C_15  and  C_16
REMARK   16  A    between atoms: C_16  and  O_17
REMARK   17  A    between atoms: O_17  and  C_18
REMARK   18  A    between atoms: N_20  and  C_21
REMARK   19  A    between atoms: C_24  and  O_25
REMARK   20  A    between atoms: O_25  and  C_26
REMARK                            x       y       z     vdW  Elec       q    Type
REMARK                         _______ _______ _______ _____ _____    ______ ____
ROOT
ATOM      1  C   UNL     1       7.533   7.025  17.536  0.00  0.00    +0.000 C 
ENDROOT
BRANCH   1   2
ATOM      2  C   UNL     1       7.767   8.500  17.823  0.00  0.00    +0.000 C 
BRANCH   2   3
ATOM      3  O   UNL     1       8.746   8.667  18.902  0.00  0.00    +0.000 OA
BRANCH   3   4
ATOM      4  C   UNL     1       9.101   9.972  19.117  0.00  0.00    +0.000 C 
ATOM      5  O   UNL     1       9.207  10.428  20.233  0.00  0.00    +0.000 OA
ATOM      6  N   UNL     1       9.275  10.697  17.932  0.00  0.00    +0.000 N 
ATOM      7  H   UNL     1       9.008  10.234  17.075  0.00  0.00    +0.000 HD
BRANCH   6   8
ATOM      8  C   UNL     1       9.552  12.085  17.909  0.00  0.00    +0.000 A 
ATOM      9  C   UNL     1      10.851  12.603  17.815  0.00  0.00    +0.000 A 
ATOM     10  C   UNL     1      11.111  13.975  17.944  0.00  0.00    +0.000 A 
ATOM     11  C   UNL     1      10.063  14.891  18.012  0.00  0.00    +0.000 A 
ATOM     12  C   UNL     1       8.764  14.399  18.095  0.00  0.00    +0.000 A 
ATOM     13  C   UNL     1       8.512  13.011  18.031  0.00  0.00    +0.000 A 
BRANCH  11  14
ATOM     14  O   UNL     1      10.404  16.216  18.011  0.00  0.00    +0.000 OA
ATOM     15  C   UNL     1      11.278  16.616  16.952  0.00  0.00    +0.000 C 
ENDBRANCH  11  14
ENDBRANCH   6   8
ENDBRANCH   3   4
ENDBRANCH   2   3
ENDBRANCH   1   2
BRANCH   1  16
ATOM     16  C   UNL     1       6.048   6.659  17.498  0.00  0.00    +0.000 C 
BRANCH  16  17
ATOM     17  C   UNL     1       5.706   5.613  18.558  0.00  0.00    +0.000 C 
BRANCH  17  18
ATOM     18  C   UNL     1       5.491   4.245  17.925  0.00  0.00    +0.000 C 
BRANCH  18  19
ATOM     19  C   UNL     1       4.055   4.076  17.481  0.00  0.00    +0.000 C 
BRANCH  19  20
ATOM     20  C   UNL     1       3.564   2.695  17.877  0.00  0.00    +0.000 C 
BRANCH  20  21
ATOM     21  C   UNL     1       4.092   2.343  19.253  0.00  0.00    +0.000 C 
BRANCH  21  22
ATOM     22  C   UNL     1       3.350   3.136  20.311  0.00  0.00    +0.000 C 
BRANCH  22  23
ATOM     23  C   UNL     1       1.879   2.771  20.287  0.00  0.00    +0.000 C 
BRANCH  23  24
ATOM     24  C   UNL     1       1.037   4.032  20.284  0.00  0.00    +0.000 C 
BRANCH  24  25
ATOM     25  C   UNL     1       1.934   5.254  20.365  0.00  0.00    +0.000 C 
BRANCH  25  26
ATOM     26  C   UNL     1       1.879   6.024  19.059  0.00  0.00    +0.000 C 
BRANCH  26  27
ATOM     27  C   UNL     1       2.430   7.425  19.258  0.00  0.00    +0.000 C 
BRANCH  27  29
ATOM     28  C   UNL     1       1.795   9.403  17.887  0.00  0.00    +0.000 C 
ATOM     29  C   UNL     1       2.601   8.121  17.917  0.00  0.00    +0.000 C 
ENDBRANCH  27  29
ENDBRANCH  26  27
ENDBRANCH  25  26
ENDBRANCH  24  25
ENDBRANCH  23  24
ENDBRANCH  22  23
ENDBRANCH  21  22
ENDBRANCH  20  21
ENDBRANCH  19  20
ENDBRANCH  18  19
ENDBRANCH  17  18
ENDBRANCH  16  17
ENDBRANCH   1  16
TORSDOF 18
ENDMDL
MODEL 3
REMARK VINA RESULT:      -5.6      1.079      1.546
REMARK  Name = 
REMARK  20 active torsions:
REMARK  status: ('A' for Active; 'I' for Inactive)
REMARK    1  A    between atoms: C_1  and  C_2
REMARK    2  A    between atoms: C_2  and  C_3
REMARK    3  A    between atoms: C_3  and  C_4
REMARK    4  A    between atoms: C_4  and  C_5
REMARK    5  A    between atoms: C_5  and  C_6
REMARK    6  A    between atoms: C_6  and  C_7
REMARK    7  A    between atoms: C_7  and  C_8
REMARK    8  A    between atoms: C_8  and  C_9
REMARK    9  A    between atoms: C_9  and  C_10
REMARK   10  A    between atoms: C_10  and  C_11
REMARK   11  A    between atoms: C_11  and  C_12
REMARK   12  A    between atoms: C_12  and  C_13
REMARK   13  A    between atoms: C_13  and  C_14
REMARK   14  A    between atoms: C_14  and  C_15
REMARK   15  A    between atoms: C_15  and  C_16
REMARK   16  A    between atoms: C_16  and  O_17
REMARK   17  A    between atoms: O_17  and  C_18
REMARK   18  A    between atoms: N_20  and  C_21
REMARK   19  A    between atoms: C_24  and  O_25
REMARK   20  A    between atoms: O_25  and  C_26
REMARK                            x       y       z     vdW  Elec       q    Type
REMARK                         _______ _______ _______ _____ _____    ______ ____
ROOT
ATOM      1  C   UNL     1       6.342   7.551  17.291  0.00  0.00    +0.000 C 
ENDROOT
BRANCH   1   2
ATOM      2  C   UNL     1       7.831   7.315  17.488  0.00  0.00    +0.000 C 
BRANCH   2   3
ATOM      3  O   UNL     1       8.334   8.105  18.617  0.00  0.00    +0.000 OA
BRANCH   3   4
ATOM      4  C   UNL     1       8.537   9.424  18.308  0.00  0.00    +0.000 C 
ATOM      5  O   UNL     1       7.924   9.972  17.419  0.00  0.00    +0.000 OA
ATOM      6  N   UNL     1       9.534  10.023  19.087  0.00  0.00    +0.000 N 
ATOM      7  H   UNL     1      10.068   9.412  19.687  0.00  0.00    +0.000 HD
BRANCH   6   8
ATOM      8  C   UNL     1       9.979  11.352  18.883  0.00  0.00    +0.000 A 
ATOM      9  C   UNL     1       9.290  12.471  19.370  0.00  0.00    +0.000 A 
ATOM     10  C   UNL     1       9.668  13.778  19.030  0.00  0.00    +0.000 A 
ATOM     11  C   UNL     1      10.843  14.013  18.319  0.00  0.00    +0.000 A 
ATOM     12  C   UNL     1      11.549  12.917  17.835  0.00  0.00    +0.000 A 
ATOM     13  C   UNL     1      11.127  11.600  18.126  0.00  0.00    +0.000 A 
BRANCH  11  14
ATOM     14  O   UNL     1      11.200  15.321  18.137  0.00  0.00    +0.000 OA
ATOM     15  C   UNL     1      10.445  16.024  17.148  0.00  0.00    +0.000 C 
ENDBRANCH  11  14
ENDBRANCH   6   8
ENDBRANCH   3   4
ENDBRANCH   2   3
ENDBRANCH   1   2
BRANCH   1  16
ATOM     16  C   UNL     1       5.503   6.300  17.560  0.00  0.00    +0.000 C 
BRANCH  16  17
ATOM     17  C   UNL     1       4.923   5.730  16.267  0.00  0.00    +0.000 C 
BRANCH  17  18
ATOM     18  C   UNL     1       5.026   4.211  16.245  0.00  0.00    +0.000 C 
BRANCH  18  19
ATOM     19  C   UNL     1       4.351   3.607  17.455  0.00  0.00    +0.000 C 
BRANCH  19  20
ATOM     20  C   UNL     1       2.852   3.558  17.224  0.00  0.00    +0.000 C 
BRANCH  20  21
ATOM     21  C   UNL     1       2.331   2.174  17.557  0.00  0.00    +0.000 C 
BRANCH  21  22
ATOM     22  C   UNL     1       2.427   1.931  19.051  0.00  0.00    +0.000 C 
BRANCH  22  23
ATOM     23  C   UNL     1       1.212   2.515  19.745  0.00  0.00    +0.000 C 
BRANCH  23  24
ATOM     24  C   UNL     1       1.500   2.692  21.223  0.00  0.00    +0.000 C 
BRANCH  24  25
ATOM     25  C   UNL     1       2.147   4.043  21.466  0.00  0.00    +0.000 C 
BRANCH  25  26
ATOM     26  C   UNL     1       1.634   5.052  20.454  0.00  0.00    +0.000 C 
BRANCH  26  27
ATOM     27  C   UNL     1       2.766   5.959  20.005  0.00  0.00    +0.000 C 
BRANCH  27  29
ATOM     28  C   UNL     1       2.208   7.608  18.226  0.00  0.00    +0.000 C 
ATOM     29  C   UNL     1       2.240   7.357  19.719  0.00  0.00    +0.000 C 
ENDBRANCH  27  29
ENDBRANCH  26  27
ENDBRANCH  25  26
ENDBRANCH  24  25
ENDBRANCH  23  24
ENDBRANCH  22  23
ENDBRANCH  21  22
ENDBRANCH  20  21
ENDBRANCH  19  20
ENDBRANCH  18  19
ENDBRANCH  17  18
ENDBRANCH  16  17
ENDBRANCH   1  16
TORSDOF 18
ENDMDL
MODEL 4
REMARK VINA RESULT:      -5.5      4.613      8.175
REMARK  Name = 
REMARK  20 active torsions:
REMARK  status: ('A' for Active; 'I' for Inactive)
REMARK    1  A    between atoms: C_1  and  C_2
REMARK    2  A    between atoms: C_2  and  C_3
REMARK    3  A    between atoms: C_3  and  C_4
REMARK    4  A    between atoms: C_4  and  C_5
REMARK    5  A    between atoms: C_5  and  C_6
REMARK    6  A    between atoms: C_6  and  C_7
REMARK    7  A    between atoms: C_7  and  C_8
REMARK    8  A    between atoms: C_8  and  C_9
REMARK    9  A    between atoms: C_9  and  C_10
REMARK   10  A    between atoms: C_10  and  C_11
REMARK   11  A    between atoms: C_11  and  C_12
REMARK   12  A    between atoms: C_12  and  C_13
REMARK   13  A    between atoms: C_13  and  C_14
REMARK   14  A    between atoms: C_14  and  C_15
REMARK   15  A    between atoms: C_15  and  C_16
REMARK   16  A    between atoms: C_16  and  O_17
REMARK   17  A    between atoms: O_17  and  C_18
REMARK   18  A    between atoms: N_20  and  C_21
REMARK   19  A    between atoms: C_24  and  O_25
REMARK   20  A    between atoms: O_25  and  C_26
REMARK                            x       y       z     vdW  Elec       q    Type
REMARK                         _______ _______ _______ _____ _____    ______ ____
ROOT
ATOM      1  C   UNL     1       2.577   7.527  19.160  0.00  0.00    +0.000 C 
ENDROOT
BRANCH   1   2
ATOM      2  C   UNL     1       1.867   8.061  17.926  0.00  0.00    +0.000 C 
BRANCH   2   3
ATOM      3  O   UNL     1       2.294   9.434  17.639  0.00  0.00    +0.000 OA
BRANCH   3   4
ATOM      4  C   UNL     1       1.491  10.384  18.211  0.00  0.00    +0.000 C 
ATOM      5  O   UNL     1       1.898  11.497  18.459  0.00  0.00    +0.000 OA
ATOM      6  N   UNL     1       0.206   9.913  18.505  0.00  0.00    +0.000 N 
ATOM      7  H   UNL     1       0.048   8.923  18.384  0.00  0.00    +0.000 HD
BRANCH   6   8
ATOM      8  C   UNL     1      -0.765  10.690  19.182  0.00  0.00    +0.000 A 
ATOM      9  C   UNL     1      -1.926  11.171  18.563  0.00  0.00    +0.000 A 
ATOM     10  C   UNL     1      -2.796  12.059  19.211  0.00  0.00    +0.000 A 
ATOM     11  C   UNL     1      -2.616  12.371  20.557  0.00  0.00    +0.000 A 
ATOM     12  C   UNL     1      -1.476  11.895  21.196  0.00  0.00    +0.000 A 
ATOM     13  C   UNL     1      -0.567  11.052  20.517  0.00  0.00    +0.000 A 
BRANCH  11  14
ATOM     14  O   UNL     1      -3.580  13.146  21.143  0.00  0.00    +0.000 OA
ATOM     15  C   UNL     1      -4.664  13.516  20.286  0.00  0.00    +0.000 C 
ENDBRANCH  11  14
ENDBRANCH   6   8
ENDBRANCH   3   4
ENDBRANCH   2   3
ENDBRANCH   1   2
BRANCH   1  16
ATOM     16  C   UNL     1       2.465   6.006  19.295  0.00  0.00    +0.000 C 
BRANCH  16  17
ATOM     17  C   UNL     1       1.619   5.617  20.505  0.00  0.00    +0.000 C 
BRANCH  17  18
ATOM     18  C   UNL     1       2.214   4.413  21.224  0.00  0.00    +0.000 C 
BRANCH  18  19
ATOM     19  C   UNL     1       1.293   3.218  21.127  0.00  0.00    +0.000 C 
BRANCH  19  20
ATOM     20  C   UNL     1       1.871   2.215  20.146  0.00  0.00    +0.000 C 
BRANCH  20  21
ATOM     21  C   UNL     1       1.323   2.486  18.760  0.00  0.00    +0.000 C 
BRANCH  21  22
ATOM     22  C   UNL     1       2.369   2.147  17.714  0.00  0.00    +0.000 C 
BRANCH  22  23
ATOM     23  C   UNL     1       2.869   3.419  17.058  0.00  0.00    +0.000 C 
BRANCH  23  24
ATOM     24  C   UNL     1       4.371   3.531  17.232  0.00  0.00    +0.000 C 
BRANCH  24  25
ATOM     25  C   UNL     1       4.859   4.854  16.670  0.00  0.00    +0.000 C 
BRANCH  25  26
ATOM     26  C   UNL     1       5.681   5.587  17.714  0.00  0.00    +0.000 C 
BRANCH  26  27
ATOM     27  C   UNL     1       6.051   6.970  17.206  0.00  0.00    +0.000 C 
BRANCH  27  29
ATOM     28  C   UNL     1       7.963   6.461  18.718  0.00  0.00    +0.000 C 
ATOM     29  C   UNL     1       7.505   7.279  17.528  0.00  0.00    +0.000 C 
ENDBRANCH  27  29
ENDBRANCH  26  27
ENDBRANCH  25  26
ENDBRANCH  24  25
ENDBRANCH  23  24
ENDBRANCH  22  23
ENDBRANCH  21  22
ENDBRANCH  20  21
ENDBRANCH  19  20
ENDBRANCH  18  19
ENDBRANCH  17  18
ENDBRANCH  16  17
ENDBRANCH   1  16
TORSDOF 18
ENDMDL
MODEL 5
REMARK VINA RESULT:      -5.5      1.214      2.146
REMARK  Name = 
REMARK  20 active torsions:
REMARK  status: ('A' for Active; 'I' for Inactive)
REMARK    1  A    between atoms: C_1  and  C_2
REMARK    2  A    between atoms: C_2  and  C_3
REMARK    3  A    between atoms: C_3  and  C_4
REMARK    4  A    between atoms: C_4  and  C_5
REMARK    5  A    between atoms: C_5  and  C_6
REMARK    6  A    between atoms: C_6  and  C_7
REMARK    7  A    between atoms: C_7  and  C_8
REMARK    8  A    between atoms: C_8  and  C_9
REMARK    9  A    between atoms: C_9  and  C_10
REMARK   10  A    between atoms: C_10  and  C_11
REMARK   11  A    between atoms: C_11  and  C_12
REMARK   12  A    between atoms: C_12  and  C_13
REMARK   13  A    between atoms: C_13  and  C_14
REMARK   14  A    between atoms: C_14  and  C_15
REMARK   15  A    between atoms: C_15  and  C_16
REMARK   16  A    between atoms: C_16  and  O_17
REMARK   17  A    between atoms: O_17  and  C_18
REMARK   18  A    between atoms: N_20  and  C_21
REMARK   19  A    between atoms: C_24  and  O_25
REMARK   20  A    between atoms: O_25  and  C_26
REMARK                            x       y       z     vdW  Elec       q    Type
REMARK                         _______ _______ _______ _____ _____    ______ ____
ROOT
ATOM      1  C   UNL     1       7.011   5.667  16.550  0.00  0.00    +0.000 C 
ENDROOT
BRANCH   1   2
ATOM      2  C   UNL     1       6.775   6.912  17.390  0.00  0.00    +0.000 C 
BRANCH   2   3
ATOM      3  O   UNL     1       8.007   7.309  18.082  0.00  0.00    +0.000 OA
BRANCH   3   4
ATOM      4  C   UNL     1       8.186   8.665  18.136  0.00  0.00    +0.000 C 
ATOM      5  O   UNL     1       7.693   9.406  17.316  0.00  0.00    +0.000 OA
ATOM      6  N   UNL     1       9.015   9.068  19.190  0.00  0.00    +0.000 N 
ATOM      7  H   UNL     1       9.479   8.335  19.706  0.00  0.00    +0.000 HD
BRANCH   6   8
ATOM      8  C   UNL     1       9.415  10.412  19.387  0.00  0.00    +0.000 A 
ATOM      9  C   UNL     1       9.293  11.073  20.616  0.00  0.00    +0.000 A 
ATOM     10  C   UNL     1       9.557  12.444  20.748  0.00  0.00    +0.000 A 
ATOM     11  C   UNL     1      10.105  13.165  19.689  0.00  0.00    +0.000 A 
ATOM     12  C   UNL     1      10.246  12.525  18.462  0.00  0.00    +0.000 A 
ATOM     13  C   UNL     1       9.916  11.159  18.317  0.00  0.00    +0.000 A 
BRANCH  11  14
ATOM     14  O   UNL     1      10.446  14.466  19.942  0.00  0.00    +0.000 OA
ATOM     15  C   UNL     1      11.559  14.958  19.190  0.00  0.00    +0.000 C 
ENDBRANCH  11  14
ENDBRANCH   6   8
ENDBRANCH   3   4
ENDBRANCH   2   3
ENDBRANCH   1   2
BRANCH   1  16
ATOM     16  C   UNL     1       5.939   5.468  15.475  0.00  0.00    +0.000 C 
BRANCH  16  17
ATOM     17  C   UNL     1       4.853   4.504  15.945  0.00  0.00    +0.000 C 
BRANCH  17  18
ATOM     18  C   UNL     1       5.285   3.767  17.206  0.00  0.00    +0.000 C 
BRANCH  18  19
ATOM     19  C   UNL     1       4.087   3.214  17.945  0.00  0.00    +0.000 C 
BRANCH  19  20
ATOM     20  C   UNL     1       2.828   3.495  17.145  0.00  0.00    +0.000 C 
BRANCH  20  21
ATOM     21  C   UNL     1       1.796   4.154  18.036  0.00  0.00    +0.000 C 
BRANCH  21  22
ATOM     22  C   UNL     1       2.169   3.957  19.493  0.00  0.00    +0.000 C 
BRANCH  22  23
ATOM     23  C   UNL     1       2.054   5.275  20.235  0.00  0.00    +0.000 C 
BRANCH  23  24
ATOM     24  C   UNL     1       2.953   6.309  19.587  0.00  0.00    +0.000 C 
BRANCH  24  25
ATOM     25  C   UNL     1       2.192   7.609  19.398  0.00  0.00    +0.000 C 
BRANCH  25  26
ATOM     26  C   UNL     1       2.395   8.127  17.986  0.00  0.00    +0.000 C 
BRANCH  26  27
ATOM     27  C   UNL     1       1.890   9.554  17.878  0.00  0.00    +0.000 C 
BRANCH  27  29
ATOM     28  C   UNL     1      -0.505  10.178  18.151  0.00  0.00    +0.000 C 
ATOM     29  C   UNL     1       0.768   9.794  18.877  0.00  0.00    +0.000 C 
ENDBRANCH  27  29
ENDBRANCH  26  27
ENDBRANCH  25  26
ENDBRANCH  24  25
ENDBRANCH  23  24
ENDBRANCH  22  23
ENDBRANCH  21  22
ENDBRANCH  20  21
ENDBRANCH  19  20
ENDBRANCH  18  19
ENDBRANCH  17  18
ENDBRANCH  16  17
ENDBRANCH   1  16
TORSDOF 18
ENDMDL
MODEL 6
REMARK VINA RESULT:      -5.5      5.657      9.076
REMARK  Name = 
REMARK  20 active torsions:
REMARK  status: ('A' for Active; 'I' for Inactive)
REMARK    1  A    between atoms: C_1  and  C_2
REMARK    2  A    between atoms: C_2  and  C_3
REMARK    3  A    between atoms: C_3  and  C_4
REMARK    4  A    between atoms: C_4  and  C_5
REMARK    5  A    between atoms: C_5  and  C_6
REMARK    6  A    between atoms: C_6  and  C_7
REMARK    7  A    between atoms: C_7  and  C_8
REMARK    8  A    between atoms: C_8  and  C_9
REMARK    9  A    between atoms: C_9  and  C_10
REMARK   10  A    between atoms: C_10  and  C_11
REMARK   11  A    between atoms: C_11  and  C_12
REMARK   12  A    between atoms: C_12  and  C_13
REMARK   13  A    between atoms: C_13  and  C_14
REMARK   14  A    between atoms: C_14  and  C_15
REMARK   15  A    between atoms: C_15  and  C_16
REMARK   16  A    between atoms: C_16  and  O_17
REMARK   17  A    between atoms: O_17  and  C_18
REMARK   18  A    between atoms: N_20  and  C_21
REMARK   19  A    between atoms: C_24  and  O_25
REMARK   20  A    between atoms: O_25  and  C_26
REMARK                            x       y       z     vdW  Elec       q    Type
REMARK                         _______ _______ _______ _____ _____    ______ ____
ROOT
ATOM      1  C   UNL     1       1.634   9.029  21.910  0.00  0.00    +0.000 C 
ENDROOT
BRANCH   1   2
ATOM      2  C   UNL     1       0.439   9.845  22.380  0.00  0.00    +0.000 C 
BRANCH   2   3
ATOM      3  O   UNL     1       0.551  11.234  21.924  0.00  0.00    +0.000 OA
BRANCH   3   4
ATOM      4  C   UNL     1       0.176  11.409  20.618  0.00  0.00    +0.000 C 
ATOM      5  O   UNL     1       0.807  12.114  19.863  0.00  0.00    +0.000 OA
ATOM      6  N   UNL     1      -1.006  10.734  20.291  0.00  0.00    +0.000 N 
ATOM      7  H   UNL     1      -1.509  10.306  21.055  0.00  0.00    +0.000 HD
BRANCH   6   8
ATOM      8  C   UNL     1      -1.633  10.844  19.026  0.00  0.00    +0.000 A 
ATOM      9  C   UNL     1      -2.696  11.721  18.775  0.00  0.00    +0.000 A 
ATOM     10  C   UNL     1      -3.396  11.705  17.559  0.00  0.00    +0.000 A 
ATOM     11  C   UNL     1      -2.952  10.920  16.497  0.00  0.00    +0.000 A 
ATOM     12  C   UNL     1      -1.891  10.049  16.721  0.00  0.00    +0.000 A 
ATOM     13  C   UNL     1      -1.230  10.022  17.970  0.00  0.00    +0.000 A 
BRANCH  11  14
ATOM     14  O   UNL     1      -3.619  11.058  15.310  0.00  0.00    +0.000 OA
ATOM     15  C   UNL     1      -3.339  10.049  14.336  0.00  0.00    +0.000 C 
ENDBRANCH  11  14
ENDBRANCH   6   8
ENDBRANCH   3   4
ENDBRANCH   2   3
ENDBRANCH   1   2
BRANCH   1  16
ATOM     16  C   UNL     1       1.333   8.211  20.652  0.00  0.00    +0.000 C 
BRANCH  16  17
ATOM     17  C   UNL     1       1.762   6.755  20.820  0.00  0.00    +0.000 C 
BRANCH  17  18
ATOM     18  C   UNL     1       2.568   6.281  19.619  0.00  0.00    +0.000 C 
BRANCH  18  19
ATOM     19  C   UNL     1       2.334   7.178  18.424  0.00  0.00    +0.000 C 
BRANCH  19  20
ATOM     20  C   UNL     1       3.665   7.517  17.780  0.00  0.00    +0.000 C 
BRANCH  20  21
ATOM     21  C   UNL     1       4.186   6.311  17.025  0.00  0.00    +0.000 C 
BRANCH  21  22
ATOM     22  C   UNL     1       5.675   6.152  17.270  0.00  0.00    +0.000 C 
BRANCH  22  23
ATOM     23  C   UNL     1       6.017   4.681  17.411  0.00  0.00    +0.000 C 
BRANCH  23  24
ATOM     24  C   UNL     1       4.761   3.888  17.712  0.00  0.00    +0.000 C 
BRANCH  24  25
ATOM     25  C   UNL     1       4.774   3.427  19.159  0.00  0.00    +0.000 C 
BRANCH  25  26
ATOM     26  C   UNL     1       3.451   2.771  19.505  0.00  0.00    +0.000 C 
BRANCH  26  27
ATOM     27  C   UNL     1       2.641   2.535  18.243  0.00  0.00    +0.000 C 
BRANCH  27  29
ATOM     28  C   UNL     1       0.821   3.053  19.861  0.00  0.00    +0.000 C 
ATOM     29  C   UNL     1       1.236   3.093  18.404  0.00  0.00    +0.000 C 
ENDBRANCH  27  29
ENDBRANCH  26  27
ENDBRANCH  25  26
ENDBRANCH  24  25
ENDBRANCH  23  24
ENDBRANCH  22  23
ENDBRANCH  21  22
ENDBRANCH  20  21
ENDBRANCH  19  20
ENDBRANCH  18  19
ENDBRANCH  17  18
ENDBRANCH  16  17
ENDBRANCH   1  16
TORSDOF 18
ENDMDL
MODEL 7
REMARK VINA RESULT:      -5.5      4.934      7.981
REMARK  Name = 
REMARK  20 active torsions:
REMARK  status: ('A' for Active; 'I' for Inactive)
REMARK    1  A    between atoms: C_1  and  C_2
REMARK    2  A    between atoms: C_2  and  C_3
REMARK    3  A    between atoms: C_3  and  C_4
REMARK    4  A    between atoms: C_4  and  C_5
REMARK    5  A    between atoms: C_5  and  C_6
REMARK    6  A    between atoms: C_6  and  C_7
REMARK    7  A    between atoms: C_7  and  C_8
REMARK    8  A    between atoms: C_8  and  C_9
REMARK    9  A    between atoms: C_9  and  C_10
REMARK   10  A    between atoms: C_10  and  C_11
REMARK   11  A    between atoms: C_11  and  C_12
REMARK   12  A    between atoms: C_12  and  C_13
REMARK   13  A    between atoms: C_13  and  C_14
REMARK   14  A    between atoms: C_14  and  C_15
REMARK   15  A    between atoms: C_15  and  C_16
REMARK   16  A    between atoms: C_16  and  O_17
REMARK   17  A    between atoms: O_17  and  C_18
REMARK   18  A    between atoms: N_20  and  C_21
REMARK   19  A    between atoms: C_24  and  O_25
REMARK   20  A    between atoms: O_25  and  C_26
REMARK                            x       y       z     vdW  Elec       q    Type
REMARK                         _______ _______ _______ _____ _____    ______ ____
ROOT
ATOM      1  C   UNL     1       1.085   3.577  19.039  0.00  0.00    +0.000 C 
ENDROOT
BRANCH   1   2
ATOM      2  C   UNL     1       1.531   2.131  18.887  0.00  0.00    +0.000 C 
BRANCH   2   3
ATOM      3  O   UNL     1       2.472   1.996  17.770  0.00  0.00    +0.000 OA
BRANCH   3   4
ATOM      4  C   UNL     1       3.596   2.765  17.910  0.00  0.00    +0.000 C 
ATOM      5  O   UNL     1       4.289   2.704  18.901  0.00  0.00    +0.000 OA
ATOM      6  N   UNL     1       3.810   3.628  16.829  0.00  0.00    +0.000 N 
ATOM      7  H   UNL     1       3.074   3.683  16.141  0.00  0.00    +0.000 HD
BRANCH   6   8
ATOM      8  C   UNL     1       4.858   4.580  16.798  0.00  0.00    +0.000 A 
ATOM      9  C   UNL     1       6.131   4.298  16.285  0.00  0.00    +0.000 A 
ATOM     10  C   UNL     1       7.192   5.207  16.400  0.00  0.00    +0.000 A 
ATOM     11  C   UNL     1       6.973   6.494  16.890  0.00  0.00    +0.000 A 
ATOM     12  C   UNL     1       5.713   6.799  17.393  0.00  0.00    +0.000 A 
ATOM     13  C   UNL     1       4.663   5.856  17.335  0.00  0.00    +0.000 A 
BRANCH  11  14
ATOM     14  O   UNL     1       8.036   7.355  16.852  0.00  0.00    +0.000 OA
ATOM     15  C   UNL     1       7.878   8.547  17.626  0.00  0.00    +0.000 C 
ENDBRANCH  11  14
ENDBRANCH   6   8
ENDBRANCH   3   4
ENDBRANCH   2   3
ENDBRANCH   1   2
BRANCH   1  16
ATOM     16  C   UNL     1       0.969   4.009  20.503  0.00  0.00    +0.000 C 
BRANCH  16  17
ATOM     17  C   UNL     1       1.918   5.164  20.818  0.00  0.00    +0.000 C 
BRANCH  17  18
ATOM     18  C   UNL     1       2.212   5.985  19.570  0.00  0.00    +0.000 C 
BRANCH  18  19
ATOM     19  C   UNL     1       2.134   7.466  19.868  0.00  0.00    +0.000 C 
BRANCH  19  20
ATOM     20  C   UNL     1       1.138   7.702  20.989  0.00  0.00    +0.000 C 
BRANCH  20  21
ATOM     21  C   UNL     1       1.053   9.184  21.289  0.00  0.00    +0.000 C 
BRANCH  21  22
ATOM     22  C   UNL     1      -0.323   9.708  20.924  0.00  0.00    +0.000 C 
BRANCH  22  23
ATOM     23  C   UNL     1      -0.561  11.042  21.603  0.00  0.00    +0.000 C 
BRANCH  23  24
ATOM     24  C   UNL     1      -1.324  11.964  20.672  0.00  0.00    +0.000 C 
BRANCH  24  25
ATOM     25  C   UNL     1      -2.170  12.931  21.480  0.00  0.00    +0.000 C 
BRANCH  25  26
ATOM     26  C   UNL     1      -2.138  12.545  22.947  0.00  0.00    +0.000 C 
BRANCH  26  27
ATOM     27  C   UNL     1      -2.214  13.789  23.814  0.00  0.00    +0.000 C 
BRANCH  27  29
ATOM     28  C   UNL     1      -4.222  12.496  24.521  0.00  0.00    +0.000 C 
ATOM     29  C   UNL     1      -3.560  13.859  24.519  0.00  0.00    +0.000 C 
ENDBRANCH  27  29
ENDBRANCH  26  27
ENDBRANCH  25  26
ENDBRANCH  24  25
ENDBRANCH  23  24
ENDBRANCH  22  23
ENDBRANCH  21  22
ENDBRANCH  20  21
ENDBRANCH  19  20
ENDBRANCH  18  19
ENDBRANCH  17  18
ENDBRANCH  16  17
ENDBRANCH   1  16
TORSDOF 18
ENDMDL
MODEL 8
REMARK VINA RESULT:      -5.5      5.308      8.123
REMARK  Name = 
REMARK  20 active torsions:
REMARK  status: ('A' for Active; 'I' for Inactive)
REMARK    1  A    between atoms: C_1  and  C_2
REMARK    2  A    between atoms: C_2  and  C_3
REMARK    3  A    between atoms: C_3  and  C_4
REMARK    4  A    between atoms: C_4  and  C_5
REMARK    5  A    between atoms: C_5  and  C_6
REMARK    6  A    between atoms: C_6  and  C_7
REMARK    7  A    between atoms: C_7  and  C_8
REMARK    8  A    between atoms: C_8  and  C_9
REMARK    9  A    between atoms: C_9  and  C_10
REMARK   10  A    between atoms: C_10  and  C_11
REMARK   11  A    between atoms: C_11  and  C_12
REMARK   12  A    between atoms: C_12  and  C_13
REMARK   13  A    between atoms: C_13  and  C_14
REMARK   14  A    between atoms: C_14  and  C_15
REMARK   15  A    between atoms: C_15  and  C_16
REMARK   16  A    between atoms: C_16  and  O_17
REMARK   17  A    between atoms: O_17  and  C_18
REMARK   18  A    between atoms: N_20  and  C_21
REMARK   19  A    between atoms: C_24  and  O_25
REMARK   20  A    between atoms: O_25  and  C_26
REMARK                            x       y       z     vdW  Elec       q    Type
REMARK                         _______ _______ _______ _____ _____    ______ ____
ROOT
ATOM      1  C   UNL     1       2.609   7.901  18.387  0.00  0.00    +0.000 C 
ENDROOT
BRANCH   1   2
ATOM      2  C   UNL     1       1.650   8.663  19.289  0.00  0.00    +0.000 C 
BRANCH   2   3
ATOM      3  O   UNL     1       1.482  10.041  18.817  0.00  0.00    +0.000 OA
BRANCH   3   4
ATOM      4  C   UNL     1       0.482  10.718  19.462  0.00  0.00    +0.000 C 
ATOM      5  O   UNL     1      -0.526  11.065  18.887  0.00  0.00    +0.000 OA
ATOM      6  N   UNL     1       0.777  10.989  20.803  0.00  0.00    +0.000 N 
ATOM      7  H   UNL     1       1.714  10.775  21.113  0.00  0.00    +0.000 HD
BRANCH   6   8
ATOM      8  C   UNL     1      -0.069  11.756  21.641  0.00  0.00    +0.000 A 
ATOM      9  C   UNL     1      -1.115  11.198  22.387  0.00  0.00    +0.000 A 
ATOM     10  C   UNL     1      -2.029  11.996  23.090  0.00  0.00    +0.000 A 
ATOM     11  C   UNL     1      -1.831  13.372  23.199  0.00  0.00    +0.000 A 
ATOM     12  C   UNL     1      -0.791  13.945  22.475  0.00  0.00    +0.000 A 
ATOM     13  C   UNL     1       0.088  13.143  21.715  0.00  0.00    +0.000 A 
BRANCH  11  14
ATOM     14  O   UNL     1      -2.700  14.056  24.005  0.00  0.00    +0.000 OA
ATOM     15  C   UNL     1      -3.790  13.283  24.515  0.00  0.00    +0.000 C 
ENDBRANCH  11  14
ENDBRANCH   6   8
ENDBRANCH   3   4
ENDBRANCH   2   3
ENDBRANCH   1   2
BRANCH   1  16
ATOM     16  C   UNL     1       2.533   6.386  18.589  0.00  0.00    +0.000 C 
BRANCH  16  17
ATOM     17  C   UNL     1       1.955   6.036  19.959  0.00  0.00    +0.000 C 
BRANCH  17  18
ATOM     18  C   UNL     1       2.820   5.004  20.670  0.00  0.00    +0.000 C 
BRANCH  18  19
ATOM     19  C   UNL     1       2.039   3.737  20.934  0.00  0.00    +0.000 C 
BRANCH  19  20
ATOM     20  C   UNL     1       0.785   3.730  20.080  0.00  0.00    +0.000 C 
BRANCH  20  21
ATOM     21  C   UNL     1       0.948   2.741  18.944  0.00  0.00    +0.000 C 
BRANCH  21  22
ATOM     22  C   UNL     1       2.184   1.891  19.172  0.00  0.00    +0.000 C 
BRANCH  22  23
ATOM     23  C   UNL     1       3.051   1.902  17.928  0.00  0.00    +0.000 C 
BRANCH  23  24
ATOM     24  C   UNL     1       4.041   3.047  18.002  0.00  0.00    +0.000 C 
BRANCH  24  25
ATOM     25  C   UNL     1       4.056   3.803  16.685  0.00  0.00    +0.000 C 
BRANCH  25  26
ATOM     26  C   UNL     1       5.481   3.929  16.177  0.00  0.00    +0.000 C 
BRANCH  26  27
ATOM     27  C   UNL     1       5.631   5.201  15.362  0.00  0.00    +0.000 C 
BRANCH  27  29
ATOM     28  C   UNL     1       6.254   6.865  17.106  0.00  0.00    +0.000 C 
ATOM     29  C   UNL     1       5.159   6.403  16.165  0.00  0.00    +0.000 C 
ENDBRANCH  27  29
ENDBRANCH  26  27
ENDBRANCH  25  26
ENDBRANCH  24  25
ENDBRANCH  23  24
ENDBRANCH  22  23
ENDBRANCH  21  22
ENDBRANCH  20  21
ENDBRANCH  19  20
ENDBRANCH  18  19
ENDBRANCH  17  18
ENDBRANCH  16  17
ENDBRANCH   1  16
TORSDOF 18
ENDMDL
MODEL 9
REMARK VINA RESULT:      -5.4      4.989      6.738
REMARK  Name = 
REMARK  20 active torsions:
REMARK  status: ('A' for Active; 'I' for Inactive)
REMARK    1  A    between atoms: C_1  and  C_2
REMARK    2  A    between atoms: C_2  and  C_3
REMARK    3  A    between atoms: C_3  and  C_4
REMARK    4  A    between atoms: C_4  and  C_5
REMARK    5  A    between atoms: C_5  and  C_6
REMARK    6  A    between atoms: C_6  and  C_7
REMARK    7  A    between atoms: C_7  and  C_8
REMARK    8  A    between atoms: C_8  and  C_9
REMARK    9  A    between atoms: C_9  and  C_10
REMARK   10  A    between atoms: C_10  and  C_11
REMARK   11  A    between atoms: C_11  and  C_12
REMARK   12  A    between atoms: C_12  and  C_13
REMARK   13  A    between atoms: C_13  and  C_14
REMARK   14  A    between atoms: C_14  and  C_15
REMARK   15  A    between atoms: C_15  and  C_16
REMARK   16  A    between atoms: C_16  and  O_17
REMARK   17  A    between atoms: O_17  and  C_18
REMARK   18  A    between atoms: N_20  and  C_21
REMARK   19  A    between atoms: C_24  and  O_25
REMARK   20  A    between atoms: O_25  and  C_26
REMARK                            x       y       z     vdW  Elec       q    Type
REMARK                         _______ _______ _______ _____ _____    ______ ____
ROOT
ATOM      1  C   UNL     1       1.337   7.199  20.583  0.00  0.00    +0.000 C 
ENDROOT
BRANCH   1   2
ATOM      2  C   UNL     1       1.947   8.057  19.485  0.00  0.00    +0.000 C 
BRANCH   2   3
ATOM      3  O   UNL     1       0.949   8.985  18.942  0.00  0.00    +0.000 OA
BRANCH   3   4
ATOM      4  C   UNL     1       1.149  10.284  19.329  0.00  0.00    +0.000 C 
ATOM      5  O   UNL     1       1.119  10.613  20.494  0.00  0.00    +0.000 OA
ATOM      6  N   UNL     1       1.341  11.155  18.251  0.00  0.00    +0.000 N 
ATOM      7  H   UNL     1       1.193  10.773  17.328  0.00  0.00    +0.000 HD
BRANCH   6   8
ATOM      8  C   UNL     1       1.475  12.557  18.405  0.00  0.00    +0.000 A 
ATOM      9  C   UNL     1       2.707  13.219  18.330  0.00  0.00    +0.000 A 
ATOM     10  C   UNL     1       2.834  14.582  18.632  0.00  0.00    +0.000 A 
ATOM     11  C   UNL     1       1.703  15.364  18.866  0.00  0.00    +0.000 A 
ATOM     12  C   UNL     1       0.468  14.729  18.934  0.00  0.00    +0.000 A 
ATOM     13  C   UNL     1       0.354  13.341  18.693  0.00  0.00    +0.000 A 
BRANCH  11  14
ATOM     14  O   UNL     1       1.908  16.707  19.031  0.00  0.00    +0.000 OA
ATOM     15  C   UNL     1       1.205  17.544  18.109  0.00  0.00    +0.000 C 
ENDBRANCH  11  14
ENDBRANCH   6   8
ENDBRANCH   3   4
ENDBRANCH   2   3
ENDBRANCH   1   2
BRANCH   1  16
ATOM     16  C   UNL     1       2.028   5.841  20.724  0.00  0.00    +0.000 C 
BRANCH  16  17
ATOM     17  C   UNL     1       1.049   4.693  20.487  0.00  0.00    +0.000 C 
BRANCH  17  18
ATOM     18  C   UNL     1       1.666   3.358  20.885  0.00  0.00    +0.000 C 
BRANCH  18  19
ATOM     19  C   UNL     1       1.497   2.336  19.784  0.00  0.00    +0.000 C 
BRANCH  19  20
ATOM     20  C   UNL     1       2.812   2.169  19.045  0.00  0.00    +0.000 C 
BRANCH  20  21
ATOM     21  C   UNL     1       2.628   2.541  17.588  0.00  0.00    +0.000 C 
BRANCH  21  22
ATOM     22  C   UNL     1       3.726   3.493  17.155  0.00  0.00    +0.000 C 
BRANCH  22  23
ATOM     23  C   UNL     1       3.363   4.910  17.553  0.00  0.00    +0.000 C 
BRANCH  23  24
ATOM     24  C   UNL     1       4.534   5.560  18.264  0.00  0.00    +0.000 C 
BRANCH  24  25
ATOM     25  C   UNL     1       5.678   4.570  18.387  0.00  0.00    +0.000 C 
BRANCH  25  26
ATOM     26  C   UNL     1       6.999   5.269  18.119  0.00  0.00    +0.000 C 
BRANCH  26  27
ATOM     27  C   UNL     1       7.054   5.740  16.678  0.00  0.00    +0.000 C 
BRANCH  27  29
ATOM     28  C   UNL     1       6.018   4.782  14.626  0.00  0.00    +0.000 C 
ATOM     29  C   UNL     1       7.029   4.550  15.731  0.00  0.00    +0.000 C 
ENDBRANCH  27  29
ENDBRANCH  26  27
ENDBRANCH  25  26
ENDBRANCH  24  25
ENDBRANCH  23  24
ENDBRANCH  22  23
ENDBRANCH  21  22
ENDBRANCH  20  21
ENDBRANCH  19  20
ENDBRANCH  18  19
ENDBRANCH  17  18
ENDBRANCH  16  17
ENDBRANCH   1  16
TORSDOF 18
ENDMDL
