MODEL 1
REMARK VINA RESULT:      -7.7      0.000      0.000
REMARK  Name = 
REMARK  9 active torsions:
REMARK  status: ('A' for Active; 'I' for Inactive)
REMARK    1  A    between atoms: C_1  and  O_2
REMARK    2  A    between atoms: O_2  and  C_3
REMARK    3  A    between atoms: C_3  and  C_4
REMARK    4  A    between atoms: C_7  and  C_8
REMARK    5  A    between atoms: N_10  and  C_11
REMARK    6  A    between atoms: C_17  and  C_18
REMARK    7  A    between atoms: C_20  and  N_21
REMARK    8  A    between atoms: C_22  and  C_24
REMARK    9  A    between atoms: C_25  and  C_26
REMARK                            x       y       z     vdW  Elec       q    Type
REMARK                         _______ _______ _______ _____ _____    ______ ____
ROOT
ATOM      1  C   UNL     1       2.169  13.150  18.206  0.00  0.00    +0.000 A 
ATOM      2  N   UNL     1       1.462  12.803  19.263  0.00  0.00    +0.000 NA
ATOM      3  C   UNL     1       1.475  11.424  19.296  0.00  0.00    +0.000 A 
ATOM      4  C   UNL     1       0.917  10.528  20.222  0.00  0.00    +0.000 A 
ATOM      5  C   UNL     1       1.052   9.143  19.997  0.00  0.00    +0.000 A 
ATOM      6  C   UNL     1       1.712   8.645  18.870  0.00  0.00    +0.000 A 
ATOM      7  C   UNL     1       2.318   9.541  17.965  0.00  0.00    +0.000 A 
ATOM      8  C   UNL     1       2.171  10.917  18.204  0.00  0.00    +0.000 A 
ATOM      9  N   UNL     1       2.601  12.035  17.527  0.00  0.00    +0.000 N 
ATOM     10  H   UNL     1       3.141  12.052  16.672  0.00  0.00    +0.000 HD
ENDROOT
BRANCH   4  11
ATOM     11  C   UNL     1       0.190  11.003  21.423  0.00  0.00    +0.000 C 
ATOM     12  O   UNL     1       0.293  10.372  22.470  0.00  0.00    +0.000 OA
ATOM     13  N   UNL     1      -0.635  12.096  21.240  0.00  0.00    +0.000 N 
ATOM     14  H   UNL     1      -0.789  12.408  20.283  0.00  0.00    +0.000 HD
BRANCH  13  15
ATOM     15  C   UNL     1      -1.427  12.662  22.258  0.00  0.00    +0.000 A 
ATOM     16  C   UNL     1      -2.598  12.008  22.662  0.00  0.00    +0.000 A 
ATOM     17  C   UNL     1      -3.365  12.511  23.708  0.00  0.00    +0.000 A 
ATOM     18  C   UNL     1      -2.967  13.683  24.345  0.00  0.00    +0.000 A 
ATOM     19  C   UNL     1      -1.811  14.351  23.936  0.00  0.00    +0.000 A 
ATOM     20 CL   UNL     1      -1.423  15.817  24.775  0.00  0.00    +0.000 Cl
ATOM     21  C   UNL     1      -1.017  13.857  22.883  0.00  0.00    +0.000 A 
ATOM     22  C   UNL     1       0.189  14.595  22.367  0.00  0.00    +0.000 C 
ENDBRANCH  13  15
ENDBRANCH   4  11
BRANCH   6  23
ATOM     23  N   UNL     1       1.788   7.263  18.561  0.00  0.00    +0.000 N 
ATOM     24  C   UNL     1       2.732   6.343  18.995  0.00  0.00    +0.000 C 
ATOM     25  O   UNL     1       3.693   6.596  19.712  0.00  0.00    +0.000 OA
ATOM     26  H   UNL     1       1.088   6.921  17.914  0.00  0.00    +0.000 HD
BRANCH  24  27
ATOM     27  C   UNL     1       2.558   4.917  18.542  0.00  0.00    +0.000 A 
ATOM     28  C   UNL     1       1.677   4.055  19.252  0.00  0.00    +0.000 A 
ATOM     29  C   UNL     1       0.769   4.493  20.375  0.00  0.00    +0.000 C 
ATOM     30  C   UNL     1       1.641   2.682  18.935  0.00  0.00    +0.000 A 
ATOM     31  C   UNL     1       2.407   2.163  17.899  0.00  0.00    +0.000 A 
ATOM     32  C   UNL     1       3.225   3.011  17.162  0.00  0.00    +0.000 A 
ATOM     33  C   UNL     1       3.313   4.374  17.482  0.00  0.00    +0.000 A 
ATOM     34 CL   UNL     1       4.421   5.287  16.510  0.00  0.00    +0.000 Cl
ENDBRANCH  24  27
ENDBRANCH   6  23
BRANCH   1  35
ATOM     35  C   UNL     1       2.518  14.537  17.785  0.00  0.00    +0.000 C 
BRANCH  35  37
ATOM     36  C   UNL     1       3.279  16.014  19.446  0.00  0.00    +0.000 C 
ATOM     37  O   UNL     1       2.135  15.419  18.841  0.00  0.00    +0.000 OA
ENDBRANCH  35  37
ENDBRANCH   1  35
TORSDOF 6
ENDMDL
MODEL 2
REMARK VINA RESULT:      -7.6      3.225      3.694
REMARK  Name = 
REMARK  9 active torsions:
REMARK  status: ('A' for Active; 'I' for Inactive)
REMARK    1  A    between atoms: C_1  and  O_2
REMARK    2  A    between atoms: O_2  and  C_3
REMARK    3  A    between atoms: C_3  and  C_4
REMARK    4  A    between atoms: C_7  and  C_8
REMARK    5  A    between atoms: N_10  and  C_11
REMARK    6  A    between atoms: C_17  and  C_18
REMARK    7  A    between atoms: C_20  and  N_21
REMARK    8  A    between atoms: C_22  and  C_24
REMARK    9  A    between atoms: C_25  and  C_26
REMARK                            x       y       z     vdW  Elec       q    Type
REMARK                         _______ _______ _______ _____ _____    ______ ____
ROOT
ATOM      1  C   UNL     1       0.748  13.708  19.211  0.00  0.00    +0.000 A 
ATOM      2  N   UNL     1      -0.344  13.021  18.943  0.00  0.00    +0.000 NA
ATOM      3  C   UNL     1       0.073  11.742  18.639  0.00  0.00    +0.000 A 
ATOM      4  C   UNL     1      -0.667  10.593  18.316  0.00  0.00    +0.000 A 
ATOM      5  C   UNL     1       0.022   9.401  18.012  0.00  0.00    +0.000 A 
ATOM      6  C   UNL     1       1.418   9.343  18.010  0.00  0.00    +0.000 A 
ATOM      7  C   UNL     1       2.163  10.480  18.383  0.00  0.00    +0.000 A 
ATOM      8  C   UNL     1       1.461  11.659  18.680  0.00  0.00    +0.000 A 
ATOM      9  N   UNL     1       1.865  12.922  19.045  0.00  0.00    +0.000 N 
ATOM     10  H   UNL     1       2.818  13.238  19.172  0.00  0.00    +0.000 HD
ENDROOT
BRANCH   4  11
ATOM     11  C   UNL     1      -2.149  10.605  18.285  0.00  0.00    +0.000 C 
ATOM     12  O   UNL     1      -2.745   9.596  17.924  0.00  0.00    +0.000 OA
ATOM     13  N   UNL     1      -2.751  11.811  18.588  0.00  0.00    +0.000 N 
ATOM     14  H   UNL     1      -2.147  12.625  18.676  0.00  0.00    +0.000 HD
BRANCH  13  15
ATOM     15  C   UNL     1      -4.145  12.018  18.575  0.00  0.00    +0.000 A 
ATOM     16  C   UNL     1      -4.858  11.819  17.386  0.00  0.00    +0.000 A 
ATOM     17  C   UNL     1      -6.243  11.954  17.359  0.00  0.00    +0.000 A 
ATOM     18  C   UNL     1      -6.917  12.306  18.526  0.00  0.00    +0.000 A 
ATOM     19  C   UNL     1      -6.211  12.524  19.710  0.00  0.00    +0.000 A 
ATOM     20 CL   UNL     1      -7.143  12.988  21.096  0.00  0.00    +0.000 Cl
ATOM     21  C   UNL     1      -4.810  12.388  19.761  0.00  0.00    +0.000 A 
ATOM     22  C   UNL     1      -4.013  12.693  21.001  0.00  0.00    +0.000 C 
ENDBRANCH  13  15
ENDBRANCH   4  11
BRANCH   6  23
ATOM     23  N   UNL     1       2.148   8.191  17.620  0.00  0.00    +0.000 N 
ATOM     24  C   UNL     1       2.666   7.193  18.434  0.00  0.00    +0.000 C 
ATOM     25  O   UNL     1       2.597   7.168  19.658  0.00  0.00    +0.000 OA
ATOM     26  H   UNL     1       2.343   8.111  16.629  0.00  0.00    +0.000 HD
BRANCH  24  27
ATOM     27  C   UNL     1       3.374   6.052  17.754  0.00  0.00    +0.000 A 
ATOM     28  C   UNL     1       2.734   4.786  17.654  0.00  0.00    +0.000 A 
ATOM     29  C   UNL     1       1.307   4.512  18.062  0.00  0.00    +0.000 C 
ATOM     30  C   UNL     1       3.457   3.676  17.171  0.00  0.00    +0.000 A 
ATOM     31  C   UNL     1       4.768   3.808  16.733  0.00  0.00    +0.000 A 
ATOM     32  C   UNL     1       5.380   5.054  16.772  0.00  0.00    +0.000 A 
ATOM     33  C   UNL     1       4.700   6.168  17.287  0.00  0.00    +0.000 A 
ATOM     34 CL   UNL     1       5.619   7.638  17.325  0.00  0.00    +0.000 Cl
ENDBRANCH  24  27
ENDBRANCH   6  23
BRANCH   1  35
ATOM     35  C   UNL     1       0.818  15.123  19.675  0.00  0.00    +0.000 C 
BRANCH  35  37
ATOM     36  C   UNL     1      -0.414  16.673  18.411  0.00  0.00    +0.000 C 
ATOM     37  O   UNL     1       0.814  15.959  18.518  0.00  0.00    +0.000 OA
ENDBRANCH  35  37
ENDBRANCH   1  35
TORSDOF 6
ENDMDL
MODEL 3
REMARK VINA RESULT:      -7.6      1.725      1.942
REMARK  Name = 
REMARK  9 active torsions:
REMARK  status: ('A' for Active; 'I' for Inactive)
REMARK    1  A    between atoms: C_1  and  O_2
REMARK    2  A    between atoms: O_2  and  C_3
REMARK    3  A    between atoms: C_3  and  C_4
REMARK    4  A    between atoms: C_7  and  C_8
REMARK    5  A    between atoms: N_10  and  C_11
REMARK    6  A    between atoms: C_17  and  C_18
REMARK    7  A    between atoms: C_20  and  N_21
REMARK    8  A    between atoms: C_22  and  C_24
REMARK    9  A    between atoms: C_25  and  C_26
REMARK                            x       y       z     vdW  Elec       q    Type
REMARK                         _______ _______ _______ _____ _____    ______ ____
ROOT
ATOM      1  C   UNL     1       2.026  13.867  18.239  0.00  0.00    +0.000 A 
ATOM      2  N   UNL     1       0.867  13.387  18.642  0.00  0.00    +0.000 NA
ATOM      3  C   UNL     1       0.989  12.013  18.604  0.00  0.00    +0.000 A 
ATOM      4  C   UNL     1       0.078  11.006  18.962  0.00  0.00    +0.000 A 
ATOM      5  C   UNL     1       0.450   9.657  18.791  0.00  0.00    +0.000 A 
ATOM      6  C   UNL     1       1.693   9.303  18.260  0.00  0.00    +0.000 A 
ATOM      7  C   UNL     1       2.629  10.310  17.946  0.00  0.00    +0.000 A 
ATOM      8  C   UNL     1       2.241  11.648  18.122  0.00  0.00    +0.000 A 
ATOM      9  N   UNL     1       2.880  12.844  17.897  0.00  0.00    +0.000 N 
ATOM     10  H   UNL     1       3.817  12.970  17.537  0.00  0.00    +0.000 HD
ENDROOT
BRANCH   4  11
ATOM     11  C   UNL     1      -1.261  11.328  19.512  0.00  0.00    +0.000 C 
ATOM     12  O   UNL     1      -2.257  10.876  18.956  0.00  0.00    +0.000 OA
ATOM     13  N   UNL     1      -1.283  12.203  20.580  0.00  0.00    +0.000 N 
ATOM     14  H   UNL     1      -0.409  12.665  20.824  0.00  0.00    +0.000 HD
BRANCH  13  15
ATOM     15  C   UNL     1      -2.464  12.648  21.207  0.00  0.00    +0.000 A 
ATOM     16  C   UNL     1      -3.373  13.432  20.484  0.00  0.00    +0.000 A 
ATOM     17  C   UNL     1      -4.576  13.832  21.057  0.00  0.00    +0.000 A 
ATOM     18  C   UNL     1      -4.867  13.457  22.366  0.00  0.00    +0.000 A 
ATOM     19  C   UNL     1      -3.958  12.691  23.099  0.00  0.00    +0.000 A 
ATOM     20 CL   UNL     1      -4.404  12.307  24.730  0.00  0.00    +0.000 Cl
ATOM     21  C   UNL     1      -2.737  12.271  22.538  0.00  0.00    +0.000 A 
ATOM     22  C   UNL     1      -1.703  11.514  23.326  0.00  0.00    +0.000 C 
ENDBRANCH  13  15
ENDBRANCH   4  11
BRANCH   6  23
ATOM     23  N   UNL     1       2.068   7.963  17.985  0.00  0.00    +0.000 N 
ATOM     24  C   UNL     1       2.480   6.991  18.887  0.00  0.00    +0.000 C 
ATOM     25  O   UNL     1       2.616   7.154  20.094  0.00  0.00    +0.000 OA
ATOM     26  H   UNL     1       2.069   7.700  17.007  0.00  0.00    +0.000 HD
BRANCH  24  27
ATOM     27  C   UNL     1       2.787   5.626  18.331  0.00  0.00    +0.000 A 
ATOM     28  C   UNL     1       2.108   4.487  18.844  0.00  0.00    +0.000 A 
ATOM     29  C   UNL     1       0.971   4.542  19.836  0.00  0.00    +0.000 C 
ATOM     30  C   UNL     1       2.512   3.196  18.447  0.00  0.00    +0.000 A 
ATOM     31  C   UNL     1       3.524   3.017  17.513  0.00  0.00    +0.000 A 
ATOM     32  C   UNL     1       4.152   4.127  16.962  0.00  0.00    +0.000 A 
ATOM     33  C   UNL     1       3.800   5.422  17.370  0.00  0.00    +0.000 A 
ATOM     34 CL   UNL     1       4.715   6.698  16.636  0.00  0.00    +0.000 Cl
ENDBRANCH  24  27
ENDBRANCH   6  23
BRANCH   1  35
ATOM     35  C   UNL     1       2.424  15.303  18.185  0.00  0.00    +0.000 C 
BRANCH  35  37
ATOM     36  C   UNL     1       2.753  16.023  20.397  0.00  0.00    +0.000 C 
ATOM     37  O   UNL     1       1.836  15.958  19.309  0.00  0.00    +0.000 OA
ENDBRANCH  35  37
ENDBRANCH   1  35
TORSDOF 6
ENDMDL
MODEL 4
REMARK VINA RESULT:      -7.6      1.449      1.758
REMARK  Name = 
REMARK  9 active torsions:
REMARK  status: ('A' for Active; 'I' for Inactive)
REMARK    1  A    between atoms: C_1  and  O_2
REMARK    2  A    between atoms: O_2  and  C_3
REMARK    3  A    between atoms: C_3  and  C_4
REMARK    4  A    between atoms: C_7  and  C_8
REMARK    5  A    between atoms: N_10  and  C_11
REMARK    6  A    between atoms: C_17  and  C_18
REMARK    7  A    between atoms: C_20  and  N_21
REMARK    8  A    between atoms: C_22  and  C_24
REMARK    9  A    between atoms: C_25  and  C_26
REMARK                            x       y       z     vdW  Elec       q    Type
REMARK                         _______ _______ _______ _____ _____    ______ ____
ROOT
ATOM      1  C   UNL     1       1.977  13.202  18.289  0.00  0.00    +0.000 A 
ATOM      2  N   UNL     1       1.106  12.760  19.173  0.00  0.00    +0.000 NA
ATOM      3  C   UNL     1       1.206  11.384  19.153  0.00  0.00    +0.000 A 
ATOM      4  C   UNL     1       0.543  10.409  19.917  0.00  0.00    +0.000 A 
ATOM      5  C   UNL     1       0.813   9.048  19.668  0.00  0.00    +0.000 A 
ATOM      6  C   UNL     1       1.710   8.650  18.674  0.00  0.00    +0.000 A 
ATOM      7  C   UNL     1       2.416   9.625  17.940  0.00  0.00    +0.000 A 
ATOM      8  C   UNL     1       2.133  10.976  18.200  0.00  0.00    +0.000 A 
ATOM      9  N   UNL     1       2.608  12.150  17.664  0.00  0.00    +0.000 N 
ATOM     10  H   UNL     1       3.299  12.244  16.932  0.00  0.00    +0.000 HD
ENDROOT
BRANCH   4  11
ATOM     11  C   UNL     1      -0.432  10.778  20.970  0.00  0.00    +0.000 C 
ATOM     12  O   UNL     1      -0.571  10.038  21.939  0.00  0.00    +0.000 OA
ATOM     13  N   UNL     1      -1.189  11.908  20.727  0.00  0.00    +0.000 N 
ATOM     14  H   UNL     1      -1.123  12.323  19.800  0.00  0.00    +0.000 HD
BRANCH  13  15
ATOM     15  C   UNL     1      -2.186  12.388  21.599  0.00  0.00    +0.000 A 
ATOM     16  C   UNL     1      -1.871  12.621  22.944  0.00  0.00    +0.000 A 
ATOM     17  C   UNL     1      -2.819  13.154  23.812  0.00  0.00    +0.000 A 
ATOM     18  C   UNL     1      -4.095  13.443  23.336  0.00  0.00    +0.000 A 
ATOM     19  C   UNL     1      -4.423  13.196  22.001  0.00  0.00    +0.000 A 
ATOM     20 CL   UNL     1      -6.047  13.562  21.520  0.00  0.00    +0.000 Cl
ATOM     21  C   UNL     1      -3.478  12.662  21.104  0.00  0.00    +0.000 A 
ATOM     22  C   UNL     1      -3.823  12.311  19.682  0.00  0.00    +0.000 C 
ENDBRANCH  13  15
ENDBRANCH   4  11
BRANCH   6  23
ATOM     23  N   UNL     1       1.938   7.292  18.331  0.00  0.00    +0.000 N 
ATOM     24  C   UNL     1       2.534   6.306  19.105  0.00  0.00    +0.000 C 
ATOM     25  O   UNL     1       2.997   6.468  20.229  0.00  0.00    +0.000 OA
ATOM     26  H   UNL     1       1.664   7.026  17.394  0.00  0.00    +0.000 HD
BRANCH  24  27
ATOM     27  C   UNL     1       2.620   4.926  18.510  0.00  0.00    +0.000 A 
ATOM     28  C   UNL     1       1.830   3.875  19.052  0.00  0.00    +0.000 A 
ATOM     29  C   UNL     1       0.779   4.055  20.120  0.00  0.00    +0.000 C 
ATOM     30  C   UNL     1       2.033   2.551  18.610  0.00  0.00    +0.000 A 
ATOM     31  C   UNL     1       2.949   2.262  17.607  0.00  0.00    +0.000 A 
ATOM     32  C   UNL     1       3.681   3.292  17.031  0.00  0.00    +0.000 A 
ATOM     33  C   UNL     1       3.532   4.613  17.480  0.00  0.00    +0.000 A 
ATOM     34 CL   UNL     1       4.558   5.774  16.704  0.00  0.00    +0.000 Cl
ENDBRANCH  24  27
ENDBRANCH   6  23
BRANCH   1  35
ATOM     35  C   UNL     1       2.306  14.627  17.999  0.00  0.00    +0.000 C 
BRANCH  35  37
ATOM     36  C   UNL     1       1.009  16.440  18.739  0.00  0.00    +0.000 C 
ATOM     37  O   UNL     1       1.903  15.402  19.128  0.00  0.00    +0.000 OA
ENDBRANCH  35  37
ENDBRANCH   1  35
TORSDOF 6
ENDMDL
MODEL 5
REMARK VINA RESULT:      -7.5      1.008      1.560
REMARK  Name = 
REMARK  9 active torsions:
REMARK  status: ('A' for Active; 'I' for Inactive)
REMARK    1  A    between atoms: C_1  and  O_2
REMARK    2  A    between atoms: O_2  and  C_3
REMARK    3  A    between atoms: C_3  and  C_4
REMARK    4  A    between atoms: C_7  and  C_8
REMARK    5  A    between atoms: N_10  and  C_11
REMARK    6  A    between atoms: C_17  and  C_18
REMARK    7  A    between atoms: C_20  and  N_21
REMARK    8  A    between atoms: C_22  and  C_24
REMARK    9  A    between atoms: C_25  and  C_26
REMARK                            x       y       z     vdW  Elec       q    Type
REMARK                         _______ _______ _______ _____ _____    ______ ____
ROOT
ATOM      1  C   UNL     1       2.133  13.070  18.178  0.00  0.00    +0.000 A 
ATOM      2  N   UNL     1       1.430  12.728  19.239  0.00  0.00    +0.000 NA
ATOM      3  C   UNL     1       1.467  11.350  19.293  0.00  0.00    +0.000 A 
ATOM      4  C   UNL     1       0.923  10.458  20.232  0.00  0.00    +0.000 A 
ATOM      5  C   UNL     1       1.082   9.073  20.029  0.00  0.00    +0.000 A 
ATOM      6  C   UNL     1       1.754   8.569  18.912  0.00  0.00    +0.000 A 
ATOM      7  C   UNL     1       2.345   9.461  17.994  0.00  0.00    +0.000 A 
ATOM      8  C   UNL     1       2.175  10.838  18.211  0.00  0.00    +0.000 A 
ATOM      9  N   UNL     1       2.587  11.952  17.517  0.00  0.00    +0.000 N 
ATOM     10  H   UNL     1       3.128  11.966  16.663  0.00  0.00    +0.000 HD
ENDROOT
BRANCH   4  11
ATOM     11  C   UNL     1       0.185  10.940  21.424  0.00  0.00    +0.000 C 
ATOM     12  O   UNL     1       0.261  10.301  22.469  0.00  0.00    +0.000 OA
ATOM     13  N   UNL     1      -0.619  12.047  21.233  0.00  0.00    +0.000 N 
ATOM     14  H   UNL     1      -0.753  12.367  20.276  0.00  0.00    +0.000 HD
BRANCH  13  15
ATOM     15  C   UNL     1      -1.418  12.621  22.242  0.00  0.00    +0.000 A 
ATOM     16  C   UNL     1      -2.574  11.953  22.667  0.00  0.00    +0.000 A 
ATOM     17  C   UNL     1      -3.347  12.465  23.704  0.00  0.00    +0.000 A 
ATOM     18  C   UNL     1      -2.969  13.659  24.312  0.00  0.00    +0.000 A 
ATOM     19  C   UNL     1      -1.828  14.340  23.883  0.00  0.00    +0.000 A 
ATOM     20 CL   UNL     1      -1.465  15.833  24.686  0.00  0.00    +0.000 Cl
ATOM     21  C   UNL     1      -1.028  13.838  22.838  0.00  0.00    +0.000 A 
ATOM     22  C   UNL     1       0.161  14.586  22.299  0.00  0.00    +0.000 C 
ENDBRANCH  13  15
ENDBRANCH   4  11
BRANCH   6  23
ATOM     23  N   UNL     1       1.854   7.184  18.624  0.00  0.00    +0.000 N 
ATOM     24  C   UNL     1       2.848   6.300  19.022  0.00  0.00    +0.000 C 
ATOM     25  O   UNL     1       3.840   6.596  19.679  0.00  0.00    +0.000 OA
ATOM     26  H   UNL     1       1.130   6.808  18.024  0.00  0.00    +0.000 HD
BRANCH  24  27
ATOM     27  C   UNL     1       2.694   4.862  18.605  0.00  0.00    +0.000 A 
ATOM     28  C   UNL     1       3.445   4.363  17.505  0.00  0.00    +0.000 A 
ATOM     29  C   UNL     1       4.519   5.136  16.779  0.00  0.00    +0.000 C 
ATOM     30  C   UNL     1       3.179   3.070  17.009  0.00  0.00    +0.000 A 
ATOM     31  C   UNL     1       2.237   2.248  17.615  0.00  0.00    +0.000 A 
ATOM     32  C   UNL     1       1.542   2.707  18.727  0.00  0.00    +0.000 A 
ATOM     33  C   UNL     1       1.755   4.005  19.217  0.00  0.00    +0.000 A 
ATOM     34 CL   UNL     1       0.770   4.450  20.571  0.00  0.00    +0.000 Cl
ENDBRANCH  24  27
ENDBRANCH   6  23
BRANCH   1  35
ATOM     35  C   UNL     1       2.459  14.456  17.736  0.00  0.00    +0.000 C 
BRANCH  35  37
ATOM     36  C   UNL     1       3.928  15.405  19.305  0.00  0.00    +0.000 C 
ATOM     37  O   UNL     1       2.568  15.269  18.905  0.00  0.00    +0.000 OA
ENDBRANCH  35  37
ENDBRANCH   1  35
TORSDOF 6
ENDMDL
MODEL 6
REMARK VINA RESULT:      -7.5      2.412      5.131
REMARK  Name = 
REMARK  9 active torsions:
REMARK  status: ('A' for Active; 'I' for Inactive)
REMARK    1  A    between atoms: C_1  and  O_2
REMARK    2  A    between atoms: O_2  and  C_3
REMARK    3  A    between atoms: C_3  and  C_4
REMARK    4  A    between atoms: C_7  and  C_8
REMARK    5  A    between atoms: N_10  and  C_11
REMARK    6  A    between atoms: C_17  and  C_18
REMARK    7  A    between atoms: C_20  and  N_21
REMARK    8  A    between atoms: C_22  and  C_24
REMARK    9  A    between atoms: C_25  and  C_26
REMARK                            x       y       z     vdW  Elec       q    Type
REMARK                         _______ _______ _______ _____ _____    ______ ____
ROOT
ATOM      1  C   UNL     1      -1.146  11.610  22.653  0.00  0.00    +0.000 A 
ATOM      2  N   UNL     1      -0.433  12.023  21.625  0.00  0.00    +0.000 NA
ATOM      3  C   UNL     1       0.233  10.913  21.151  0.00  0.00    +0.000 A 
ATOM      4  C   UNL     1       1.097  10.766  20.053  0.00  0.00    +0.000 A 
ATOM      5  C   UNL     1       1.678   9.505  19.805  0.00  0.00    +0.000 A 
ATOM      6  C   UNL     1       1.425   8.408  20.633  0.00  0.00    +0.000 A 
ATOM      7  C   UNL     1       0.519   8.538  21.705  0.00  0.00    +0.000 A 
ATOM      8  C   UNL     1      -0.048   9.802  21.938  0.00  0.00    +0.000 A 
ATOM      9  N   UNL     1      -0.926  10.272  22.887  0.00  0.00    +0.000 N 
ATOM     10  H   UNL     1      -1.346   9.740  23.638  0.00  0.00    +0.000 HD
ENDROOT
BRANCH   4  11
ATOM     11  C   UNL     1       1.414  11.902  19.155  0.00  0.00    +0.000 C 
ATOM     12  O   UNL     1       1.257  11.767  17.946  0.00  0.00    +0.000 OA
ATOM     13  N   UNL     1       1.957  13.020  19.760  0.00  0.00    +0.000 N 
ATOM     14  H   UNL     1       2.225  12.936  20.738  0.00  0.00    +0.000 HD
BRANCH  13  15
ATOM     15  C   UNL     1       2.351  14.178  19.061  0.00  0.00    +0.000 A 
ATOM     16  C   UNL     1       3.626  14.232  18.483  0.00  0.00    +0.000 A 
ATOM     17  C   UNL     1       4.017  15.338  17.734  0.00  0.00    +0.000 A 
ATOM     18  C   UNL     1       3.133  16.401  17.572  0.00  0.00    +0.000 A 
ATOM     19  C   UNL     1       1.867  16.362  18.160  0.00  0.00    +0.000 A 
ATOM     20 CL   UNL     1       0.858  17.751  17.924  0.00  0.00    +0.000 Cl
ATOM     21  C   UNL     1       1.449  15.252  18.918  0.00  0.00    +0.000 A 
ATOM     22  C   UNL     1       0.123  15.213  19.630  0.00  0.00    +0.000 C 
ENDBRANCH  13  15
ENDBRANCH   4  11
BRANCH   6  23
ATOM     23  N   UNL     1       2.061   7.151  20.472  0.00  0.00    +0.000 N 
ATOM     24  C   UNL     1       2.353   6.488  19.288  0.00  0.00    +0.000 C 
ATOM     25  O   UNL     1       2.072   6.886  18.163  0.00  0.00    +0.000 OA
ATOM     26  H   UNL     1       2.294   6.665  21.330  0.00  0.00    +0.000 HD
BRANCH  24  27
ATOM     27  C   UNL     1       3.072   5.170  19.399  0.00  0.00    +0.000 A 
ATOM     28  C   UNL     1       4.392   5.042  18.883  0.00  0.00    +0.000 A 
ATOM     29  C   UNL     1       5.213   6.184  18.336  0.00  0.00    +0.000 C 
ATOM     30  C   UNL     1       5.000   3.771  18.834  0.00  0.00    +0.000 A 
ATOM     31  C   UNL     1       4.359   2.647  19.338  0.00  0.00    +0.000 A 
ATOM     32  C   UNL     1       3.094   2.775  19.898  0.00  0.00    +0.000 A 
ATOM     33  C   UNL     1       2.446   4.020  19.922  0.00  0.00    +0.000 A 
ATOM     34 CL   UNL     1       0.850   4.005  20.599  0.00  0.00    +0.000 Cl
ENDBRANCH  24  27
ENDBRANCH   6  23
BRANCH   1  35
ATOM     35  C   UNL     1      -2.104  12.422  23.455  0.00  0.00    +0.000 C 
BRANCH  35  37
ATOM     36  C   UNL     1      -4.213  12.913  22.545  0.00  0.00    +0.000 C 
ATOM     37  O   UNL     1      -3.417  11.926  23.193  0.00  0.00    +0.000 OA
ENDBRANCH  35  37
ENDBRANCH   1  35
TORSDOF 6
ENDMDL
MODEL 7
REMARK VINA RESULT:      -7.5      2.191      4.741
REMARK  Name = 
REMARK  9 active torsions:
REMARK  status: ('A' for Active; 'I' for Inactive)
REMARK    1  A    between atoms: C_1  and  O_2
REMARK    2  A    between atoms: O_2  and  C_3
REMARK    3  A    between atoms: C_3  and  C_4
REMARK    4  A    between atoms: C_7  and  C_8
REMARK    5  A    between atoms: N_10  and  C_11
REMARK    6  A    between atoms: C_17  and  C_18
REMARK    7  A    between atoms: C_20  and  N_21
REMARK    8  A    between atoms: C_22  and  C_24
REMARK    9  A    between atoms: C_25  and  C_26
REMARK                            x       y       z     vdW  Elec       q    Type
REMARK                         _______ _______ _______ _____ _____    ______ ____
ROOT
ATOM      1  C   UNL     1      -1.153  11.553  22.665  0.00  0.00    +0.000 A 
ATOM      2  N   UNL     1      -0.431  11.974  21.646  0.00  0.00    +0.000 NA
ATOM      3  C   UNL     1       0.226  10.863  21.159  0.00  0.00    +0.000 A 
ATOM      4  C   UNL     1       1.093  10.723  20.063  0.00  0.00    +0.000 A 
ATOM      5  C   UNL     1       1.663   9.461  19.800  0.00  0.00    +0.000 A 
ATOM      6  C   UNL     1       1.396   8.355  20.611  0.00  0.00    +0.000 A 
ATOM      7  C   UNL     1       0.486   8.478  21.681  0.00  0.00    +0.000 A 
ATOM      8  C   UNL     1      -0.070   9.744  21.929  0.00  0.00    +0.000 A 
ATOM      9  N   UNL     1      -0.947  10.209  22.881  0.00  0.00    +0.000 N 
ATOM     10  H   UNL     1      -1.376   9.671  23.622  0.00  0.00    +0.000 HD
ENDROOT
BRANCH   4  11
ATOM     11  C   UNL     1       1.425  11.869  19.183  0.00  0.00    +0.000 C 
ATOM     12  O   UNL     1       1.282  11.750  17.970  0.00  0.00    +0.000 OA
ATOM     13  N   UNL     1       1.965  12.977  19.808  0.00  0.00    +0.000 N 
ATOM     14  H   UNL     1       2.221  12.881  20.788  0.00  0.00    +0.000 HD
BRANCH  13  15
ATOM     15  C   UNL     1       2.372  14.142  19.127  0.00  0.00    +0.000 A 
ATOM     16  C   UNL     1       3.635  14.181  18.524  0.00  0.00    +0.000 A 
ATOM     17  C   UNL     1       4.038  15.294  17.792  0.00  0.00    +0.000 A 
ATOM     18  C   UNL     1       3.176  16.381  17.675  0.00  0.00    +0.000 A 
ATOM     19  C   UNL     1       1.922  16.358  18.288  0.00  0.00    +0.000 A 
ATOM     20 CL   UNL     1       0.941  17.775  18.106  0.00  0.00    +0.000 Cl
ATOM     21  C   UNL     1       1.493  15.240  19.029  0.00  0.00    +0.000 A 
ATOM     22  C   UNL     1       0.182  15.215  19.768  0.00  0.00    +0.000 C 
ENDBRANCH  13  15
ENDBRANCH   4  11
BRANCH   6  23
ATOM     23  N   UNL     1       2.020   7.093  20.435  0.00  0.00    +0.000 N 
ATOM     24  C   UNL     1       2.302   6.440  19.243  0.00  0.00    +0.000 C 
ATOM     25  O   UNL     1       2.019   6.852  18.124  0.00  0.00    +0.000 OA
ATOM     26  H   UNL     1       2.252   6.597  21.287  0.00  0.00    +0.000 HD
BRANCH  24  27
ATOM     27  C   UNL     1       3.010   5.115  19.338  0.00  0.00    +0.000 A 
ATOM     28  C   UNL     1       2.345   4.002  19.925  0.00  0.00    +0.000 A 
ATOM     29  C   UNL     1       0.898   3.996  20.354  0.00  0.00    +0.000 C 
ATOM     30  C   UNL     1       3.061   2.812  20.168  0.00  0.00    +0.000 A 
ATOM     31  C   UNL     1       4.390   2.683  19.787  0.00  0.00    +0.000 A 
ATOM     32  C   UNL     1       5.028   3.745  19.159  0.00  0.00    +0.000 A 
ATOM     33  C   UNL     1       4.354   4.956  18.943  0.00  0.00    +0.000 A 
ATOM     34 CL   UNL     1       5.303   6.204  18.204  0.00  0.00    +0.000 Cl
ENDBRANCH  24  27
ENDBRANCH   6  23
BRANCH   1  35
ATOM     35  C   UNL     1      -2.107  12.363  23.475  0.00  0.00    +0.000 C 
BRANCH  35  37
ATOM     36  C   UNL     1      -1.471  14.552  24.042  0.00  0.00    +0.000 C 
ATOM     37  O   UNL     1      -2.016  13.715  23.026  0.00  0.00    +0.000 OA
ENDBRANCH  35  37
ENDBRANCH   1  35
TORSDOF 6
ENDMDL
MODEL 8
REMARK VINA RESULT:      -7.5      3.271      3.851
REMARK  Name = 
REMARK  9 active torsions:
REMARK  status: ('A' for Active; 'I' for Inactive)
REMARK    1  A    between atoms: C_1  and  O_2
REMARK    2  A    between atoms: O_2  and  C_3
REMARK    3  A    between atoms: C_3  and  C_4
REMARK    4  A    between atoms: C_7  and  C_8
REMARK    5  A    between atoms: N_10  and  C_11
REMARK    6  A    between atoms: C_17  and  C_18
REMARK    7  A    between atoms: C_20  and  N_21
REMARK    8  A    between atoms: C_22  and  C_24
REMARK    9  A    between atoms: C_25  and  C_26
REMARK                            x       y       z     vdW  Elec       q    Type
REMARK                         _______ _______ _______ _____ _____    ______ ____
ROOT
ATOM      1  C   UNL     1       0.775  13.723  18.831  0.00  0.00    +0.000 A 
ATOM      2  N   UNL     1      -0.338  13.041  18.651  0.00  0.00    +0.000 NA
ATOM      3  C   UNL     1       0.044  11.730  18.455  0.00  0.00    +0.000 A 
ATOM      4  C   UNL     1      -0.729  10.575  18.255  0.00  0.00    +0.000 A 
ATOM      5  C   UNL     1      -0.074   9.344  18.044  0.00  0.00    +0.000 A 
ATOM      6  C   UNL     1       1.320   9.253  18.016  0.00  0.00    +0.000 A 
ATOM      7  C   UNL     1       2.099  10.401  18.267  0.00  0.00    +0.000 A 
ATOM      8  C   UNL     1       1.429  11.618  18.473  0.00  0.00    +0.000 A 
ATOM      9  N   UNL     1       1.870  12.899  18.712  0.00  0.00    +0.000 N 
ATOM     10  H   UNL     1       2.832  13.202  18.788  0.00  0.00    +0.000 HD
ENDROOT
BRANCH   4  11
ATOM     11  C   UNL     1      -2.211  10.620  18.257  0.00  0.00    +0.000 C 
ATOM     12  O   UNL     1      -2.836   9.653  17.833  0.00  0.00    +0.000 OA
ATOM     13  N   UNL     1      -2.781  11.811  18.664  0.00  0.00    +0.000 N 
ATOM     14  H   UNL     1      -2.157  12.603  18.801  0.00  0.00    +0.000 HD
BRANCH  13  15
ATOM     15  C   UNL     1      -4.169  12.046  18.696  0.00  0.00    +0.000 A 
ATOM     16  C   UNL     1      -4.939  11.781  17.556  0.00  0.00    +0.000 A 
ATOM     17  C   UNL     1      -6.320  11.944  17.580  0.00  0.00    +0.000 A 
ATOM     18  C   UNL     1      -6.935  12.390  18.747  0.00  0.00    +0.000 A 
ATOM     19  C   UNL     1      -6.173  12.674  19.882  0.00  0.00    +0.000 A 
ATOM     20 CL   UNL     1      -7.034  13.253  21.271  0.00  0.00    +0.000 Cl
ATOM     21  C   UNL     1      -4.774  12.511  19.882  0.00  0.00    +0.000 A 
ATOM     22  C   UNL     1      -3.917  12.884  21.061  0.00  0.00    +0.000 C 
ENDBRANCH  13  15
ENDBRANCH   4  11
BRANCH   6  23
ATOM     23  N   UNL     1       2.014   8.053  17.715  0.00  0.00    +0.000 N 
ATOM     24  C   UNL     1       2.553   7.134  18.604  0.00  0.00    +0.000 C 
ATOM     25  O   UNL     1       2.537   7.234  19.826  0.00  0.00    +0.000 OA
ATOM     26  H   UNL     1       2.165   7.870  16.730  0.00  0.00    +0.000 HD
BRANCH  24  27
ATOM     27  C   UNL     1       3.214   5.916  18.015  0.00  0.00    +0.000 A 
ATOM     28  C   UNL     1       4.395   6.063  17.237  0.00  0.00    +0.000 A 
ATOM     29  C   UNL     1       5.146   7.360  17.055  0.00  0.00    +0.000 C 
ATOM     30  C   UNL     1       4.918   4.950  16.548  0.00  0.00    +0.000 A 
ATOM     31  C   UNL     1       4.336   3.695  16.663  0.00  0.00    +0.000 A 
ATOM     32  C   UNL     1       3.216   3.531  17.469  0.00  0.00    +0.000 A 
ATOM     33  C   UNL     1       2.648   4.629  18.134  0.00  0.00    +0.000 A 
ATOM     34 CL   UNL     1       1.221   4.275  19.051  0.00  0.00    +0.000 Cl
ENDBRANCH  24  27
ENDBRANCH   6  23
BRANCH   1  35
ATOM     35  C   UNL     1       0.887  15.172  19.164  0.00  0.00    +0.000 C 
BRANCH  35  37
ATOM     36  C   UNL     1      -0.543  16.909  18.493  0.00  0.00    +0.000 C 
ATOM     37  O   UNL     1      -0.436  15.702  19.241  0.00  0.00    +0.000 OA
ENDBRANCH  35  37
ENDBRANCH   1  35
TORSDOF 6
ENDMDL
MODEL 9
REMARK VINA RESULT:      -7.3      1.469      1.912
REMARK  Name = 
REMARK  9 active torsions:
REMARK  status: ('A' for Active; 'I' for Inactive)
REMARK    1  A    between atoms: C_1  and  O_2
REMARK    2  A    between atoms: O_2  and  C_3
REMARK    3  A    between atoms: C_3  and  C_4
REMARK    4  A    between atoms: C_7  and  C_8
REMARK    5  A    between atoms: N_10  and  C_11
REMARK    6  A    between atoms: C_17  and  C_18
REMARK    7  A    between atoms: C_20  and  N_21
REMARK    8  A    between atoms: C_22  and  C_24
REMARK    9  A    between atoms: C_25  and  C_26
REMARK                            x       y       z     vdW  Elec       q    Type
REMARK                         _______ _______ _______ _____ _____    ______ ____
ROOT
ATOM      1  C   UNL     1       1.984  13.590  18.289  0.00  0.00    +0.000 A 
ATOM      2  N   UNL     1       1.056  13.149  19.114  0.00  0.00    +0.000 NA
ATOM      3  C   UNL     1       1.163  11.774  19.109  0.00  0.00    +0.000 A 
ATOM      4  C   UNL     1       0.452  10.801  19.831  0.00  0.00    +0.000 A 
ATOM      5  C   UNL     1       0.744   9.439  19.609  0.00  0.00    +0.000 A 
ATOM      6  C   UNL     1       1.708   9.039  18.681  0.00  0.00    +0.000 A 
ATOM      7  C   UNL     1       2.459  10.014  17.992  0.00  0.00    +0.000 A 
ATOM      8  C   UNL     1       2.154  11.365  18.224  0.00  0.00    +0.000 A 
ATOM      9  N   UNL     1       2.660  12.538  17.715  0.00  0.00    +0.000 N 
ATOM     10  H   UNL     1       3.399  12.631  17.031  0.00  0.00    +0.000 HD
ENDROOT
BRANCH   4  11
ATOM     11  C   UNL     1      -0.594  11.171  20.813  0.00  0.00    +0.000 C 
ATOM     12  O   UNL     1      -0.788  10.441  21.780  0.00  0.00    +0.000 OA
ATOM     13  N   UNL     1      -1.345  12.289  20.506  0.00  0.00    +0.000 N 
ATOM     14  H   UNL     1      -1.222  12.694  19.581  0.00  0.00    +0.000 HD
BRANCH  13  15
ATOM     15  C   UNL     1      -2.403  12.768  21.304  0.00  0.00    +0.000 A 
ATOM     16  C   UNL     1      -3.725  12.500  20.927  0.00  0.00    +0.000 A 
ATOM     17  C   UNL     1      -4.787  12.906  21.729  0.00  0.00    +0.000 A 
ATOM     18  C   UNL     1      -4.526  13.596  22.910  0.00  0.00    +0.000 A 
ATOM     19  C   UNL     1      -3.212  13.883  23.284  0.00  0.00    +0.000 A 
ATOM     20 CL   UNL     1      -3.000  14.774  24.755  0.00  0.00    +0.000 Cl
ATOM     21  C   UNL     1      -2.122  13.478  22.490  0.00  0.00    +0.000 A 
ATOM     22  C   UNL     1      -0.700  13.840  22.824  0.00  0.00    +0.000 C 
ENDBRANCH  13  15
ENDBRANCH   4  11
BRANCH   6  23
ATOM     23  N   UNL     1       1.964   7.681  18.362  0.00  0.00    +0.000 N 
ATOM     24  C   UNL     1       2.459   6.688  19.197  0.00  0.00    +0.000 C 
ATOM     25  O   UNL     1       2.788   6.843  20.367  0.00  0.00    +0.000 OA
ATOM     26  H   UNL     1       1.800   7.419  17.398  0.00  0.00    +0.000 HD
BRANCH  24  27
ATOM     27  C   UNL     1       2.604   5.309  18.610  0.00  0.00    +0.000 A 
ATOM     28  C   UNL     1       3.502   5.095  17.528  0.00  0.00    +0.000 A 
ATOM     29  C   UNL     1       4.453   6.133  16.985  0.00  0.00    +0.000 C 
ATOM     30  C   UNL     1       3.515   3.848  16.870  0.00  0.00    +0.000 A 
ATOM     31  C   UNL     1       2.709   2.801  17.298  0.00  0.00    +0.000 A 
ATOM     32  C   UNL     1       1.873   2.985  18.392  0.00  0.00    +0.000 A 
ATOM     33  C   UNL     1       1.807   4.227  19.041  0.00  0.00    +0.000 A 
ATOM     34 CL   UNL     1       0.674   4.315  20.349  0.00  0.00    +0.000 Cl
ENDBRANCH  24  27
ENDBRANCH   6  23
BRANCH   1  35
ATOM     35  C   UNL     1       2.326  15.015  18.015  0.00  0.00    +0.000 C 
BRANCH  35  37
ATOM     36  C   UNL     1       1.485  17.189  18.304  0.00  0.00    +0.000 C 
ATOM     37  O   UNL     1       1.386  15.829  18.716  0.00  0.00    +0.000 OA
ENDBRANCH  35  37
ENDBRANCH   1  35
TORSDOF 6
ENDMDL
