MODEL 1
REMARK VINA RESULT:      -8.8      0.000      0.000
REMARK  Name = 
REMARK  6 active torsions:
REMARK  status: ('A' for Active; 'I' for Inactive)
REMARK    1  A    between atoms: C_1  and  O_2
REMARK    2  A    between atoms: O_2  and  C_3
REMARK    3  A    between atoms: C_9  and  C_10
REMARK    4  A    between atoms: N_11  and  N_12
REMARK    5  A    between atoms: C_13  and  C_15
REMARK    6  A    between atoms: C_15  and  C_17
REMARK                            x       y       z     vdW  Elec       q    Type
REMARK                         _______ _______ _______ _____ _____    ______ ____
ROOT
ATOM      1  N   UNL     1       7.723   8.216  17.399  0.00  0.00    +0.000 N 
ATOM      2  C   UNL     1       7.617   6.867  17.714  0.00  0.00    +0.000 C 
ATOM      3  O   UNL     1       7.926   6.343  18.780  0.00  0.00    +0.000 OA
ATOM      4  H   UNL     1       7.502   8.562  16.469  0.00  0.00    +0.000 HD
ENDROOT
BRANCH   1   6
ATOM      5  C   UNL     1       8.784  10.166  18.008  0.00  0.00    +0.000 C 
ATOM      6  N   UNL     1       8.238   9.047  18.358  0.00  0.00    +0.000 NA
BRANCH   5  13
ATOM      7  C   UNL     1      10.321  14.633  18.284  0.00  0.00    +0.000 A 
ATOM      8  C   UNL     1      10.782  14.931  19.566  0.00  0.00    +0.000 A 
ATOM      9  C   UNL     1      10.762  13.973  20.582  0.00  0.00    +0.000 A 
ATOM     10  C   UNL     1      10.254  12.707  20.273  0.00  0.00    +0.000 A 
ATOM     11  N   UNL     1      10.096  11.606  21.080  0.00  0.00    +0.000 N 
ATOM     12  C   UNL     1       9.539  10.583  20.371  0.00  0.00    +0.000 A 
ATOM     13  C   UNL     1       9.344  10.997  19.064  0.00  0.00    +0.000 A 
ATOM     14  C   UNL     1       9.791  12.360  19.000  0.00  0.00    +0.000 A 
ATOM     15  C   UNL     1       9.841  13.346  17.990  0.00  0.00    +0.000 A 
ATOM     16  H   UNL     1      10.343  11.572  22.060  0.00  0.00    +0.000 HD
BRANCH   7  18
ATOM     17  C   UNL     1      11.502  16.172  16.915  0.00  0.00    +0.000 C 
ATOM     18  O   UNL     1      10.279  15.516  17.235  0.00  0.00    +0.000 OA
ENDBRANCH   7  18
ENDBRANCH   5  13
ENDBRANCH   1   6
BRANCH   2  19
ATOM     19  C   UNL     1       7.036   5.995  16.603  0.00  0.00    +0.000 C 
ATOM     20  O   UNL     1       7.648   5.973  15.538  0.00  0.00    +0.000 OA
BRANCH  19  21
ATOM     21  C   UNL     1       5.767   5.291  16.814  0.00  0.00    +0.000 A 
ATOM     22  C   UNL     1       5.548   3.937  16.614  0.00  0.00    +0.000 A 
ATOM     23  N   UNL     1       4.272   3.635  17.009  0.00  0.00    +0.000 N 
ATOM     24  C   UNL     1       3.626   4.772  17.429  0.00  0.00    +0.000 A 
ATOM     25  C   UNL     1       2.326   4.934  17.926  0.00  0.00    +0.000 A 
ATOM     26  C   UNL     1       1.914   6.229  18.257  0.00  0.00    +0.000 A 
ATOM     27  C   UNL     1       2.770   7.315  18.090  0.00  0.00    +0.000 A 
ATOM     28  C   UNL     1       4.073   7.131  17.611  0.00  0.00    +0.000 A 
ATOM     29  C   UNL     1       4.522   5.834  17.281  0.00  0.00    +0.000 A 
ATOM     30  H   UNL     1       3.860   2.712  16.994  0.00  0.00    +0.000 HD
ENDBRANCH  19  21
ENDBRANCH   2  19
TORSDOF 5
ENDMDL
MODEL 2
REMARK VINA RESULT:      -8.8      2.269      9.634
REMARK  Name = 
REMARK  6 active torsions:
REMARK  status: ('A' for Active; 'I' for Inactive)
REMARK    1  A    between atoms: C_1  and  O_2
REMARK    2  A    between atoms: O_2  and  C_3
REMARK    3  A    between atoms: C_9  and  C_10
REMARK    4  A    between atoms: N_11  and  N_12
REMARK    5  A    between atoms: C_13  and  C_15
REMARK    6  A    between atoms: C_15  and  C_17
REMARK                            x       y       z     vdW  Elec       q    Type
REMARK                         _______ _______ _______ _____ _____    ______ ____
ROOT
ATOM      1  N   UNL     1       8.781   8.389  18.906  0.00  0.00    +0.000 N 
ATOM      2  C   UNL     1       8.675   9.727  18.548  0.00  0.00    +0.000 C 
ATOM      3  O   UNL     1       7.927  10.194  17.694  0.00  0.00    +0.000 OA
ATOM      4  H   UNL     1       9.472   8.076  19.583  0.00  0.00    +0.000 HD
ENDROOT
BRANCH   1   6
ATOM      5  C   UNL     1       7.736   6.343  18.766  0.00  0.00    +0.000 C 
ATOM      6  N   UNL     1       7.993   7.494  18.234  0.00  0.00    +0.000 NA
BRANCH   5  13
ATOM      7  C   UNL     1       3.146   5.191  18.706  0.00  0.00    +0.000 A 
ATOM      8  C   UNL     1       2.884   4.206  17.754  0.00  0.00    +0.000 A 
ATOM      9  C   UNL     1       3.906   3.677  16.962  0.00  0.00    +0.000 A 
ATOM     10  C   UNL     1       5.200   4.175  17.149  0.00  0.00    +0.000 A 
ATOM     11  N   UNL     1       6.364   3.854  16.494  0.00  0.00    +0.000 N 
ATOM     12  C   UNL     1       7.395   4.602  16.983  0.00  0.00    +0.000 A 
ATOM     13  C   UNL     1       6.918   5.417  17.996  0.00  0.00    +0.000 A 
ATOM     14  C   UNL     1       5.510   5.154  18.098  0.00  0.00    +0.000 A 
ATOM     15  C   UNL     1       4.458   5.656  18.895  0.00  0.00    +0.000 A 
ATOM     16  H   UNL     1       6.436   3.175  15.749  0.00  0.00    +0.000 HD
BRANCH   7  18
ATOM     17  C   UNL     1       1.772   5.031  20.635  0.00  0.00    +0.000 C 
ATOM     18  O   UNL     1       2.205   5.785  19.507  0.00  0.00    +0.000 OA
ENDBRANCH   7  18
ENDBRANCH   5  13
ENDBRANCH   1   6
BRANCH   2  19
ATOM     19  C   UNL     1       9.580  10.673  19.334  0.00  0.00    +0.000 C 
ATOM     20  O   UNL     1       9.484  10.643  20.558  0.00  0.00    +0.000 OA
BRANCH  19  21
ATOM     21  C   UNL     1      10.456  11.609  18.620  0.00  0.00    +0.000 A 
ATOM     22  C   UNL     1      11.687  11.303  18.064  0.00  0.00    +0.000 A 
ATOM     23  N   UNL     1      12.156  12.405  17.400  0.00  0.00    +0.000 N 
ATOM     24  C   UNL     1      11.276  13.451  17.540  0.00  0.00    +0.000 A 
ATOM     25  C   UNL     1      11.340  14.752  17.025  0.00  0.00    +0.000 A 
ATOM     26  C   UNL     1      10.304  15.632  17.355  0.00  0.00    +0.000 A 
ATOM     27  C   UNL     1       9.253  15.223  18.172  0.00  0.00    +0.000 A 
ATOM     28  C   UNL     1       9.196  13.912  18.660  0.00  0.00    +0.000 A 
ATOM     29  C   UNL     1      10.220  12.997  18.334  0.00  0.00    +0.000 A 
ATOM     30  H   UNL     1      13.023  12.448  16.881  0.00  0.00    +0.000 HD
ENDBRANCH  19  21
ENDBRANCH   2  19
TORSDOF 5
ENDMDL
MODEL 3
REMARK VINA RESULT:      -8.8      1.107      1.773
REMARK  Name = 
REMARK  6 active torsions:
REMARK  status: ('A' for Active; 'I' for Inactive)
REMARK    1  A    between atoms: C_1  and  O_2
REMARK    2  A    between atoms: O_2  and  C_3
REMARK    3  A    between atoms: C_9  and  C_10
REMARK    4  A    between atoms: N_11  and  N_12
REMARK    5  A    between atoms: C_13  and  C_15
REMARK    6  A    between atoms: C_15  and  C_17
REMARK                            x       y       z     vdW  Elec       q    Type
REMARK                         _______ _______ _______ _____ _____    ______ ____
ROOT
ATOM      1  N   UNL     1       7.672   8.364  17.508  0.00  0.00    +0.000 N 
ATOM      2  C   UNL     1       7.483   7.030  17.849  0.00  0.00    +0.000 C 
ATOM      3  O   UNL     1       7.978   6.449  18.810  0.00  0.00    +0.000 OA
ATOM      4  H   UNL     1       7.273   8.754  16.658  0.00  0.00    +0.000 HD
ENDROOT
BRANCH   1   6
ATOM      5  C   UNL     1       8.501  10.394  18.206  0.00  0.00    +0.000 C 
ATOM      6  N   UNL     1       8.504   9.104  18.303  0.00  0.00    +0.000 NA
BRANCH   5  13
ATOM      7  C   UNL     1      11.137  14.288  17.676  0.00  0.00    +0.000 A 
ATOM      8  C   UNL     1      11.873  14.562  18.828  0.00  0.00    +0.000 A 
ATOM      9  C   UNL     1      11.790  13.736  19.951  0.00  0.00    +0.000 A 
ATOM     10  C   UNL     1      10.934  12.632  19.886  0.00  0.00    +0.000 A 
ATOM     11  N   UNL     1      10.647  11.689  20.843  0.00  0.00    +0.000 N 
ATOM     12  C   UNL     1       9.736  10.796  20.361  0.00  0.00    +0.000 A 
ATOM     13  C   UNL     1       9.427  11.133  19.053  0.00  0.00    +0.000 A 
ATOM     14  C   UNL     1      10.184  12.314  18.749  0.00  0.00    +0.000 A 
ATOM     15  C   UNL     1      10.304  13.158  17.623  0.00  0.00    +0.000 A 
ATOM     16  H   UNL     1      11.043  11.674  21.773  0.00  0.00    +0.000 HD
BRANCH   7  18
ATOM     17  C   UNL     1      10.796  16.428  16.705  0.00  0.00    +0.000 C 
ATOM     18  O   UNL     1      11.137  15.055  16.539  0.00  0.00    +0.000 OA
ENDBRANCH   7  18
ENDBRANCH   5  13
ENDBRANCH   1   6
BRANCH   2  19
ATOM     19  C   UNL     1       6.545   6.260  16.922  0.00  0.00    +0.000 C 
ATOM     20  O   UNL     1       7.026   5.835  15.875  0.00  0.00    +0.000 OA
BRANCH  19  21
ATOM     21  C   UNL     1       5.127   6.119  17.270  0.00  0.00    +0.000 A 
ATOM     22  C   UNL     1       4.238   7.160  17.483  0.00  0.00    +0.000 A 
ATOM     23  N   UNL     1       2.989   6.638  17.688  0.00  0.00    +0.000 N 
ATOM     24  C   UNL     1       3.040   5.265  17.656  0.00  0.00    +0.000 A 
ATOM     25  C   UNL     1       2.012   4.326  17.802  0.00  0.00    +0.000 A 
ATOM     26  C   UNL     1       2.359   2.971  17.752  0.00  0.00    +0.000 A 
ATOM     27  C   UNL     1       3.683   2.579  17.568  0.00  0.00    +0.000 A 
ATOM     28  C   UNL     1       4.694   3.534  17.403  0.00  0.00    +0.000 A 
ATOM     29  C   UNL     1       4.373   4.908  17.436  0.00  0.00    +0.000 A 
ATOM     30  H   UNL     1       2.149   7.178  17.843  0.00  0.00    +0.000 HD
ENDBRANCH  19  21
ENDBRANCH   2  19
TORSDOF 5
ENDMDL
MODEL 4
REMARK VINA RESULT:      -8.4      1.953      2.797
REMARK  Name = 
REMARK  6 active torsions:
REMARK  status: ('A' for Active; 'I' for Inactive)
REMARK    1  A    between atoms: C_1  and  O_2
REMARK    2  A    between atoms: O_2  and  C_3
REMARK    3  A    between atoms: C_9  and  C_10
REMARK    4  A    between atoms: N_11  and  N_12
REMARK    5  A    between atoms: C_13  and  C_15
REMARK    6  A    between atoms: C_15  and  C_17
REMARK                            x       y       z     vdW  Elec       q    Type
REMARK                         _______ _______ _______ _____ _____    ______ ____
ROOT
ATOM      1  N   UNL     1       8.587   8.065  18.909  0.00  0.00    +0.000 N 
ATOM      2  C   UNL     1       7.788   7.346  18.029  0.00  0.00    +0.000 C 
ATOM      3  O   UNL     1       7.333   7.751  16.963  0.00  0.00    +0.000 OA
ATOM      4  H   UNL     1       8.873   7.675  19.803  0.00  0.00    +0.000 HD
ENDROOT
BRANCH   1   6
ATOM      5  C   UNL     1       9.335  10.167  19.477  0.00  0.00    +0.000 C 
ATOM      6  N   UNL     1       8.886   9.358  18.572  0.00  0.00    +0.000 NA
BRANCH   5  13
ATOM      7  C   UNL     1       9.433  14.346  21.696  0.00  0.00    +0.000 A 
ATOM      8  C   UNL     1       9.749  15.379  20.814  0.00  0.00    +0.000 A 
ATOM      9  C   UNL     1       9.986  15.127  19.461  0.00  0.00    +0.000 A 
ATOM     10  C   UNL     1       9.908  13.802  19.021  0.00  0.00    +0.000 A 
ATOM     11  N   UNL     1      10.121  13.281  17.768  0.00  0.00    +0.000 N 
ATOM     12  C   UNL     1       9.958  11.927  17.791  0.00  0.00    +0.000 A 
ATOM     13  C   UNL     1       9.608  11.539  19.074  0.00  0.00    +0.000 A 
ATOM     14  C   UNL     1       9.585  12.735  19.867  0.00  0.00    +0.000 A 
ATOM     15  C   UNL     1       9.333  13.025  21.226  0.00  0.00    +0.000 A 
ATOM     16  H   UNL     1      10.376  13.825  16.955  0.00  0.00    +0.000 HD
BRANCH   7  18
ATOM     17  C   UNL     1       8.433  13.481  23.667  0.00  0.00    +0.000 C 
ATOM     18  O   UNL     1       9.210  14.496  23.040  0.00  0.00    +0.000 OA
ENDBRANCH   7  18
ENDBRANCH   5  13
ENDBRANCH   1   6
BRANCH   2  19
ATOM     19  C   UNL     1       7.491   5.912  18.461  0.00  0.00    +0.000 C 
ATOM     20  O   UNL     1       8.140   5.472  19.407  0.00  0.00    +0.000 OA
BRANCH  19  21
ATOM     21  C   UNL     1       6.523   5.107  17.709  0.00  0.00    +0.000 A 
ATOM     22  C   UNL     1       6.813   4.292  16.626  0.00  0.00    +0.000 A 
ATOM     23  N   UNL     1       5.673   3.631  16.255  0.00  0.00    +0.000 N 
ATOM     24  C   UNL     1       4.620   4.023  17.046  0.00  0.00    +0.000 A 
ATOM     25  C   UNL     1       3.284   3.604  17.034  0.00  0.00    +0.000 A 
ATOM     26  C   UNL     1       2.409   4.201  17.947  0.00  0.00    +0.000 A 
ATOM     27  C   UNL     1       2.856   5.180  18.830  0.00  0.00    +0.000 A 
ATOM     28  C   UNL     1       4.201   5.571  18.841  0.00  0.00    +0.000 A 
ATOM     29  C   UNL     1       5.111   4.978  17.940  0.00  0.00    +0.000 A 
ATOM     30  H   UNL     1       5.609   2.953  15.508  0.00  0.00    +0.000 HD
ENDBRANCH  19  21
ENDBRANCH   2  19
TORSDOF 5
ENDMDL
MODEL 5
REMARK VINA RESULT:      -8.4      6.599     10.208
REMARK  Name = 
REMARK  6 active torsions:
REMARK  status: ('A' for Active; 'I' for Inactive)
REMARK    1  A    between atoms: C_1  and  O_2
REMARK    2  A    between atoms: O_2  and  C_3
REMARK    3  A    between atoms: C_9  and  C_10
REMARK    4  A    between atoms: N_11  and  N_12
REMARK    5  A    between atoms: C_13  and  C_15
REMARK    6  A    between atoms: C_15  and  C_17
REMARK                            x       y       z     vdW  Elec       q    Type
REMARK                         _______ _______ _______ _____ _____    ______ ____
ROOT
ATOM      1  N   UNL     1       1.615   9.537  17.785  0.00  0.00    +0.000 N 
ATOM      2  C   UNL     1       1.019   9.779  19.017  0.00  0.00    +0.000 C 
ATOM      3  O   UNL     1       0.867   8.966  19.923  0.00  0.00    +0.000 OA
ATOM      4  H   UNL     1       1.647  10.253  17.063  0.00  0.00    +0.000 HD
ENDROOT
BRANCH   1   6
ATOM      5  C   UNL     1       3.287   7.956  17.829  0.00  0.00    +0.000 C 
ATOM      6  N   UNL     1       2.065   8.267  17.543  0.00  0.00    +0.000 NA
BRANCH   5  13
ATOM      7  C   UNL     1       1.969   3.628  19.216  0.00  0.00    +0.000 A 
ATOM      8  C   UNL     1       2.747   2.643  18.608  0.00  0.00    +0.000 A 
ATOM      9  C   UNL     1       3.771   2.978  17.718  0.00  0.00    +0.000 A 
ATOM     10  C   UNL     1       3.982   4.334  17.449  0.00  0.00    +0.000 A 
ATOM     11  N   UNL     1       4.888   4.927  16.604  0.00  0.00    +0.000 N 
ATOM     12  C   UNL     1       4.733   6.283  16.630  0.00  0.00    +0.000 A 
ATOM     13  C   UNL     1       3.723   6.601  17.524  0.00  0.00    +0.000 A 
ATOM     14  C   UNL     1       3.233   5.355  18.042  0.00  0.00    +0.000 A 
ATOM     15  C   UNL     1       2.217   4.985  18.951  0.00  0.00    +0.000 A 
ATOM     16  H   UNL     1       5.558   4.427  16.037  0.00  0.00    +0.000 HD
BRANCH   7  18
ATOM     17  C   UNL     1       1.277   2.849  21.349  0.00  0.00    +0.000 C 
ATOM     18  O   UNL     1       0.930   3.392  20.079  0.00  0.00    +0.000 OA
ENDBRANCH   7  18
ENDBRANCH   5  13
ENDBRANCH   1   6
BRANCH   2  19
ATOM     19  C   UNL     1       0.539  11.214  19.224  0.00  0.00    +0.000 C 
ATOM     20  O   UNL     1       1.391  12.046  19.526  0.00  0.00    +0.000 OA
BRANCH  19  21
ATOM     21  C   UNL     1      -0.891  11.528  19.130  0.00  0.00    +0.000 A 
ATOM     22  C   UNL     1      -1.588  12.389  19.963  0.00  0.00    +0.000 A 
ATOM     23  N   UNL     1      -2.873  12.500  19.505  0.00  0.00    +0.000 N 
ATOM     24  C   UNL     1      -3.054  11.695  18.406  0.00  0.00    +0.000 A 
ATOM     25  C   UNL     1      -4.192  11.503  17.612  0.00  0.00    +0.000 A 
ATOM     26  C   UNL     1      -4.100  10.589  16.557  0.00  0.00    +0.000 A 
ATOM     27  C   UNL     1      -2.917   9.895  16.314  0.00  0.00    +0.000 A 
ATOM     28  C   UNL     1      -1.784  10.116  17.106  0.00  0.00    +0.000 A 
ATOM     29  C   UNL     1      -1.842  11.041  18.170  0.00  0.00    +0.000 A 
ATOM     30  H   UNL     1      -3.589  13.085  19.912  0.00  0.00    +0.000 HD
ENDBRANCH  19  21
ENDBRANCH   2  19
TORSDOF 5
ENDMDL
MODEL 6
REMARK VINA RESULT:      -8.3      6.491      8.870
REMARK  Name = 
REMARK  6 active torsions:
REMARK  status: ('A' for Active; 'I' for Inactive)
REMARK    1  A    between atoms: C_1  and  O_2
REMARK    2  A    between atoms: O_2  and  C_3
REMARK    3  A    between atoms: C_9  and  C_10
REMARK    4  A    between atoms: N_11  and  N_12
REMARK    5  A    between atoms: C_13  and  C_15
REMARK    6  A    between atoms: C_15  and  C_17
REMARK                            x       y       z     vdW  Elec       q    Type
REMARK                         _______ _______ _______ _____ _____    ______ ____
ROOT
ATOM      1  N   UNL     1       2.199   8.437  17.530  0.00  0.00    +0.000 N 
ATOM      2  C   UNL     1       2.779   7.469  18.341  0.00  0.00    +0.000 C 
ATOM      3  O   UNL     1       2.422   7.162  19.475  0.00  0.00    +0.000 OA
ATOM      4  H   UNL     1       2.595   8.674  16.624  0.00  0.00    +0.000 HD
ENDROOT
BRANCH   1   6
ATOM      5  C   UNL     1       1.331  10.310  18.549  0.00  0.00    +0.000 C 
ATOM      6  N   UNL     1       1.139   9.135  18.044  0.00  0.00    +0.000 NA
BRANCH   5  13
ATOM      7  C   UNL     1      -3.196  10.823  17.270  0.00  0.00    +0.000 A 
ATOM      8  C   UNL     1      -3.894  11.612  18.184  0.00  0.00    +0.000 A 
ATOM      9  C   UNL     1      -3.259  12.150  19.306  0.00  0.00    +0.000 A 
ATOM     10  C   UNL     1      -1.903  11.860  19.489  0.00  0.00    +0.000 A 
ATOM     11  N   UNL     1      -1.058  12.231  20.507  0.00  0.00    +0.000 N 
ATOM     12  C   UNL     1       0.184  11.708  20.297  0.00  0.00    +0.000 A 
ATOM     13  C   UNL     1       0.176  10.996  19.109  0.00  0.00    +0.000 A 
ATOM     14  C   UNL     1      -1.162  11.082  18.594  0.00  0.00    +0.000 A 
ATOM     15  C   UNL     1      -1.828  10.568  17.460  0.00  0.00    +0.000 A 
ATOM     16  H   UNL     1      -1.328  12.796  21.300  0.00  0.00    +0.000 HD
BRANCH   7  18
ATOM     17  C   UNL     1      -2.991  10.350  14.952  0.00  0.00    +0.000 C 
ATOM     18  O   UNL     1      -3.741  10.235  16.157  0.00  0.00    +0.000 OA
ENDBRANCH   7  18
ENDBRANCH   5  13
ENDBRANCH   1   6
BRANCH   2  19
ATOM     19  C   UNL     1       3.956   6.728  17.711  0.00  0.00    +0.000 C 
ATOM     20  O   UNL     1       4.540   7.296  16.791  0.00  0.00    +0.000 OA
BRANCH  19  21
ATOM     21  C   UNL     1       4.294   5.374  18.162  0.00  0.00    +0.000 A 
ATOM     22  C   UNL     1       5.546   4.946  18.574  0.00  0.00    +0.000 A 
ATOM     23  N   UNL     1       5.447   3.652  19.012  0.00  0.00    +0.000 N 
ATOM     24  C   UNL     1       4.158   3.199  18.859  0.00  0.00    +0.000 A 
ATOM     25  C   UNL     1       3.600   1.956  19.182  0.00  0.00    +0.000 A 
ATOM     26  C   UNL     1       2.247   1.756  18.888  0.00  0.00    +0.000 A 
ATOM     27  C   UNL     1       1.490   2.761  18.291  0.00  0.00    +0.000 A 
ATOM     28  C   UNL     1       2.061   4.005  17.995  0.00  0.00    +0.000 A 
ATOM     29  C   UNL     1       3.420   4.241  18.291  0.00  0.00    +0.000 A 
ATOM     30  H   UNL     1       6.207   3.105  19.391  0.00  0.00    +0.000 HD
ENDBRANCH  19  21
ENDBRANCH   2  19
TORSDOF 5
ENDMDL
MODEL 7
REMARK VINA RESULT:      -8.3      6.467      9.779
REMARK  Name = 
REMARK  6 active torsions:
REMARK  status: ('A' for Active; 'I' for Inactive)
REMARK    1  A    between atoms: C_1  and  O_2
REMARK    2  A    between atoms: O_2  and  C_3
REMARK    3  A    between atoms: C_9  and  C_10
REMARK    4  A    between atoms: N_11  and  N_12
REMARK    5  A    between atoms: C_13  and  C_15
REMARK    6  A    between atoms: C_15  and  C_17
REMARK                            x       y       z     vdW  Elec       q    Type
REMARK                         _______ _______ _______ _____ _____    ______ ____
ROOT
ATOM      1  N   UNL     1       0.839  10.402  18.056  0.00  0.00    +0.000 N 
ATOM      2  C   UNL     1      -0.391  10.642  18.658  0.00  0.00    +0.000 C 
ATOM      3  O   UNL     1      -0.859  10.039  19.620  0.00  0.00    +0.000 OA
ATOM      4  H   UNL     1       1.127  10.907  17.222  0.00  0.00    +0.000 HD
ENDROOT
BRANCH   1   6
ATOM      5  C   UNL     1       1.880   8.362  17.825  0.00  0.00    +0.000 C 
ATOM      6  N   UNL     1       1.600   9.385  18.566  0.00  0.00    +0.000 NA
BRANCH   5  13
ATOM      7  C   UNL     1       5.634   5.815  16.480  0.00  0.00    +0.000 A 
ATOM      8  C   UNL     1       5.992   4.886  17.456  0.00  0.00    +0.000 A 
ATOM      9  C   UNL     1       5.275   4.781  18.651  0.00  0.00    +0.000 A 
ATOM     10  C   UNL     1       4.194   5.648  18.840  0.00  0.00    +0.000 A 
ATOM     11  N   UNL     1       3.351   5.775  19.917  0.00  0.00    +0.000 N 
ATOM     12  C   UNL     1       2.443   6.766  19.686  0.00  0.00    +0.000 A 
ATOM     13  C   UNL     1       2.667   7.294  18.425  0.00  0.00    +0.000 A 
ATOM     14  C   UNL     1       3.793   6.588  17.884  0.00  0.00    +0.000 A 
ATOM     15  C   UNL     1       4.527   6.656  16.680  0.00  0.00    +0.000 A 
ATOM     16  H   UNL     1       3.411   5.223  20.762  0.00  0.00    +0.000 HD
BRANCH   7  18
ATOM     17  C   UNL     1       6.941   4.862  14.742  0.00  0.00    +0.000 C 
ATOM     18  O   UNL     1       6.293   6.004  15.292  0.00  0.00    +0.000 OA
ENDBRANCH   7  18
ENDBRANCH   5  13
ENDBRANCH   1   6
BRANCH   2  19
ATOM     19  C   UNL     1      -1.191  11.788  18.043  0.00  0.00    +0.000 C 
ATOM     20  O   UNL     1      -0.654  12.893  18.026  0.00  0.00    +0.000 OA
BRANCH  19  21
ATOM     21  C   UNL     1      -2.560  11.553  17.572  0.00  0.00    +0.000 A 
ATOM     22  C   UNL     1      -2.916  11.058  16.328  0.00  0.00    +0.000 A 
ATOM     23  N   UNL     1      -4.273  10.886  16.294  0.00  0.00    +0.000 N 
ATOM     24  C   UNL     1      -4.832  11.298  17.481  0.00  0.00    +0.000 A 
ATOM     25  C   UNL     1      -6.170  11.292  17.892  0.00  0.00    +0.000 A 
ATOM     26  C   UNL     1      -6.461  11.803  19.161  0.00  0.00    +0.000 A 
ATOM     27  C   UNL     1      -5.450  12.303  19.979  0.00  0.00    +0.000 A 
ATOM     28  C   UNL     1      -4.115  12.281  19.558  0.00  0.00    +0.000 A 
ATOM     29  C   UNL     1      -3.788  11.759  18.287  0.00  0.00    +0.000 A 
ATOM     30  H   UNL     1      -4.795  10.513  15.513  0.00  0.00    +0.000 HD
ENDBRANCH  19  21
ENDBRANCH   2  19
TORSDOF 5
ENDMDL
MODEL 8
REMARK VINA RESULT:      -8.3      1.308      1.947
REMARK  Name = 
REMARK  6 active torsions:
REMARK  status: ('A' for Active; 'I' for Inactive)
REMARK    1  A    between atoms: C_1  and  O_2
REMARK    2  A    between atoms: O_2  and  C_3
REMARK    3  A    between atoms: C_9  and  C_10
REMARK    4  A    between atoms: N_11  and  N_12
REMARK    5  A    between atoms: C_13  and  C_15
REMARK    6  A    between atoms: C_15  and  C_17
REMARK                            x       y       z     vdW  Elec       q    Type
REMARK                         _______ _______ _______ _____ _____    ______ ____
ROOT
ATOM      1  N   UNL     1       7.655   8.478  17.461  0.00  0.00    +0.000 N 
ATOM      2  C   UNL     1       7.529   7.151  17.854  0.00  0.00    +0.000 C 
ATOM      3  O   UNL     1       8.065   6.627  18.825  0.00  0.00    +0.000 OA
ATOM      4  H   UNL     1       7.225   8.820  16.605  0.00  0.00    +0.000 HD
ENDROOT
BRANCH   1   6
ATOM      5  C   UNL     1       8.589  10.533  17.910  0.00  0.00    +0.000 C 
ATOM      6  N   UNL     1       8.468   9.282  18.214  0.00  0.00    +0.000 NA
BRANCH   5  13
ATOM      7  C   UNL     1       9.449  15.165  18.366  0.00  0.00    +0.000 A 
ATOM      8  C   UNL     1      10.450  15.403  19.307  0.00  0.00    +0.000 A 
ATOM      9  C   UNL     1      11.073  14.350  19.981  0.00  0.00    +0.000 A 
ATOM     10  C   UNL     1      10.651  13.049  19.689  0.00  0.00    +0.000 A 
ATOM     11  N   UNL     1      11.069  11.853  20.221  0.00  0.00    +0.000 N 
ATOM     12  C   UNL     1      10.371  10.824  19.661  0.00  0.00    +0.000 A 
ATOM     13  C   UNL     1       9.489  11.337  18.724  0.00  0.00    +0.000 A 
ATOM     14  C   UNL     1       9.658  12.762  18.747  0.00  0.00    +0.000 A 
ATOM     15  C   UNL     1       9.061  13.847  18.069  0.00  0.00    +0.000 A 
ATOM     16  H   UNL     1      11.779  11.758  20.934  0.00  0.00    +0.000 HD
BRANCH   7  18
ATOM     17  C   UNL     1       7.702  16.772  18.375  0.00  0.00    +0.000 C 
ATOM     18  O   UNL     1       8.766  16.134  17.677  0.00  0.00    +0.000 OA
ENDBRANCH   7  18
ENDBRANCH   5  13
ENDBRANCH   1   6
BRANCH   2  19
ATOM     19  C   UNL     1       6.609   6.308  16.973  0.00  0.00    +0.000 C 
ATOM     20  O   UNL     1       7.108   5.809  15.967  0.00  0.00    +0.000 OA
BRANCH  19  21
ATOM     21  C   UNL     1       5.186   6.186  17.308  0.00  0.00    +0.000 A 
ATOM     22  C   UNL     1       4.308   7.239  17.510  0.00  0.00    +0.000 A 
ATOM     23  N   UNL     1       3.052   6.732  17.706  0.00  0.00    +0.000 N 
ATOM     24  C   UNL     1       3.086   5.358  17.679  0.00  0.00    +0.000 A 
ATOM     25  C   UNL     1       2.046   4.432  17.819  0.00  0.00    +0.000 A 
ATOM     26  C   UNL     1       2.377   3.073  17.777  0.00  0.00    +0.000 A 
ATOM     27  C   UNL     1       3.697   2.665  17.606  0.00  0.00    +0.000 A 
ATOM     28  C   UNL     1       4.721   3.606  17.447  0.00  0.00    +0.000 A 
ATOM     29  C   UNL     1       4.417   4.985  17.472  0.00  0.00    +0.000 A 
ATOM     30  H   UNL     1       2.217   7.283  17.851  0.00  0.00    +0.000 HD
ENDBRANCH  19  21
ENDBRANCH   2  19
TORSDOF 5
ENDMDL
MODEL 9
REMARK VINA RESULT:      -8.3      6.521      8.681
REMARK  Name = 
REMARK  6 active torsions:
REMARK  status: ('A' for Active; 'I' for Inactive)
REMARK    1  A    between atoms: C_1  and  O_2
REMARK    2  A    between atoms: O_2  and  C_3
REMARK    3  A    between atoms: C_9  and  C_10
REMARK    4  A    between atoms: N_11  and  N_12
REMARK    5  A    between atoms: C_13  and  C_15
REMARK    6  A    between atoms: C_15  and  C_17
REMARK                            x       y       z     vdW  Elec       q    Type
REMARK                         _______ _______ _______ _____ _____    ______ ____
ROOT
ATOM      1  N   UNL     1       2.763   6.723  18.919  0.00  0.00    +0.000 N 
ATOM      2  C   UNL     1       2.818   5.639  19.787  0.00  0.00    +0.000 C 
ATOM      3  O   UNL     1       2.174   5.505  20.823  0.00  0.00    +0.000 OA
ATOM      4  H   UNL     1       3.376   6.785  18.111  0.00  0.00    +0.000 HD
ENDROOT
BRANCH   1   6
ATOM      5  C   UNL     1       1.760   8.736  18.427  0.00  0.00    +0.000 C 
ATOM      6  N   UNL     1       1.926   7.754  19.253  0.00  0.00    +0.000 NA
BRANCH   5  13
ATOM      7  C   UNL     1      -2.479  10.326  17.051  0.00  0.00    +0.000 A 
ATOM      8  C   UNL     1      -2.870  11.437  17.798  0.00  0.00    +0.000 A 
ATOM      9  C   UNL     1      -2.051  11.955  18.805  0.00  0.00    +0.000 A 
ATOM     10  C   UNL     1      -0.831  11.315  19.046  0.00  0.00    +0.000 A 
ATOM     11  N   UNL     1       0.135  11.596  19.981  0.00  0.00    +0.000 N 
ATOM     12  C   UNL     1       1.159  10.700  19.879  0.00  0.00    +0.000 A 
ATOM     13  C   UNL     1       0.884   9.821  18.844  0.00  0.00    +0.000 A 
ATOM     14  C   UNL     1      -0.394  10.205  18.315  0.00  0.00    +0.000 A 
ATOM     15  C   UNL     1      -1.237   9.717  17.292  0.00  0.00    +0.000 A 
ATOM     16  H   UNL     1       0.082  12.348  20.654  0.00  0.00    +0.000 HD
BRANCH   7  18
ATOM     17  C   UNL     1      -2.992  10.195  14.736  0.00  0.00    +0.000 C 
ATOM     18  O   UNL     1      -3.227   9.736  16.064  0.00  0.00    +0.000 OA
ENDBRANCH   7  18
ENDBRANCH   5  13
ENDBRANCH   1   6
BRANCH   2  19
ATOM     19  C   UNL     1       3.769   4.524  19.358  0.00  0.00    +0.000 C 
ATOM     20  O   UNL     1       3.441   3.375  19.643  0.00  0.00    +0.000 OA
BRANCH  19  21
ATOM     21  C   UNL     1       5.040   4.858  18.705  0.00  0.00    +0.000 A 
ATOM     22  C   UNL     1       6.167   5.360  19.335  0.00  0.00    +0.000 A 
ATOM     23  N   UNL     1       7.179   5.452  18.418  0.00  0.00    +0.000 N 
ATOM     24  C   UNL     1       6.732   5.059  17.179  0.00  0.00    +0.000 A 
ATOM     25  C   UNL     1       7.418   4.979  15.961  0.00  0.00    +0.000 A 
ATOM     26  C   UNL     1       6.697   4.567  14.836  0.00  0.00    +0.000 A 
ATOM     27  C   UNL     1       5.343   4.253  14.931  0.00  0.00    +0.000 A 
ATOM     28  C   UNL     1       4.680   4.320  16.162  0.00  0.00    +0.000 A 
ATOM     29  C   UNL     1       5.383   4.720  17.318  0.00  0.00    +0.000 A 
ATOM     30  H   UNL     1       8.120   5.764  18.616  0.00  0.00    +0.000 HD
ENDBRANCH  19  21
ENDBRANCH   2  19
TORSDOF 5
ENDMDL
