MODEL 1
REMARK VINA RESULT:      -8.0      0.000      0.000
REMARK  Name = 
REMARK  2 active torsions:
REMARK  status: ('A' for Active; 'I' for Inactive)
REMARK    1  A    between atoms: C_13  and  C_14
REMARK    2  A    between atoms: C_22  and  C_23
REMARK                            x       y       z     vdW  Elec       q    Type
REMARK                         _______ _______ _______ _____ _____    ______ ____
ROOT
ATOM      1  O   UNL     1      -6.951  11.318  21.343  0.00  0.00    +0.000 OA
ATOM      2  C   UNL     1      -6.526  12.427  21.638  0.00  0.00    +0.000 A 
ATOM      3  O   UNL     1      -7.216  13.591  21.341  0.00  0.00    +0.000 OA
ATOM      4  C   UNL     1      -6.527  14.733  21.777  0.00  0.00    +0.000 A 
ATOM      5  C   UNL     1      -7.270  15.581  22.598  0.00  0.00    +0.000 A 
ATOM      6  C   UNL     1      -6.585  16.485  23.392  0.00  0.00    +0.000 A 
ATOM      7  C   UNL     1      -5.205  16.621  23.237  0.00  0.00    +0.000 A 
ATOM      8  C   UNL     1      -4.475  15.821  22.329  0.00  0.00    +0.000 A 
ATOM      9  C   UNL     1      -5.108  14.784  21.651  0.00  0.00    +0.000 A 
ATOM     10  C   UNL     1      -4.465  13.447  21.305  0.00  0.00    +0.000 A 
ATOM     11  C   UNL     1      -5.131  12.631  22.146  0.00  0.00    +0.000 A 
ATOM     12  N   UNL     1      -4.672  12.581  23.497  0.00  0.00    +0.000 N 
ATOM     13  C   UNL     1      -3.193  12.632  23.751  0.00  0.00    +0.000 C 
ATOM     14  C   UNL     1      -2.589  12.106  22.441  0.00  0.00    +0.000 C 
ATOM     15  C   UNL     1      -2.986  13.080  21.246  0.00  0.00    +0.000 C 
ATOM     16  H   UNL     1      -5.225  13.206  24.085  0.00  0.00    +0.000 HD
ENDROOT
BRANCH  15  17
ATOM     17  C   UNL     1      -2.595  12.318  19.978  0.00  0.00    +0.000 A 
ATOM     18  C   UNL     1      -1.459  11.506  19.961  0.00  0.00    +0.000 A 
ATOM     19  C   UNL     1      -1.213  10.658  18.875  0.00  0.00    +0.000 A 
ATOM     20  C   UNL     1      -2.099  10.583  17.790  0.00  0.00    +0.000 A 
ATOM     21  C   UNL     1      -1.898   9.708  16.712  0.00  0.00    +0.000 A 
ATOM     22  C   UNL     1      -2.815   9.631  15.663  0.00  0.00    +0.000 A 
ATOM     23  C   UNL     1      -3.952  10.436  15.671  0.00  0.00    +0.000 A 
ATOM     24  C   UNL     1      -4.166  11.323  16.727  0.00  0.00    +0.000 A 
ATOM     25  C   UNL     1      -3.247  11.411  17.789  0.00  0.00    +0.000 A 
ATOM     26  C   UNL     1      -3.461  12.286  18.864  0.00  0.00    +0.000 A 
ENDBRANCH  15  17
BRANCH  13  27
ATOM     27  C   UNL     1      -2.508  13.955  24.156  0.00  0.00    +0.000 A 
ATOM     28  C   UNL     1      -1.397  14.500  23.498  0.00  0.00    +0.000 A 
ATOM     29  C   UNL     1      -0.790  15.688  23.961  0.00  0.00    +0.000 A 
ATOM     30  C   UNL     1      -1.274  16.355  25.085  0.00  0.00    +0.000 A 
ATOM     31 CL   UNL     1      -0.470  17.730  25.725  0.00  0.00    +0.000 Cl
ATOM     32  C   UNL     1      -2.424  15.895  25.700  0.00  0.00    +0.000 A 
ATOM     33  C   UNL     1      -3.042  14.750  25.214  0.00  0.00    +0.000 A 
ENDBRANCH  13  27
TORSDOF 2
ENDMDL
MODEL 2
REMARK VINA RESULT:      -7.7      3.592      5.314
REMARK  Name = 
REMARK  2 active torsions:
REMARK  status: ('A' for Active; 'I' for Inactive)
REMARK    1  A    between atoms: C_13  and  C_14
REMARK    2  A    between atoms: C_22  and  C_23
REMARK                            x       y       z     vdW  Elec       q    Type
REMARK                         _______ _______ _______ _____ _____    ______ ____
ROOT
ATOM      1  O   UNL     1       1.427  15.390  20.993  0.00  0.00    +0.000 OA
ATOM      2  C   UNL     1       0.565  15.403  21.861  0.00  0.00    +0.000 A 
ATOM      3  O   UNL     1       0.783  15.946  23.117  0.00  0.00    +0.000 OA
ATOM      4  C   UNL     1      -0.352  15.841  23.936  0.00  0.00    +0.000 A 
ATOM      5  C   UNL     1      -0.781  17.047  24.489  0.00  0.00    +0.000 A 
ATOM      6  C   UNL     1      -2.083  17.124  24.956  0.00  0.00    +0.000 A 
ATOM      7  C   UNL     1      -2.863  15.967  24.995  0.00  0.00    +0.000 A 
ATOM      8  C   UNL     1      -2.381  14.727  24.520  0.00  0.00    +0.000 A 
ATOM      9  C   UNL     1      -1.146  14.659  23.882  0.00  0.00    +0.000 A 
ATOM     10  C   UNL     1      -0.818  13.741  22.711  0.00  0.00    +0.000 A 
ATOM     11  C   UNL     1      -0.718  14.643  21.715  0.00  0.00    +0.000 A 
ATOM     12  N   UNL     1      -1.937  15.085  21.118  0.00  0.00    +0.000 N 
ATOM     13  C   UNL     1      -3.037  14.083  20.916  0.00  0.00    +0.000 C 
ATOM     14  C   UNL     1      -2.291  12.743  20.857  0.00  0.00    +0.000 C 
ATOM     15  C   UNL     1      -1.548  12.488  22.241  0.00  0.00    +0.000 C 
ATOM     16  H   UNL     1      -2.238  15.968  21.532  0.00  0.00    +0.000 HD
ENDROOT
BRANCH  15  17
ATOM     17  C   UNL     1      -0.618  11.303  21.970  0.00  0.00    +0.000 A 
ATOM     18  C   UNL     1      -0.499  10.267  22.900  0.00  0.00    +0.000 A 
ATOM     19  C   UNL     1       0.191   9.097  22.568  0.00  0.00    +0.000 A 
ATOM     20  C   UNL     1       0.763   8.918  21.300  0.00  0.00    +0.000 A 
ATOM     21  C   UNL     1       1.420   7.735  20.928  0.00  0.00    +0.000 A 
ATOM     22  C   UNL     1       1.949   7.575  19.646  0.00  0.00    +0.000 A 
ATOM     23  C   UNL     1       1.834   8.601  18.712  0.00  0.00    +0.000 A 
ATOM     24  C   UNL     1       1.196   9.791  19.063  0.00  0.00    +0.000 A 
ATOM     25  C   UNL     1       0.661   9.966  20.353  0.00  0.00    +0.000 A 
ATOM     26  C   UNL     1       0.002  11.151  20.712  0.00  0.00    +0.000 A 
ENDBRANCH  15  17
BRANCH  13  27
ATOM     27  C   UNL     1      -4.212  13.990  21.914  0.00  0.00    +0.000 A 
ATOM     28  C   UNL     1      -4.556  12.830  22.619  0.00  0.00    +0.000 A 
ATOM     29  C   UNL     1      -5.680  12.806  23.475  0.00  0.00    +0.000 A 
ATOM     30  C   UNL     1      -6.481  13.934  23.645  0.00  0.00    +0.000 A 
ATOM     31 CL   UNL     1      -7.915  13.879  24.586  0.00  0.00    +0.000 Cl
ATOM     32  C   UNL     1      -6.114  15.120  23.036  0.00  0.00    +0.000 A 
ATOM     33  C   UNL     1      -4.984  15.149  22.230  0.00  0.00    +0.000 A 
ENDBRANCH  13  27
TORSDOF 2
ENDMDL
MODEL 3
REMARK VINA RESULT:      -7.5      1.673      2.686
REMARK  Name = 
REMARK  2 active torsions:
REMARK  status: ('A' for Active; 'I' for Inactive)
REMARK    1  A    between atoms: C_13  and  C_14
REMARK    2  A    between atoms: C_22  and  C_23
REMARK                            x       y       z     vdW  Elec       q    Type
REMARK                         _______ _______ _______ _____ _____    ______ ____
ROOT
ATOM      1  O   UNL     1      -6.205  11.193  20.474  0.00  0.00    +0.000 OA
ATOM      2  C   UNL     1      -5.817  12.325  20.729  0.00  0.00    +0.000 A 
ATOM      3  O   UNL     1      -6.276  13.440  20.047  0.00  0.00    +0.000 OA
ATOM      4  C   UNL     1      -5.683  14.622  20.517  0.00  0.00    +0.000 A 
ATOM      5  C   UNL     1      -6.586  15.611  20.903  0.00  0.00    +0.000 A 
ATOM      6  C   UNL     1      -6.134  16.617  21.739  0.00  0.00    +0.000 A 
ATOM      7  C   UNL     1      -4.774  16.693  22.043  0.00  0.00    +0.000 A 
ATOM      8  C   UNL     1      -3.850  15.736  21.565  0.00  0.00    +0.000 A 
ATOM      9  C   UNL     1      -4.302  14.617  20.874  0.00  0.00    +0.000 A 
ATOM     10  C   UNL     1      -3.688  13.226  20.967  0.00  0.00    +0.000 A 
ATOM     11  C   UNL     1      -4.657  12.576  21.644  0.00  0.00    +0.000 A 
ATOM     12  N   UNL     1      -4.676  12.740  23.062  0.00  0.00    +0.000 N 
ATOM     13  C   UNL     1      -3.365  12.797  23.792  0.00  0.00    +0.000 C 
ATOM     14  C   UNL     1      -2.405  12.047  22.857  0.00  0.00    +0.000 C 
ATOM     15  C   UNL     1      -2.307  12.819  21.469  0.00  0.00    +0.000 C 
ATOM     16  H   UNL     1      -5.342  13.467  23.328  0.00  0.00    +0.000 HD
ENDROOT
BRANCH  15  17
ATOM     17  C   UNL     1      -1.579  11.848  20.536  0.00  0.00    +0.000 A 
ATOM     18  C   UNL     1      -1.522  12.093  19.162  0.00  0.00    +0.000 A 
ATOM     19  C   UNL     1      -0.694  11.321  18.341  0.00  0.00    +0.000 A 
ATOM     20  C   UNL     1       0.111  10.299  18.866  0.00  0.00    +0.000 A 
ATOM     21  C   UNL     1       0.983   9.541  18.070  0.00  0.00    +0.000 A 
ATOM     22  C   UNL     1       1.797   8.554  18.628  0.00  0.00    +0.000 A 
ATOM     23  C   UNL     1       1.748   8.302  19.997  0.00  0.00    +0.000 A 
ATOM     24  C   UNL     1       0.879   9.035  20.807  0.00  0.00    +0.000 A 
ATOM     25  C   UNL     1       0.052  10.031  20.255  0.00  0.00    +0.000 A 
ATOM     26  C   UNL     1      -0.812  10.787  21.061  0.00  0.00    +0.000 A 
ENDBRANCH  15  17
BRANCH  13  27
ATOM     27  C   UNL     1      -2.751  14.152  24.205  0.00  0.00    +0.000 A 
ATOM     28  C   UNL     1      -3.424  15.127  24.953  0.00  0.00    +0.000 A 
ATOM     29  C   UNL     1      -2.815  16.367  25.245  0.00  0.00    +0.000 A 
ATOM     30  C   UNL     1      -1.527  16.661  24.799  0.00  0.00    +0.000 A 
ATOM     31 CL   UNL     1      -0.828  18.209  25.045  0.00  0.00    +0.000 Cl
ATOM     32  C   UNL     1      -0.803  15.686  24.138  0.00  0.00    +0.000 A 
ATOM     33  C   UNL     1      -1.391  14.453  23.891  0.00  0.00    +0.000 A 
ENDBRANCH  13  27
TORSDOF 2
ENDMDL
MODEL 4
REMARK VINA RESULT:      -7.5      4.512      6.972
REMARK  Name = 
REMARK  2 active torsions:
REMARK  status: ('A' for Active; 'I' for Inactive)
REMARK    1  A    between atoms: C_13  and  C_14
REMARK    2  A    between atoms: C_22  and  C_23
REMARK                            x       y       z     vdW  Elec       q    Type
REMARK                         _______ _______ _______ _____ _____    ______ ____
ROOT
ATOM      1  O   UNL     1       1.878  13.717  18.619  0.00  0.00    +0.000 OA
ATOM      2  C   UNL     1       0.765  13.603  19.113  0.00  0.00    +0.000 A 
ATOM      3  O   UNL     1       0.392  14.269  20.269  0.00  0.00    +0.000 OA
ATOM      4  C   UNL     1      -0.930  13.976  20.638  0.00  0.00    +0.000 A 
ATOM      5  C   UNL     1      -1.744  15.094  20.817  0.00  0.00    +0.000 A 
ATOM      6  C   UNL     1      -3.116  14.914  20.775  0.00  0.00    +0.000 A 
ATOM      7  C   UNL     1      -3.634  13.620  20.708  0.00  0.00    +0.000 A 
ATOM      8  C   UNL     1      -2.794  12.486  20.625  0.00  0.00    +0.000 A 
ATOM      9  C   UNL     1      -1.419  12.646  20.484  0.00  0.00    +0.000 A 
ATOM     10  C   UNL     1      -0.515  11.742  19.656  0.00  0.00    +0.000 A 
ATOM     11  C   UNL     1      -0.210  12.569  18.637  0.00  0.00    +0.000 A 
ATOM     12  N   UNL     1      -1.171  12.685  17.588  0.00  0.00    +0.000 N 
ATOM     13  C   UNL     1      -1.916  11.453  17.162  0.00  0.00    +0.000 C 
ATOM     14  C   UNL     1      -0.976  10.310  17.572  0.00  0.00    +0.000 C 
ATOM     15  C   UNL     1      -0.778  10.327  19.151  0.00  0.00    +0.000 C 
ATOM     16  H   UNL     1      -1.759  13.507  17.732  0.00  0.00    +0.000 HD
ENDROOT
BRANCH  15  17
ATOM     17  C   UNL     1       0.381   9.361  19.407  0.00  0.00    +0.000 A 
ATOM     18  C   UNL     1       0.457   8.646  20.604  0.00  0.00    +0.000 A 
ATOM     19  C   UNL     1       1.398   7.622  20.757  0.00  0.00    +0.000 A 
ATOM     20  C   UNL     1       2.273   7.272  19.719  0.00  0.00    +0.000 A 
ATOM     21  C   UNL     1       3.195   6.219  19.831  0.00  0.00    +0.000 A 
ATOM     22  C   UNL     1       4.029   5.872  18.767  0.00  0.00    +0.000 A 
ATOM     23  C   UNL     1       3.960   6.578  17.569  0.00  0.00    +0.000 A 
ATOM     24  C   UNL     1       3.060   7.637  17.438  0.00  0.00    +0.000 A 
ATOM     25  C   UNL     1       2.216   7.998  18.504  0.00  0.00    +0.000 A 
ATOM     26  C   UNL     1       1.295   9.048  18.379  0.00  0.00    +0.000 A 
ENDBRANCH  15  17
BRANCH  13  27
ATOM     27  C   UNL     1      -3.343  11.175  17.681  0.00  0.00    +0.000 A 
ATOM     28  C   UNL     1      -4.359  12.138  17.744  0.00  0.00    +0.000 A 
ATOM     29  C   UNL     1      -5.626  11.822  18.284  0.00  0.00    +0.000 A 
ATOM     30  C   UNL     1      -5.905  10.547  18.772  0.00  0.00    +0.000 A 
ATOM     31 CL   UNL     1      -7.398  10.189  19.540  0.00  0.00    +0.000 Cl
ATOM     32  C   UNL     1      -4.954   9.551  18.641  0.00  0.00    +0.000 A 
ATOM     33  C   UNL     1      -3.726   9.856  18.069  0.00  0.00    +0.000 A 
ENDBRANCH  13  27
TORSDOF 2
ENDMDL
MODEL 5
REMARK VINA RESULT:      -7.4      4.622      7.023
REMARK  Name = 
REMARK  2 active torsions:
REMARK  status: ('A' for Active; 'I' for Inactive)
REMARK    1  A    between atoms: C_13  and  C_14
REMARK    2  A    between atoms: C_22  and  C_23
REMARK                            x       y       z     vdW  Elec       q    Type
REMARK                         _______ _______ _______ _____ _____    ______ ____
ROOT
ATOM      1  O   UNL     1       2.425  13.357  20.574  0.00  0.00    +0.000 OA
ATOM      2  C   UNL     1       1.249  13.149  20.841  0.00  0.00    +0.000 A 
ATOM      3  O   UNL     1       0.706  13.437  22.083  0.00  0.00    +0.000 OA
ATOM      4  C   UNL     1      -0.657  13.110  22.147  0.00  0.00    +0.000 A 
ATOM      5  C   UNL     1      -1.486  14.155  22.553  0.00  0.00    +0.000 A 
ATOM      6  C   UNL     1      -2.836  14.067  22.260  0.00  0.00    +0.000 A 
ATOM      7  C   UNL     1      -3.341  12.886  21.712  0.00  0.00    +0.000 A 
ATOM      8  C   UNL     1      -2.501  11.795  21.394  0.00  0.00    +0.000 A 
ATOM      9  C   UNL     1      -1.121  11.922  21.509  0.00  0.00    +0.000 A 
ATOM     10  C   UNL     1      -0.104  11.278  20.575  0.00  0.00    +0.000 A 
ATOM     11  C   UNL     1       0.355  12.367  19.927  0.00  0.00    +0.000 A 
ATOM     12  N   UNL     1      -0.436  12.855  18.843  0.00  0.00    +0.000 N 
ATOM     13  C   UNL     1      -1.110  11.859  17.945  0.00  0.00    +0.000 C 
ATOM     14  C   UNL     1      -0.246  10.599  18.101  0.00  0.00    +0.000 C 
ATOM     15  C   UNL     1      -0.290  10.109  19.614  0.00  0.00    +0.000 C 
ATOM     16  H   UNL     1      -1.037  13.619  19.156  0.00  0.00    +0.000 HD
ENDROOT
BRANCH  15  17
ATOM     17  C   UNL     1       0.815   9.055  19.713  0.00  0.00    +0.000 A 
ATOM     18  C   UNL     1       0.883   8.200  20.816  0.00  0.00    +0.000 A 
ATOM     19  C   UNL     1       1.763   7.113  20.813  0.00  0.00    +0.000 A 
ATOM     20  C   UNL     1       2.583   6.837  19.709  0.00  0.00    +0.000 A 
ATOM     21  C   UNL     1       3.441   5.727  19.665  0.00  0.00    +0.000 A 
ATOM     22  C   UNL     1       4.219   5.460  18.537  0.00  0.00    +0.000 A 
ATOM     23  C   UNL     1       4.158   6.306  17.433  0.00  0.00    +0.000 A 
ATOM     24  C   UNL     1       3.322   7.423  17.459  0.00  0.00    +0.000 A 
ATOM     25  C   UNL     1       2.534   7.704  18.591  0.00  0.00    +0.000 A 
ATOM     26  C   UNL     1       1.676   8.813  18.622  0.00  0.00    +0.000 A 
ENDBRANCH  15  17
BRANCH  13  27
ATOM     27  C   UNL     1      -2.600  11.504  18.140  0.00  0.00    +0.000 A 
ATOM     28  C   UNL     1      -3.594  12.435  18.470  0.00  0.00    +0.000 A 
ATOM     29  C   UNL     1      -4.929  12.025  18.686  0.00  0.00    +0.000 A 
ATOM     30  C   UNL     1      -5.299  10.686  18.579  0.00  0.00    +0.000 A 
ATOM     31 CL   UNL     1      -6.890  10.165  18.959  0.00  0.00    +0.000 Cl
ATOM     32  C   UNL     1      -4.362   9.758  18.165  0.00  0.00    +0.000 A 
ATOM     33  C   UNL     1      -3.061  10.173  17.912  0.00  0.00    +0.000 A 
ENDBRANCH  13  27
TORSDOF 2
ENDMDL
MODEL 6
REMARK VINA RESULT:      -7.3      3.279      6.745
REMARK  Name = 
REMARK  2 active torsions:
REMARK  status: ('A' for Active; 'I' for Inactive)
REMARK    1  A    between atoms: C_13  and  C_14
REMARK    2  A    between atoms: C_22  and  C_23
REMARK                            x       y       z     vdW  Elec       q    Type
REMARK                         _______ _______ _______ _____ _____    ______ ____
ROOT
ATOM      1  O   UNL     1      -3.675  11.007  17.508  0.00  0.00    +0.000 OA
ATOM      2  C   UNL     1      -2.532  10.932  17.940  0.00  0.00    +0.000 A 
ATOM      3  O   UNL     1      -1.815   9.747  17.945  0.00  0.00    +0.000 OA
ATOM      4  C   UNL     1      -0.533   9.913  18.490  0.00  0.00    +0.000 A 
ATOM      5  C   UNL     1       0.508   9.481  17.668  0.00  0.00    +0.000 A 
ATOM      6  C   UNL     1       1.781   9.962  17.921  0.00  0.00    +0.000 A 
ATOM      7  C   UNL     1       2.006  10.733  19.062  0.00  0.00    +0.000 A 
ATOM      8  C   UNL     1       0.957  11.084  19.941  0.00  0.00    +0.000 A 
ATOM      9  C   UNL     1      -0.359  10.768  19.617  0.00  0.00    +0.000 A 
ATOM     10  C   UNL     1      -1.569  11.637  19.934  0.00  0.00    +0.000 A 
ATOM     11  C   UNL     1      -1.896  12.059  18.696  0.00  0.00    +0.000 A 
ATOM     12  N   UNL     1      -1.154  13.160  18.172  0.00  0.00    +0.000 N 
ATOM     13  C   UNL     1      -0.769  14.271  19.105  0.00  0.00    +0.000 C 
ATOM     14  C   UNL     1      -1.820  14.179  20.220  0.00  0.00    +0.000 C 
ATOM     15  C   UNL     1      -1.699  12.768  20.948  0.00  0.00    +0.000 C 
ATOM     16  H   UNL     1      -0.397  12.828  17.573  0.00  0.00    +0.000 HD
ENDROOT
BRANCH  15  17
ATOM     17  C   UNL     1      -2.955  12.670  21.816  0.00  0.00    +0.000 A 
ATOM     18  C   UNL     1      -2.852  12.573  23.205  0.00  0.00    +0.000 A 
ATOM     19  C   UNL     1      -3.992  12.685  24.008  0.00  0.00    +0.000 A 
ATOM     20  C   UNL     1      -5.259  12.913  23.452  0.00  0.00    +0.000 A 
ATOM     21  C   UNL     1      -6.410  13.074  24.239  0.00  0.00    +0.000 A 
ATOM     22  C   UNL     1      -7.652  13.336  23.657  0.00  0.00    +0.000 A 
ATOM     23  C   UNL     1      -7.766  13.435  22.273  0.00  0.00    +0.000 A 
ATOM     24  C   UNL     1      -6.637  13.266  21.469  0.00  0.00    +0.000 A 
ATOM     25  C   UNL     1      -5.380  13.000  22.044  0.00  0.00    +0.000 A 
ATOM     26  C   UNL     1      -4.235  12.847  21.249  0.00  0.00    +0.000 A 
ENDBRANCH  15  17
BRANCH  13  27
ATOM     27  C   UNL     1       0.647  14.331  19.717  0.00  0.00    +0.000 A 
ATOM     28  C   UNL     1       1.831  14.238  18.974  0.00  0.00    +0.000 A 
ATOM     29  C   UNL     1       3.092  14.245  19.612  0.00  0.00    +0.000 A 
ATOM     30  C   UNL     1       3.198  14.343  20.998  0.00  0.00    +0.000 A 
ATOM     31 CL   UNL     1       4.717  14.230  21.789  0.00  0.00    +0.000 Cl
ATOM     32  C   UNL     1       2.053  14.529  21.752  0.00  0.00    +0.000 A 
ATOM     33  C   UNL     1       0.820  14.564  21.115  0.00  0.00    +0.000 A 
ENDBRANCH  13  27
TORSDOF 2
ENDMDL
MODEL 7
REMARK VINA RESULT:      -7.3      4.235      6.120
REMARK  Name = 
REMARK  2 active torsions:
REMARK  status: ('A' for Active; 'I' for Inactive)
REMARK    1  A    between atoms: C_13  and  C_14
REMARK    2  A    between atoms: C_22  and  C_23
REMARK                            x       y       z     vdW  Elec       q    Type
REMARK                         _______ _______ _______ _____ _____    ______ ____
ROOT
ATOM      1  O   UNL     1       2.438  13.447  17.846  0.00  0.00    +0.000 OA
ATOM      2  C   UNL     1       1.874  13.854  18.853  0.00  0.00    +0.000 A 
ATOM      3  O   UNL     1       2.478  14.728  19.742  0.00  0.00    +0.000 OA
ATOM      4  C   UNL     1       1.635  15.047  20.817  0.00  0.00    +0.000 A 
ATOM      5  C   UNL     1       1.441  16.413  21.018  0.00  0.00    +0.000 A 
ATOM      6  C   UNL     1       0.342  16.814  21.758  0.00  0.00    +0.000 A 
ATOM      7  C   UNL     1      -0.439  15.850  22.397  0.00  0.00    +0.000 A 
ATOM      8  C   UNL     1      -0.173  14.468  22.264  0.00  0.00    +0.000 A 
ATOM      9  C   UNL     1       0.812  14.031  21.384  0.00  0.00    +0.000 A 
ATOM     10  C   UNL     1       0.738  12.754  20.556  0.00  0.00    +0.000 A 
ATOM     11  C   UNL     1       0.575  13.274  19.322  0.00  0.00    +0.000 A 
ATOM     12  N   UNL     1      -0.747  13.671  18.958  0.00  0.00    +0.000 N 
ATOM     13  C   UNL     1      -1.899  12.821  19.411  0.00  0.00    +0.000 C 
ATOM     14  C   UNL     1      -1.261  11.439  19.617  0.00  0.00    +0.000 C 
ATOM     15  C   UNL     1      -0.152  11.532  20.755  0.00  0.00    +0.000 C 
ATOM     16  H   UNL     1      -0.874  14.672  19.109  0.00  0.00    +0.000 HD
ENDROOT
BRANCH  15  17
ATOM     17  C   UNL     1       0.605  10.204  20.668  0.00  0.00    +0.000 A 
ATOM     18  C   UNL     1       0.522   9.271  21.704  0.00  0.00    +0.000 A 
ATOM     19  C   UNL     1       1.046   7.985  21.539  0.00  0.00    +0.000 A 
ATOM     20  C   UNL     1       1.648   7.588  20.337  0.00  0.00    +0.000 A 
ATOM     21  C   UNL     1       2.140   6.290  20.132  0.00  0.00    +0.000 A 
ATOM     22  C   UNL     1       2.703   5.915  18.911  0.00  0.00    +0.000 A 
ATOM     23  C   UNL     1       2.790   6.837  17.871  0.00  0.00    +0.000 A 
ATOM     24  C   UNL     1       2.319   8.138  18.056  0.00  0.00    +0.000 A 
ATOM     25  C   UNL     1       1.751   8.529  19.283  0.00  0.00    +0.000 A 
ATOM     26  C   UNL     1       1.258   9.827  19.475  0.00  0.00    +0.000 A 
ENDBRANCH  15  17
BRANCH  13  27
ATOM     27  C   UNL     1      -2.726  13.212  20.654  0.00  0.00    +0.000 A 
ATOM     28  C   UNL     1      -2.909  12.385  21.770  0.00  0.00    +0.000 A 
ATOM     29  C   UNL     1      -3.727  12.791  22.848  0.00  0.00    +0.000 A 
ATOM     30  C   UNL     1      -4.376  14.024  22.837  0.00  0.00    +0.000 A 
ATOM     31 CL   UNL     1      -5.466  14.473  24.085  0.00  0.00    +0.000 Cl
ATOM     32  C   UNL     1      -4.142  14.901  21.793  0.00  0.00    +0.000 A 
ATOM     33  C   UNL     1      -3.303  14.514  20.757  0.00  0.00    +0.000 A 
ENDBRANCH  13  27
TORSDOF 2
ENDMDL
MODEL 8
REMARK VINA RESULT:      -7.2      4.414      6.319
REMARK  Name = 
REMARK  2 active torsions:
REMARK  status: ('A' for Active; 'I' for Inactive)
REMARK    1  A    between atoms: C_13  and  C_14
REMARK    2  A    between atoms: C_22  and  C_23
REMARK                            x       y       z     vdW  Elec       q    Type
REMARK                         _______ _______ _______ _____ _____    ______ ____
ROOT
ATOM      1  O   UNL     1       2.589  12.935  17.460  0.00  0.00    +0.000 OA
ATOM      2  C   UNL     1       2.146  13.439  18.483  0.00  0.00    +0.000 A 
ATOM      3  O   UNL     1       2.881  14.322  19.257  0.00  0.00    +0.000 OA
ATOM      4  C   UNL     1       2.160  14.761  20.377  0.00  0.00    +0.000 A 
ATOM      5  C   UNL     1       2.071  16.147  20.503  0.00  0.00    +0.000 A 
ATOM      6  C   UNL     1       1.070  16.666  21.306  0.00  0.00    +0.000 A 
ATOM      7  C   UNL     1       0.290  15.798  22.072  0.00  0.00    +0.000 A 
ATOM      8  C   UNL     1       0.456  14.397  22.008  0.00  0.00    +0.000 A 
ATOM      9  C   UNL     1       1.328  13.840  21.078  0.00  0.00    +0.000 A 
ATOM     10  C   UNL     1       1.100  12.524  20.345  0.00  0.00    +0.000 A 
ATOM     11  C   UNL     1       0.859  12.978  19.099  0.00  0.00    +0.000 A 
ATOM     12  N   UNL     1      -0.462  13.443  18.823  0.00  0.00    +0.000 N 
ATOM     13  C   UNL     1      -1.620  12.702  19.428  0.00  0.00    +0.000 C 
ATOM     14  C   UNL     1      -1.054  11.296  19.670  0.00  0.00    +0.000 C 
ATOM     15  C   UNL     1       0.156  11.380  20.700  0.00  0.00    +0.000 C 
ATOM     16  H   UNL     1      -0.511  14.458  18.919  0.00  0.00    +0.000 HD
ENDROOT
BRANCH  15  17
ATOM     17  C   UNL     1       0.817  10.001  20.636  0.00  0.00    +0.000 A 
ATOM     18  C   UNL     1       0.655   9.088  21.680  0.00  0.00    +0.000 A 
ATOM     19  C   UNL     1       1.087   7.766  21.536  0.00  0.00    +0.000 A 
ATOM     20  C   UNL     1       1.674   7.313  20.345  0.00  0.00    +0.000 A 
ATOM     21  C   UNL     1       2.074   5.981  20.160  0.00  0.00    +0.000 A 
ATOM     22  C   UNL     1       2.623   5.553  18.950  0.00  0.00    +0.000 A 
ATOM     23  C   UNL     1       2.788   6.455  17.902  0.00  0.00    +0.000 A 
ATOM     24  C   UNL     1       2.409   7.789  18.067  0.00  0.00    +0.000 A 
ATOM     25  C   UNL     1       1.856   8.232  19.283  0.00  0.00    +0.000 A 
ATOM     26  C   UNL     1       1.455   9.565  19.456  0.00  0.00    +0.000 A 
ENDBRANCH  15  17
BRANCH  13  27
ATOM     27  C   UNL     1      -2.305  13.224  20.710  0.00  0.00    +0.000 A 
ATOM     28  C   UNL     1      -2.857  14.505  20.842  0.00  0.00    +0.000 A 
ATOM     29  C   UNL     1      -3.420  14.930  22.066  0.00  0.00    +0.000 A 
ATOM     30  C   UNL     1      -3.443  14.092  23.179  0.00  0.00    +0.000 A 
ATOM     31 CL   UNL     1      -4.013  14.643  24.702  0.00  0.00    +0.000 Cl
ATOM     32  C   UNL     1      -2.990  12.791  23.054  0.00  0.00    +0.000 A 
ATOM     33  C   UNL     1      -2.478  12.365  21.837  0.00  0.00    +0.000 A 
ENDBRANCH  13  27
TORSDOF 2
ENDMDL
MODEL 9
REMARK VINA RESULT:      -7.2      3.854      5.272
REMARK  Name = 
REMARK  2 active torsions:
REMARK  status: ('A' for Active; 'I' for Inactive)
REMARK    1  A    between atoms: C_13  and  C_14
REMARK    2  A    between atoms: C_22  and  C_23
REMARK                            x       y       z     vdW  Elec       q    Type
REMARK                         _______ _______ _______ _____ _____    ______ ____
ROOT
ATOM      1  O   UNL     1      -0.602  10.454  23.809  0.00  0.00    +0.000 OA
ATOM      2  C   UNL     1      -1.217  11.272  23.138  0.00  0.00    +0.000 A 
ATOM      3  O   UNL     1      -2.601  11.290  23.071  0.00  0.00    +0.000 OA
ATOM      4  C   UNL     1      -3.071  12.316  22.239  0.00  0.00    +0.000 A 
ATOM      5  C   UNL     1      -3.997  13.171  22.838  0.00  0.00    +0.000 A 
ATOM      6  C   UNL     1      -4.202  14.414  22.265  0.00  0.00    +0.000 A 
ATOM      7  C   UNL     1      -3.599  14.711  21.042  0.00  0.00    +0.000 A 
ATOM      8  C   UNL     1      -2.737  13.796  20.396  0.00  0.00    +0.000 A 
ATOM      9  C   UNL     1      -2.371  12.614  21.033  0.00  0.00    +0.000 A 
ATOM     10  C   UNL     1      -1.004  11.952  20.927  0.00  0.00    +0.000 A 
ATOM     11  C   UNL     1      -0.526  12.179  22.167  0.00  0.00    +0.000 A 
ATOM     12  N   UNL     1       0.039  13.466  22.416  0.00  0.00    +0.000 N 
ATOM     13  C   UNL     1       0.849  14.113  21.330  0.00  0.00    +0.000 C 
ATOM     14  C   UNL     1       1.336  12.922  20.493  0.00  0.00    +0.000 C 
ATOM     15  C   UNL     1       0.083  12.159  19.877  0.00  0.00    +0.000 C 
ATOM     16  H   UNL     1      -0.650  14.080  22.854  0.00  0.00    +0.000 HD
ENDROOT
BRANCH  15  17
ATOM     17  C   UNL     1       0.657  10.851  19.326  0.00  0.00    +0.000 A 
ATOM     18  C   UNL     1       1.325  10.831  18.100  0.00  0.00    +0.000 A 
ATOM     19  C   UNL     1       2.019   9.687  17.692  0.00  0.00    +0.000 A 
ATOM     20  C   UNL     1       2.083   8.543  18.501  0.00  0.00    +0.000 A 
ATOM     21  C   UNL     1       2.811   7.401  18.135  0.00  0.00    +0.000 A 
ATOM     22  C   UNL     1       2.885   6.290  18.978  0.00  0.00    +0.000 A 
ATOM     23  C   UNL     1       2.224   6.300  20.203  0.00  0.00    +0.000 A 
ATOM     24  C   UNL     1       1.484   7.421  20.583  0.00  0.00    +0.000 A 
ATOM     25  C   UNL     1       1.400   8.546  19.741  0.00  0.00    +0.000 A 
ATOM     26  C   UNL     1       0.674   9.685  20.120  0.00  0.00    +0.000 A 
ENDBRANCH  15  17
BRANCH  13  27
ATOM     27  C   UNL     1       0.222  15.184  20.411  0.00  0.00    +0.000 A 
ATOM     28  C   UNL     1       0.244  15.131  19.011  0.00  0.00    +0.000 A 
ATOM     29  C   UNL     1      -0.303  16.178  18.236  0.00  0.00    +0.000 A 
ATOM     30  C   UNL     1      -0.880  17.295  18.838  0.00  0.00    +0.000 A 
ATOM     31 CL   UNL     1      -1.436  18.625  17.906  0.00  0.00    +0.000 Cl
ATOM     32  C   UNL     1      -1.000  17.334  20.215  0.00  0.00    +0.000 A 
ATOM     33  C   UNL     1      -0.499  16.282  20.970  0.00  0.00    +0.000 A 
ENDBRANCH  13  27
TORSDOF 2
ENDMDL
