MODEL 1
REMARK VINA RESULT:      -7.2      0.000      0.000
REMARK  Name = 
REMARK  9 active torsions:
REMARK  status: ('A' for Active; 'I' for Inactive)
REMARK    1  A    between atoms: C_1  and  C_2
REMARK    2  A    between atoms: C_5  and  N_6
REMARK    3  A    between atoms: C_8  and  N_9
REMARK    4  A    between atoms: N_9  and  C_10
REMARK    5  A    between atoms: C_10  and  C_11
REMARK    6  A    between atoms: C_14  and  C_15
REMARK    7  A    between atoms: C_15  and  C_16
REMARK    8  A    between atoms: C_15  and  O_17
REMARK    9  A    between atoms: C_21  and  C_22
REMARK                            x       y       z     vdW  Elec       q    Type
REMARK                         _______ _______ _______ _____ _____    ______ ____
ROOT
ATOM      1  N   UNL     1       1.834   8.150  19.519  0.00  0.00    +0.000 N 
ATOM      2  C   UNL     1       2.365   6.912  19.825  0.00  0.00    +0.000 A 
ATOM      3  C   UNL     1       3.085   6.513  18.732  0.00  0.00    +0.000 A 
ATOM      4  C   UNL     1       2.984   7.579  17.822  0.00  0.00    +0.000 A 
ATOM      5  N   UNL     1       2.244   8.579  18.297  0.00  0.00    +0.000 NA
ENDROOT
BRANCH   1  10
ATOM      6  C   UNL     1      -1.368  11.321  23.061  0.00  0.00    +0.000 C 
ATOM      7  C   UNL     1      -0.532  10.490  22.131  0.00  0.00    +0.000 A 
ATOM      8  C   UNL     1       0.346   9.530  22.625  0.00  0.00    +0.000 A 
ATOM      9  C   UNL     1       1.107   8.756  21.750  0.00  0.00    +0.000 A 
ATOM     10  C   UNL     1       1.008   8.947  20.357  0.00  0.00    +0.000 A 
ATOM     11  C   UNL     1       0.106   9.896  19.834  0.00  0.00    +0.000 A 
ATOM     12  C   UNL     1      -0.187  10.116  18.372  0.00  0.00    +0.000 C 
ATOM     13  C   UNL     1      -0.647  10.667  20.746  0.00  0.00    +0.000 A 
ENDBRANCH   1  10
BRANCH   3  14
ATOM     14  N   UNL     1       3.718   5.330  18.618  0.00  0.00    +0.000 N 
ATOM     15  H   UNL     1       3.233   4.466  18.850  0.00  0.00    +0.000 HD
BRANCH  14  16
ATOM     16  C   UNL     1       5.175   5.245  18.717  0.00  0.00    +0.000 C 
BRANCH  16  17
ATOM     17  C   UNL     1       5.891   5.135  17.415  0.00  0.00    +0.000 A 
ATOM     18  C   UNL     1       7.024   5.788  16.963  0.00  0.00    +0.000 A 
ATOM     19  N   UNL     1       7.424   5.476  15.670  0.00  0.00    +0.000 NA
ATOM     20  C   UNL     1       6.582   4.602  15.151  0.00  0.00    +0.000 A 
ATOM     21  S   UNL     1       5.311   4.086  16.190  0.00  0.00    +0.000 S 
BRANCH  20  22
ATOM     22  C   UNL     1       6.671   4.049  13.751  0.00  0.00    +0.000 C 
ATOM     23  C   UNL     1       7.460   4.963  12.828  0.00  0.00    +0.000 C 
BRANCH  22  24
ATOM     24  O   UNL     1       5.341   3.927  13.236  0.00  0.00    +0.000 OA
ATOM     25  H   UNL     1       4.863   4.719  13.550  0.00  0.00    +0.000 HD
ENDBRANCH  22  24
ENDBRANCH  20  22
ENDBRANCH  16  17
ENDBRANCH  14  16
ENDBRANCH   3  14
TORSDOF 6
ENDMDL
MODEL 2
REMARK VINA RESULT:      -7.2      6.366      9.284
REMARK  Name = 
REMARK  9 active torsions:
REMARK  status: ('A' for Active; 'I' for Inactive)
REMARK    1  A    between atoms: C_1  and  C_2
REMARK    2  A    between atoms: C_5  and  N_6
REMARK    3  A    between atoms: C_8  and  N_9
REMARK    4  A    between atoms: N_9  and  C_10
REMARK    5  A    between atoms: C_10  and  C_11
REMARK    6  A    between atoms: C_14  and  C_15
REMARK    7  A    between atoms: C_15  and  C_16
REMARK    8  A    between atoms: C_15  and  O_17
REMARK    9  A    between atoms: C_21  and  C_22
REMARK                            x       y       z     vdW  Elec       q    Type
REMARK                         _______ _______ _______ _____ _____    ______ ____
ROOT
ATOM      1  N   UNL     1       7.170   5.577  17.062  0.00  0.00    +0.000 N 
ATOM      2  C   UNL     1       7.650   6.862  17.226  0.00  0.00    +0.000 A 
ATOM      3  C   UNL     1       8.083   6.957  18.520  0.00  0.00    +0.000 A 
ATOM      4  C   UNL     1       7.879   5.678  19.067  0.00  0.00    +0.000 A 
ATOM      5  N   UNL     1       7.343   4.834  18.186  0.00  0.00    +0.000 NA
ENDROOT
BRANCH   1  10
ATOM      6  C   UNL     1       5.114   3.335  12.204  0.00  0.00    +0.000 C 
ATOM      7  C   UNL     1       5.649   3.924  13.477  0.00  0.00    +0.000 A 
ATOM      8  C   UNL     1       6.936   4.451  13.534  0.00  0.00    +0.000 A 
ATOM      9  C   UNL     1       7.416   5.007  14.720  0.00  0.00    +0.000 A 
ATOM     10  C   UNL     1       6.611   5.027  15.877  0.00  0.00    +0.000 A 
ATOM     11  C   UNL     1       5.297   4.522  15.834  0.00  0.00    +0.000 A 
ATOM     12  C   UNL     1       4.292   4.590  16.957  0.00  0.00    +0.000 C 
ATOM     13  C   UNL     1       4.841   3.962  14.621  0.00  0.00    +0.000 A 
ENDBRANCH   1  10
BRANCH   3  14
ATOM     14  N   UNL     1       8.578   8.074  19.086  0.00  0.00    +0.000 N 
ATOM     15  H   UNL     1       8.612   8.161  20.099  0.00  0.00    +0.000 HD
BRANCH  14  16
ATOM     16  C   UNL     1       8.553   9.351  18.374  0.00  0.00    +0.000 C 
BRANCH  16  17
ATOM     17  C   UNL     1       9.327  10.449  19.018  0.00  0.00    +0.000 A 
ATOM     18  C   UNL     1       9.428  10.805  20.351  0.00  0.00    +0.000 A 
ATOM     19  N   UNL     1      10.222  11.913  20.621  0.00  0.00    +0.000 NA
ATOM     20  C   UNL     1      10.701  12.392  19.488  0.00  0.00    +0.000 A 
ATOM     21  S   UNL     1      10.264  11.525  18.069  0.00  0.00    +0.000 S 
BRANCH  20  22
ATOM     22  C   UNL     1      11.581  13.613  19.375  0.00  0.00    +0.000 C 
ATOM     23  C   UNL     1      11.068  14.764  20.225  0.00  0.00    +0.000 C 
BRANCH  22  24
ATOM     24  O   UNL     1      11.587  14.030  18.006  0.00  0.00    +0.000 OA
ATOM     25  H   UNL     1      10.760  13.682  17.620  0.00  0.00    +0.000 HD
ENDBRANCH  22  24
ENDBRANCH  20  22
ENDBRANCH  16  17
ENDBRANCH  14  16
ENDBRANCH   3  14
TORSDOF 6
ENDMDL
MODEL 3
REMARK VINA RESULT:      -7.2      6.016      8.472
REMARK  Name = 
REMARK  9 active torsions:
REMARK  status: ('A' for Active; 'I' for Inactive)
REMARK    1  A    between atoms: C_1  and  C_2
REMARK    2  A    between atoms: C_5  and  N_6
REMARK    3  A    between atoms: C_8  and  N_9
REMARK    4  A    between atoms: N_9  and  C_10
REMARK    5  A    between atoms: C_10  and  C_11
REMARK    6  A    between atoms: C_14  and  C_15
REMARK    7  A    between atoms: C_15  and  C_16
REMARK    8  A    between atoms: C_15  and  O_17
REMARK    9  A    between atoms: C_21  and  C_22
REMARK                            x       y       z     vdW  Elec       q    Type
REMARK                         _______ _______ _______ _____ _____    ______ ____
ROOT
ATOM      1  N   UNL     1       6.663   6.360  18.095  0.00  0.00    +0.000 N 
ATOM      2  C   UNL     1       6.770   7.603  17.501  0.00  0.00    +0.000 A 
ATOM      3  C   UNL     1       7.915   8.173  17.986  0.00  0.00    +0.000 A 
ATOM      4  C   UNL     1       8.476   7.200  18.831  0.00  0.00    +0.000 A 
ATOM      5  N   UNL     1       7.734   6.095  18.888  0.00  0.00    +0.000 NA
ENDROOT
BRANCH   1  10
ATOM      6  C   UNL     1       2.349   2.646  17.426  0.00  0.00    +0.000 C 
ATOM      7  C   UNL     1       3.482   3.617  17.600  0.00  0.00    +0.000 A 
ATOM      8  C   UNL     1       3.544   4.450  18.713  0.00  0.00    +0.000 A 
ATOM      9  C   UNL     1       4.608   5.337  18.869  0.00  0.00    +0.000 A 
ATOM     10  C   UNL     1       5.624   5.413  17.895  0.00  0.00    +0.000 A 
ATOM     11  C   UNL     1       5.594   4.561  16.773  0.00  0.00    +0.000 A 
ATOM     12  C   UNL     1       6.671   4.452  15.724  0.00  0.00    +0.000 C 
ATOM     13  C   UNL     1       4.502   3.676  16.641  0.00  0.00    +0.000 A 
ENDBRANCH   1  10
BRANCH   3  14
ATOM     14  N   UNL     1       8.346   9.413  17.683  0.00  0.00    +0.000 N 
ATOM     15  H   UNL     1       8.652   9.631  16.738  0.00  0.00    +0.000 HD
BRANCH  14  16
ATOM     16  C   UNL     1       8.910  10.284  18.713  0.00  0.00    +0.000 C 
BRANCH  16  17
ATOM     17  C   UNL     1       9.659  11.466  18.200  0.00  0.00    +0.000 A 
ATOM     18  C   UNL     1      10.896  11.539  17.585  0.00  0.00    +0.000 A 
ATOM     19  N   UNL     1      11.328  12.816  17.249  0.00  0.00    +0.000 NA
ATOM     20  C   UNL     1      10.420  13.697  17.627  0.00  0.00    +0.000 A 
ATOM     21  S   UNL     1       9.006  13.043  18.355  0.00  0.00    +0.000 S 
BRANCH  20  22
ATOM     22  C   UNL     1      10.550  15.190  17.459  0.00  0.00    +0.000 C 
ATOM     23  C   UNL     1       9.236  15.908  17.724  0.00  0.00    +0.000 C 
BRANCH  22  24
ATOM     24  O   UNL     1      10.944  15.453  16.108  0.00  0.00    +0.000 OA
ATOM     25  H   UNL     1      11.906  15.616  16.141  0.00  0.00    +0.000 HD
ENDBRANCH  22  24
ENDBRANCH  20  22
ENDBRANCH  16  17
ENDBRANCH  14  16
ENDBRANCH   3  14
TORSDOF 6
ENDMDL
MODEL 4
REMARK VINA RESULT:      -7.2      4.116      8.726
REMARK  Name = 
REMARK  9 active torsions:
REMARK  status: ('A' for Active; 'I' for Inactive)
REMARK    1  A    between atoms: C_1  and  C_2
REMARK    2  A    between atoms: C_5  and  N_6
REMARK    3  A    between atoms: C_8  and  N_9
REMARK    4  A    between atoms: N_9  and  C_10
REMARK    5  A    between atoms: C_10  and  C_11
REMARK    6  A    between atoms: C_14  and  C_15
REMARK    7  A    between atoms: C_15  and  C_16
REMARK    8  A    between atoms: C_15  and  O_17
REMARK    9  A    between atoms: C_21  and  C_22
REMARK                            x       y       z     vdW  Elec       q    Type
REMARK                         _______ _______ _______ _____ _____    ______ ____
ROOT
ATOM      1  N   UNL     1       2.731   6.613  18.903  0.00  0.00    +0.000 N 
ATOM      2  C   UNL     1       2.229   7.896  18.799  0.00  0.00    +0.000 A 
ATOM      3  C   UNL     1       1.535   8.140  19.952  0.00  0.00    +0.000 A 
ATOM      4  C   UNL     1       1.699   6.980  20.728  0.00  0.00    +0.000 A 
ATOM      5  N   UNL     1       2.435   6.059  20.108  0.00  0.00    +0.000 NA
ENDROOT
BRANCH   1  10
ATOM      6  C   UNL     1       6.047   3.992  15.031  0.00  0.00    +0.000 C 
ATOM      7  C   UNL     1       5.175   4.677  16.044  0.00  0.00    +0.000 A 
ATOM      8  C   UNL     1       5.441   5.982  16.448  0.00  0.00    +0.000 A 
ATOM      9  C   UNL     1       4.615   6.612  17.379  0.00  0.00    +0.000 A 
ATOM     10  C   UNL     1       3.514   5.929  17.934  0.00  0.00    +0.000 A 
ATOM     11  C   UNL     1       3.212   4.616  17.521  0.00  0.00    +0.000 A 
ATOM     12  C   UNL     1       2.003   3.819  17.939  0.00  0.00    +0.000 C 
ATOM     13  C   UNL     1       4.069   4.005  16.579  0.00  0.00    +0.000 A 
ENDBRANCH   1  10
BRANCH   3  14
ATOM     14  N   UNL     1       0.852   9.271  20.213  0.00  0.00    +0.000 N 
ATOM     15  H   UNL     1       0.056   9.252  20.846  0.00  0.00    +0.000 HD
BRANCH  14  16
ATOM     16  C   UNL     1       0.830  10.375  19.254  0.00  0.00    +0.000 C 
BRANCH  16  17
ATOM     17  C   UNL     1      -0.529  10.826  18.841  0.00  0.00    +0.000 A 
ATOM     18  C   UNL     1      -1.353  11.791  19.393  0.00  0.00    +0.000 A 
ATOM     19  N   UNL     1      -2.588  11.952  18.777  0.00  0.00    +0.000 NA
ATOM     20  C   UNL     1      -2.692  11.098  17.777  0.00  0.00    +0.000 A 
ATOM     21  S   UNL     1      -1.316  10.103  17.502  0.00  0.00    +0.000 S 
BRANCH  20  22
ATOM     22  C   UNL     1      -3.905  10.953  16.892  0.00  0.00    +0.000 C 
ATOM     23  C   UNL     1      -3.530  10.572  15.470  0.00  0.00    +0.000 C 
BRANCH  22  24
ATOM     24  O   UNL     1      -4.582  12.213  16.857  0.00  0.00    +0.000 OA
ATOM     25  H   UNL     1      -3.893  12.888  17.009  0.00  0.00    +0.000 HD
ENDBRANCH  22  24
ENDBRANCH  20  22
ENDBRANCH  16  17
ENDBRANCH  14  16
ENDBRANCH   3  14
TORSDOF 6
ENDMDL
MODEL 5
REMARK VINA RESULT:      -7.2      4.299      9.498
REMARK  Name = 
REMARK  9 active torsions:
REMARK  status: ('A' for Active; 'I' for Inactive)
REMARK    1  A    between atoms: C_1  and  C_2
REMARK    2  A    between atoms: C_5  and  N_6
REMARK    3  A    between atoms: C_8  and  N_9
REMARK    4  A    between atoms: N_9  and  C_10
REMARK    5  A    between atoms: C_10  and  C_11
REMARK    6  A    between atoms: C_14  and  C_15
REMARK    7  A    between atoms: C_15  and  C_16
REMARK    8  A    between atoms: C_15  and  O_17
REMARK    9  A    between atoms: C_21  and  C_22
REMARK                            x       y       z     vdW  Elec       q    Type
REMARK                         _______ _______ _______ _____ _____    ______ ____
ROOT
ATOM      1  N   UNL     1       3.262   5.471  18.952  0.00  0.00    +0.000 N 
ATOM      2  C   UNL     1       2.697   6.662  19.363  0.00  0.00    +0.000 A 
ATOM      3  C   UNL     1       2.006   6.394  20.512  0.00  0.00    +0.000 A 
ATOM      4  C   UNL     1       2.236   5.031  20.765  0.00  0.00    +0.000 A 
ATOM      5  N   UNL     1       3.009   4.470  19.835  0.00  0.00    +0.000 NA
ENDROOT
BRANCH   1  10
ATOM      6  C   UNL     1       6.625   4.815  14.357  0.00  0.00    +0.000 C 
ATOM      7  C   UNL     1       5.741   4.985  15.559  0.00  0.00    +0.000 A 
ATOM      8  C   UNL     1       5.740   6.174  16.282  0.00  0.00    +0.000 A 
ATOM      9  C   UNL     1       4.904   6.324  17.388  0.00  0.00    +0.000 A 
ATOM     10  C   UNL     1       4.065   5.268  17.797  0.00  0.00    +0.000 A 
ATOM     11  C   UNL     1       4.032   4.065  17.065  0.00  0.00    +0.000 A 
ATOM     12  C   UNL     1       3.099   2.908  17.318  0.00  0.00    +0.000 C 
ATOM     13  C   UNL     1       4.892   3.942  15.952  0.00  0.00    +0.000 A 
ENDBRANCH   1  10
BRANCH   3  14
ATOM     14  N   UNL     1       1.272   7.292  21.197  0.00  0.00    +0.000 N 
ATOM     15  H   UNL     1       0.503   6.980  21.785  0.00  0.00    +0.000 HD
BRANCH  14  16
ATOM     16  C   UNL     1       1.151   8.673  20.733  0.00  0.00    +0.000 C 
BRANCH  16  17
ATOM     17  C   UNL     1       0.342   9.566  21.610  0.00  0.00    +0.000 A 
ATOM     18  C   UNL     1       0.063   9.473  22.961  0.00  0.00    +0.000 A 
ATOM     19  N   UNL     1      -0.759  10.468  23.477  0.00  0.00    +0.000 NA
ATOM     20  C   UNL     1      -1.106  11.293  22.507  0.00  0.00    +0.000 A 
ATOM     21  S   UNL     1      -0.438  10.947  20.960  0.00  0.00    +0.000 S 
BRANCH  20  22
ATOM     22  C   UNL     1      -2.020  12.481  22.676  0.00  0.00    +0.000 C 
ATOM     23  C   UNL     1      -1.311  13.657  23.327  0.00  0.00    +0.000 C 
BRANCH  22  24
ATOM     24  O   UNL     1      -3.108  12.088  23.519  0.00  0.00    +0.000 OA
ATOM     25  H   UNL     1      -2.801  11.291  23.992  0.00  0.00    +0.000 HD
ENDBRANCH  22  24
ENDBRANCH  20  22
ENDBRANCH  16  17
ENDBRANCH  14  16
ENDBRANCH   3  14
TORSDOF 6
ENDMDL
MODEL 6
REMARK VINA RESULT:      -7.2      4.649      9.761
REMARK  Name = 
REMARK  9 active torsions:
REMARK  status: ('A' for Active; 'I' for Inactive)
REMARK    1  A    between atoms: C_1  and  C_2
REMARK    2  A    between atoms: C_5  and  N_6
REMARK    3  A    between atoms: C_8  and  N_9
REMARK    4  A    between atoms: N_9  and  C_10
REMARK    5  A    between atoms: C_10  and  C_11
REMARK    6  A    between atoms: C_14  and  C_15
REMARK    7  A    between atoms: C_15  and  C_16
REMARK    8  A    between atoms: C_15  and  O_17
REMARK    9  A    between atoms: C_21  and  C_22
REMARK                            x       y       z     vdW  Elec       q    Type
REMARK                         _______ _______ _______ _____ _____    ______ ____
ROOT
ATOM      1  N   UNL     1       2.658   7.118  18.632  0.00  0.00    +0.000 N 
ATOM      2  C   UNL     1       2.099   8.323  18.254  0.00  0.00    +0.000 A 
ATOM      3  C   UNL     1       1.417   8.798  19.340  0.00  0.00    +0.000 A 
ATOM      4  C   UNL     1       1.646   7.854  20.355  0.00  0.00    +0.000 A 
ATOM      5  N   UNL     1       2.410   6.844  19.940  0.00  0.00    +0.000 NA
ENDROOT
BRANCH   1  10
ATOM      6  C   UNL     1       6.020   3.794  15.393  0.00  0.00    +0.000 C 
ATOM      7  C   UNL     1       5.136   4.663  16.240  0.00  0.00    +0.000 A 
ATOM      8  C   UNL     1       5.461   5.996  16.477  0.00  0.00    +0.000 A 
ATOM      9  C   UNL     1       4.624   6.796  17.254  0.00  0.00    +0.000 A 
ATOM     10  C   UNL     1       3.451   6.261  17.823  0.00  0.00    +0.000 A 
ATOM     11  C   UNL     1       3.090   4.922  17.575  0.00  0.00    +0.000 A 
ATOM     12  C   UNL     1       1.809   4.261  18.017  0.00  0.00    +0.000 C 
ATOM     13  C   UNL     1       3.959   4.136  16.787  0.00  0.00    +0.000 A 
ENDBRANCH   1  10
BRANCH   3  14
ATOM     14  N   UNL     1       0.690   9.932  19.357  0.00  0.00    +0.000 N 
ATOM     15  H   UNL     1       0.243  10.265  18.507  0.00  0.00    +0.000 HD
BRANCH  14  16
ATOM     16  C   UNL     1       0.953  10.978  20.346  0.00  0.00    +0.000 C 
BRANCH  16  17
ATOM     17  C   UNL     1      -0.129  11.183  21.351  0.00  0.00    +0.000 A 
ATOM     18  C   UNL     1      -0.384  10.513  22.533  0.00  0.00    +0.000 A 
ATOM     19  N   UNL     1      -1.505  10.938  23.236  0.00  0.00    +0.000 NA
ATOM     20  C   UNL     1      -2.094  11.914  22.571  0.00  0.00    +0.000 A 
ATOM     21  S   UNL     1      -1.319  12.392  21.111  0.00  0.00    +0.000 S 
BRANCH  20  22
ATOM     22  C   UNL     1      -3.360  12.609  23.005  0.00  0.00    +0.000 C 
ATOM     23  C   UNL     1      -3.104  14.045  23.429  0.00  0.00    +0.000 C 
BRANCH  22  24
ATOM     24  O   UNL     1      -3.896  11.896  24.125  0.00  0.00    +0.000 OA
ATOM     25  H   UNL     1      -4.498  11.226  23.748  0.00  0.00    +0.000 HD
ENDBRANCH  22  24
ENDBRANCH  20  22
ENDBRANCH  16  17
ENDBRANCH  14  16
ENDBRANCH   3  14
TORSDOF 6
ENDMDL
MODEL 7
REMARK VINA RESULT:      -7.2      5.550      7.802
REMARK  Name = 
REMARK  9 active torsions:
REMARK  status: ('A' for Active; 'I' for Inactive)
REMARK    1  A    between atoms: C_1  and  C_2
REMARK    2  A    between atoms: C_5  and  N_6
REMARK    3  A    between atoms: C_8  and  N_9
REMARK    4  A    between atoms: N_9  and  C_10
REMARK    5  A    between atoms: C_10  and  C_11
REMARK    6  A    between atoms: C_14  and  C_15
REMARK    7  A    between atoms: C_15  and  C_16
REMARK    8  A    between atoms: C_15  and  O_17
REMARK    9  A    between atoms: C_21  and  C_22
REMARK                            x       y       z     vdW  Elec       q    Type
REMARK                         _______ _______ _______ _____ _____    ______ ____
ROOT
ATOM      1  N   UNL     1       5.911   5.623  18.414  0.00  0.00    +0.000 N 
ATOM      2  C   UNL     1       6.226   6.697  17.605  0.00  0.00    +0.000 A 
ATOM      3  C   UNL     1       7.495   7.083  17.942  0.00  0.00    +0.000 A 
ATOM      4  C   UNL     1       7.903   6.169  18.927  0.00  0.00    +0.000 A 
ATOM      5  N   UNL     1       6.958   5.273  19.206  0.00  0.00    +0.000 NA
ENDROOT
BRANCH   1  10
ATOM      6  C   UNL     1       0.909   2.829  18.596  0.00  0.00    +0.000 C 
ATOM      7  C   UNL     1       2.221   3.558  18.547  0.00  0.00    +0.000 A 
ATOM      8  C   UNL     1       2.632   4.360  19.608  0.00  0.00    +0.000 A 
ATOM      9  C   UNL     1       3.859   5.020  19.555  0.00  0.00    +0.000 A 
ATOM     10  C   UNL     1       4.689   4.898  18.421  0.00  0.00    +0.000 A 
ATOM     11  C   UNL     1       4.303   4.072  17.347  0.00  0.00    +0.000 A 
ATOM     12  C   UNL     1       5.143   3.757  16.136  0.00  0.00    +0.000 C 
ATOM     13  C   UNL     1       3.054   3.419  17.429  0.00  0.00    +0.000 A 
ENDBRANCH   1  10
BRANCH   3  14
ATOM     14  N   UNL     1       8.146   8.135  17.408  0.00  0.00    +0.000 N 
ATOM     15  H   UNL     1       9.133   8.060  17.177  0.00  0.00    +0.000 HD
BRANCH  14  16
ATOM     16  C   UNL     1       7.688   9.502  17.649  0.00  0.00    +0.000 C 
BRANCH  16  17
ATOM     17  C   UNL     1       8.664  10.381  18.354  0.00  0.00    +0.000 A 
ATOM     18  C   UNL     1       9.461  10.123  19.454  0.00  0.00    +0.000 A 
ATOM     19  N   UNL     1      10.250  11.182  19.887  0.00  0.00    +0.000 NA
ATOM     20  C   UNL     1      10.031  12.233  19.119  0.00  0.00    +0.000 A 
ATOM     21  S   UNL     1       8.915  11.994  17.833  0.00  0.00    +0.000 S 
BRANCH  20  22
ATOM     22  C   UNL     1      10.683  13.581  19.301  0.00  0.00    +0.000 C 
ATOM     23  C   UNL     1      10.625  14.051  20.745  0.00  0.00    +0.000 C 
BRANCH  22  24
ATOM     24  O   UNL     1       9.979  14.527  18.489  0.00  0.00    +0.000 OA
ATOM     25  H   UNL     1      10.132  14.248  17.566  0.00  0.00    +0.000 HD
ENDBRANCH  22  24
ENDBRANCH  20  22
ENDBRANCH  16  17
ENDBRANCH  14  16
ENDBRANCH   3  14
TORSDOF 6
ENDMDL
MODEL 8
REMARK VINA RESULT:      -7.2      4.326      9.146
REMARK  Name = 
REMARK  9 active torsions:
REMARK  status: ('A' for Active; 'I' for Inactive)
REMARK    1  A    between atoms: C_1  and  C_2
REMARK    2  A    between atoms: C_5  and  N_6
REMARK    3  A    between atoms: C_8  and  N_9
REMARK    4  A    between atoms: N_9  and  C_10
REMARK    5  A    between atoms: C_10  and  C_11
REMARK    6  A    between atoms: C_14  and  C_15
REMARK    7  A    between atoms: C_15  and  C_16
REMARK    8  A    between atoms: C_15  and  O_17
REMARK    9  A    between atoms: C_21  and  C_22
REMARK                            x       y       z     vdW  Elec       q    Type
REMARK                         _______ _______ _______ _____ _____    ______ ____
ROOT
ATOM      1  N   UNL     1       2.629   7.149  18.767  0.00  0.00    +0.000 N 
ATOM      2  C   UNL     1       2.065   8.368  18.445  0.00  0.00    +0.000 A 
ATOM      3  C   UNL     1       1.403   8.801  19.561  0.00  0.00    +0.000 A 
ATOM      4  C   UNL     1       1.649   7.818  20.534  0.00  0.00    +0.000 A 
ATOM      5  N   UNL     1       2.404   6.825  20.067  0.00  0.00    +0.000 NA
ENDROOT
BRANCH   1  10
ATOM      6  C   UNL     1       5.931   3.951  15.343  0.00  0.00    +0.000 C 
ATOM      7  C   UNL     1       5.063   4.787  16.238  0.00  0.00    +0.000 A 
ATOM      8  C   UNL     1       5.394   6.109  16.522  0.00  0.00    +0.000 A 
ATOM      9  C   UNL     1       4.572   6.879  17.344  0.00  0.00    +0.000 A 
ATOM     10  C   UNL     1       3.407   6.324  17.911  0.00  0.00    +0.000 A 
ATOM     11  C   UNL     1       3.039   4.996  17.616  0.00  0.00    +0.000 A 
ATOM     12  C   UNL     1       1.765   4.320  18.053  0.00  0.00    +0.000 C 
ATOM     13  C   UNL     1       3.894   4.241  16.784  0.00  0.00    +0.000 A 
ENDBRANCH   1  10
BRANCH   3  14
ATOM     14  N   UNL     1       0.678   9.934  19.634  0.00  0.00    +0.000 N 
ATOM     15  H   UNL     1       0.152  10.150  20.477  0.00  0.00    +0.000 HD
BRANCH  14  16
ATOM     16  C   UNL     1       0.164  10.577  18.425  0.00  0.00    +0.000 C 
BRANCH  16  17
ATOM     17  C   UNL     1      -1.238  11.073  18.520  0.00  0.00    +0.000 A 
ATOM     18  C   UNL     1      -1.839  11.866  19.481  0.00  0.00    +0.000 A 
ATOM     19  N   UNL     1      -3.191  12.127  19.287  0.00  0.00    +0.000 NA
ATOM     20  C   UNL     1      -3.600  11.517  18.190  0.00  0.00    +0.000 A 
ATOM     21  S   UNL     1      -2.392  10.647  17.327  0.00  0.00    +0.000 S 
BRANCH  20  22
ATOM     22  C   UNL     1      -5.016  11.542  17.671  0.00  0.00    +0.000 C 
ATOM     23  C   UNL     1      -5.924  10.606  18.452  0.00  0.00    +0.000 C 
BRANCH  22  24
ATOM     24  O   UNL     1      -4.995  11.114  16.305  0.00  0.00    +0.000 OA
ATOM     25  H   UNL     1      -4.705  10.182  16.324  0.00  0.00    +0.000 HD
ENDBRANCH  22  24
ENDBRANCH  20  22
ENDBRANCH  16  17
ENDBRANCH  14  16
ENDBRANCH   3  14
TORSDOF 6
ENDMDL
MODEL 9
REMARK VINA RESULT:      -7.1      3.749      8.420
REMARK  Name = 
REMARK  9 active torsions:
REMARK  status: ('A' for Active; 'I' for Inactive)
REMARK    1  A    between atoms: C_1  and  C_2
REMARK    2  A    between atoms: C_5  and  N_6
REMARK    3  A    between atoms: C_8  and  N_9
REMARK    4  A    between atoms: N_9  and  C_10
REMARK    5  A    between atoms: C_10  and  C_11
REMARK    6  A    between atoms: C_14  and  C_15
REMARK    7  A    between atoms: C_15  and  C_16
REMARK    8  A    between atoms: C_15  and  O_17
REMARK    9  A    between atoms: C_21  and  C_22
REMARK                            x       y       z     vdW  Elec       q    Type
REMARK                         _______ _______ _______ _____ _____    ______ ____
ROOT
ATOM      1  N   UNL     1       3.250   5.422  19.096  0.00  0.00    +0.000 N 
ATOM      2  C   UNL     1       2.616   6.600  19.441  0.00  0.00    +0.000 A 
ATOM      3  C   UNL     1       1.906   6.346  20.583  0.00  0.00    +0.000 A 
ATOM      4  C   UNL     1       2.195   5.007  20.899  0.00  0.00    +0.000 A 
ATOM      5  N   UNL     1       3.020   4.448  20.015  0.00  0.00    +0.000 NA
ENDROOT
BRANCH   1  10
ATOM      6  C   UNL     1       6.798   4.706  14.652  0.00  0.00    +0.000 C 
ATOM      7  C   UNL     1       5.865   4.893  15.814  0.00  0.00    +0.000 A 
ATOM      8  C   UNL     1       5.996   5.986  16.666  0.00  0.00    +0.000 A 
ATOM      9  C   UNL     1       5.114   6.154  17.733  0.00  0.00    +0.000 A 
ATOM     10  C   UNL     1       4.094   5.212  17.973  0.00  0.00    +0.000 A 
ATOM     11  C   UNL     1       3.928   4.112  17.109  0.00  0.00    +0.000 A 
ATOM     12  C   UNL     1       2.811   3.102  17.176  0.00  0.00    +0.000 C 
ATOM     13  C   UNL     1       4.838   3.966  16.039  0.00  0.00    +0.000 A 
ENDBRANCH   1  10
BRANCH   3  14
ATOM     14  N   UNL     1       1.111   7.234  21.208  0.00  0.00    +0.000 N 
ATOM     15  H   UNL     1       0.120   7.037  21.327  0.00  0.00    +0.000 HD
BRANCH  14  16
ATOM     16  C   UNL     1       1.447   8.656  21.234  0.00  0.00    +0.000 C 
BRANCH  16  17
ATOM     17  C   UNL     1       0.763   9.487  20.203  0.00  0.00    +0.000 A 
ATOM     18  C   UNL     1       0.994   9.586  18.842  0.00  0.00    +0.000 A 
ATOM     19  N   UNL     1       0.187  10.487  18.158  0.00  0.00    +0.000 NA
ATOM     20  C   UNL     1      -0.635  11.070  19.010  0.00  0.00    +0.000 A 
ATOM     21  S   UNL     1      -0.512  10.543  20.643  0.00  0.00    +0.000 S 
BRANCH  20  22
ATOM     22  C   UNL     1      -1.642  12.132  18.644  0.00  0.00    +0.000 C 
ATOM     23  C   UNL     1      -3.006  11.539  18.332  0.00  0.00    +0.000 C 
BRANCH  22  24
ATOM     24  O   UNL     1      -1.167  12.810  17.476  0.00  0.00    +0.000 OA
ATOM     25  H   UNL     1      -0.292  13.171  17.718  0.00  0.00    +0.000 HD
ENDBRANCH  22  24
ENDBRANCH  20  22
ENDBRANCH  16  17
ENDBRANCH  14  16
ENDBRANCH   3  14
TORSDOF 6
ENDMDL
