MODEL 1
REMARK VINA RESULT:      -6.2      0.000      0.000
REMARK  Name = 
REMARK  3 active torsions:
REMARK  status: ('A' for Active; 'I' for Inactive)
REMARK    1  A    between atoms: C_2  and  O_3
REMARK    2  A    between atoms: C_2  and  C_4
REMARK    3  A    between atoms: C_6  and  C_7
REMARK                            x       y       z     vdW  Elec       q    Type
REMARK                         _______ _______ _______ _____ _____    ______ ____
ROOT
ATOM      1  C   UNL     1       6.564   4.478  16.152  0.00  0.00    +0.000 A 
ATOM      2  C   UNL     1       5.249   4.357  16.657  0.00  0.00    +0.000 A 
ATOM      3  C   UNL     1       5.382   4.250  18.024  0.00  0.00    +0.000 A 
ATOM      4  N   UNL     1       6.726   4.355  18.264  0.00  0.00    +0.000 N 
ATOM      5  N   UNL     1       7.478   4.478  17.148  0.00  0.00    +0.000 NA
ATOM      6  H   UNL     1       7.190   4.331  19.166  0.00  0.00    +0.000 HD
ENDROOT
BRANCH   3   7
ATOM      7  C   UNL     1       4.381   4.060  19.035  0.00  0.00    +0.000 A 
ATOM      8  C   UNL     1       3.555   5.032  19.567  0.00  0.00    +0.000 A 
ATOM      9  C   UNL     1       2.660   4.519  20.550  0.00  0.00    +0.000 A 
ATOM     10  C   UNL     1       2.829   3.168  20.741  0.00  0.00    +0.000 A 
ATOM     11  S   UNL     1       4.056   2.528  19.735  0.00  0.00    +0.000 S 
ENDBRANCH   3   7
BRANCH   1  13
ATOM     12  O   UNL     1       7.737   5.432  14.314  0.00  0.00    +0.000 OA
ATOM     13  C   UNL     1       6.981   4.578  14.751  0.00  0.00    +0.000 C 
BRANCH  13  14
ATOM     14  O   UNL     1       6.421   3.611  13.976  0.00  0.00    +0.000 OA
ATOM     15  H   UNL     1       7.161   3.023  13.693  0.00  0.00    +0.000 HD
ENDBRANCH  13  14
ENDBRANCH   1  13
TORSDOF 3
ENDMDL
MODEL 2
REMARK VINA RESULT:      -6.2      1.817      2.115
REMARK  Name = 
REMARK  3 active torsions:
REMARK  status: ('A' for Active; 'I' for Inactive)
REMARK    1  A    between atoms: C_2  and  O_3
REMARK    2  A    between atoms: C_2  and  C_4
REMARK    3  A    between atoms: C_6  and  C_7
REMARK                            x       y       z     vdW  Elec       q    Type
REMARK                         _______ _______ _______ _____ _____    ______ ____
ROOT
ATOM      1  C   UNL     1       6.162   5.380  17.590  0.00  0.00    +0.000 A 
ATOM      2  C   UNL     1       4.749   5.348  17.603  0.00  0.00    +0.000 A 
ATOM      3  C   UNL     1       4.405   4.321  18.453  0.00  0.00    +0.000 A 
ATOM      4  N   UNL     1       5.594   3.833  18.927  0.00  0.00    +0.000 N 
ATOM      5  N   UNL     1       6.685   4.442  18.411  0.00  0.00    +0.000 NA
ATOM      6  H   UNL     1       5.724   3.076  19.589  0.00  0.00    +0.000 HD
ENDROOT
BRANCH   3   7
ATOM      7  C   UNL     1       3.111   3.810  18.807  0.00  0.00    +0.000 A 
ATOM      8  C   UNL     1       2.257   4.327  19.763  0.00  0.00    +0.000 A 
ATOM      9  C   UNL     1       1.039   3.595  19.870  0.00  0.00    +0.000 A 
ATOM     10  C   UNL     1       0.998   2.539  18.989  0.00  0.00    +0.000 A 
ATOM     11  S   UNL     1       2.419   2.439  18.042  0.00  0.00    +0.000 S 
ENDBRANCH   3   7
BRANCH   1  13
ATOM     12  O   UNL     1       7.303   7.414  17.115  0.00  0.00    +0.000 OA
ATOM     13  C   UNL     1       7.032   6.263  16.809  0.00  0.00    +0.000 C 
BRANCH  13  14
ATOM     14  O   UNL     1       7.507   5.659  15.686  0.00  0.00    +0.000 OA
ATOM     15  H   UNL     1       8.460   5.474  15.856  0.00  0.00    +0.000 HD
ENDBRANCH  13  14
ENDBRANCH   1  13
TORSDOF 3
ENDMDL
MODEL 3
REMARK VINA RESULT:      -6.1      1.363      1.449
REMARK  Name = 
REMARK  3 active torsions:
REMARK  status: ('A' for Active; 'I' for Inactive)
REMARK    1  A    between atoms: C_2  and  O_3
REMARK    2  A    between atoms: C_2  and  C_4
REMARK    3  A    between atoms: C_6  and  C_7
REMARK                            x       y       z     vdW  Elec       q    Type
REMARK                         _______ _______ _______ _____ _____    ______ ____
ROOT
ATOM      1  C   UNL     1       6.002   4.267  16.657  0.00  0.00    +0.000 A 
ATOM      2  C   UNL     1       4.625   3.972  16.772  0.00  0.00    +0.000 A 
ATOM      3  C   UNL     1       4.403   3.736  18.111  0.00  0.00    +0.000 A 
ATOM      4  N   UNL     1       5.614   3.939  18.717  0.00  0.00    +0.000 N 
ATOM      5  N   UNL     1       6.614   4.248  17.862  0.00  0.00    +0.000 NA
ATOM      6  H   UNL     1       5.822   3.865  19.707  0.00  0.00    +0.000 HD
ENDROOT
BRANCH   3   7
ATOM      7  C   UNL     1       3.200   3.348  18.792  0.00  0.00    +0.000 A 
ATOM      8  C   UNL     1       1.925   3.330  18.261  0.00  0.00    +0.000 A 
ATOM      9  C   UNL     1       0.943   2.886  19.194  0.00  0.00    +0.000 A 
ATOM     10  C   UNL     1       1.500   2.576  20.413  0.00  0.00    +0.000 A 
ATOM     11  S   UNL     1       3.193   2.818  20.424  0.00  0.00    +0.000 S 
ENDBRANCH   3   7
BRANCH   1  13
ATOM     12  O   UNL     1       7.526   5.492  15.300  0.00  0.00    +0.000 OA
ATOM     13  C   UNL     1       6.759   4.551  15.436  0.00  0.00    +0.000 C 
BRANCH  13  14
ATOM     14  O   UNL     1       6.508   3.647  14.450  0.00  0.00    +0.000 OA
ATOM     15  H   UNL     1       5.747   4.006  13.936  0.00  0.00    +0.000 HD
ENDBRANCH  13  14
ENDBRANCH   1  13
TORSDOF 3
ENDMDL
MODEL 4
REMARK VINA RESULT:      -6.1      1.548      1.921
REMARK  Name = 
REMARK  3 active torsions:
REMARK  status: ('A' for Active; 'I' for Inactive)
REMARK    1  A    between atoms: C_2  and  O_3
REMARK    2  A    between atoms: C_2  and  C_4
REMARK    3  A    between atoms: C_6  and  C_7
REMARK                            x       y       z     vdW  Elec       q    Type
REMARK                         _______ _______ _______ _____ _____    ______ ____
ROOT
ATOM      1  C   UNL     1       6.254   4.804  17.215  0.00  0.00    +0.000 A 
ATOM      2  C   UNL     1       4.857   4.608  17.138  0.00  0.00    +0.000 A 
ATOM      3  C   UNL     1       4.495   4.022  18.330  0.00  0.00    +0.000 A 
ATOM      4  N   UNL     1       5.652   3.940  19.057  0.00  0.00    +0.000 N 
ATOM      5  N   UNL     1       6.746   4.392  18.404  0.00  0.00    +0.000 NA
ATOM      6  H   UNL     1       5.761   3.571  19.996  0.00  0.00    +0.000 HD
ENDROOT
BRANCH   3   7
ATOM      7  C   UNL     1       3.211   3.561  18.779  0.00  0.00    +0.000 A 
ATOM      8  C   UNL     1       2.548   3.966  19.923  0.00  0.00    +0.000 A 
ATOM      9  C   UNL     1       1.284   3.327  20.084  0.00  0.00    +0.000 A 
ATOM     10  C   UNL     1       1.019   2.452  19.056  0.00  0.00    +0.000 A 
ATOM     11  S   UNL     1       2.286   2.409  17.908  0.00  0.00    +0.000 S 
ENDBRANCH   3   7
BRANCH   1  13
ATOM     12  O   UNL     1       7.497   4.757  15.186  0.00  0.00    +0.000 OA
ATOM     13  C   UNL     1       7.140   5.357  16.188  0.00  0.00    +0.000 C 
BRANCH  13  14
ATOM     14  O   UNL     1       7.536   6.627  16.477  0.00  0.00    +0.000 OA
ATOM     15  H   UNL     1       8.522   6.615  16.472  0.00  0.00    +0.000 HD
ENDBRANCH  13  14
ENDBRANCH   1  13
TORSDOF 3
ENDMDL
MODEL 5
REMARK VINA RESULT:      -6.1      1.911      2.169
REMARK  Name = 
REMARK  3 active torsions:
REMARK  status: ('A' for Active; 'I' for Inactive)
REMARK    1  A    between atoms: C_2  and  O_3
REMARK    2  A    between atoms: C_2  and  C_4
REMARK    3  A    between atoms: C_6  and  C_7
REMARK                            x       y       z     vdW  Elec       q    Type
REMARK                         _______ _______ _______ _____ _____    ______ ____
ROOT
ATOM      1  C   UNL     1       5.836   4.487  17.167  0.00  0.00    +0.000 A 
ATOM      2  C   UNL     1       5.279   4.365  18.461  0.00  0.00    +0.000 A 
ATOM      3  C   UNL     1       3.975   3.966  18.270  0.00  0.00    +0.000 A 
ATOM      4  N   UNL     1       3.834   3.831  16.915  0.00  0.00    +0.000 N 
ATOM      5  N   UNL     1       4.942   4.155  16.211  0.00  0.00    +0.000 NA
ATOM      6  H   UNL     1       3.004   3.539  16.411  0.00  0.00    +0.000 HD
ENDROOT
BRANCH   3   7
ATOM      7  C   UNL     1       2.931   3.734  19.228  0.00  0.00    +0.000 A 
ATOM      8  C   UNL     1       1.652   4.256  19.192  0.00  0.00    +0.000 A 
ATOM      9  C   UNL     1       0.849   3.828  20.288  0.00  0.00    +0.000 A 
ATOM     10  C   UNL     1       1.540   2.988  21.131  0.00  0.00    +0.000 A 
ATOM     11  S   UNL     1       3.143   2.721  20.596  0.00  0.00    +0.000 S 
ENDBRANCH   3   7
BRANCH   1  13
ATOM     12  O   UNL     1       7.441   5.900  16.121  0.00  0.00    +0.000 OA
ATOM     13  C   UNL     1       7.188   4.924  16.812  0.00  0.00    +0.000 C 
BRANCH  13  14
ATOM     14  O   UNL     1       8.147   4.112  17.334  0.00  0.00    +0.000 OA
ATOM     15  H   UNL     1       8.713   4.686  17.902  0.00  0.00    +0.000 HD
ENDBRANCH  13  14
ENDBRANCH   1  13
TORSDOF 3
ENDMDL
MODEL 6
REMARK VINA RESULT:      -6.1      2.367      2.775
REMARK  Name = 
REMARK  3 active torsions:
REMARK  status: ('A' for Active; 'I' for Inactive)
REMARK    1  A    between atoms: C_2  and  O_3
REMARK    2  A    between atoms: C_2  and  C_4
REMARK    3  A    between atoms: C_6  and  C_7
REMARK                            x       y       z     vdW  Elec       q    Type
REMARK                         _______ _______ _______ _____ _____    ______ ____
ROOT
ATOM      1  C   UNL     1       6.355   5.619  18.357  0.00  0.00    +0.000 A 
ATOM      2  C   UNL     1       4.945   5.696  18.418  0.00  0.00    +0.000 A 
ATOM      3  C   UNL     1       4.519   4.451  18.825  0.00  0.00    +0.000 A 
ATOM      4  N   UNL     1       5.664   3.727  19.024  0.00  0.00    +0.000 N 
ATOM      5  N   UNL     1       6.800   4.400  18.734  0.00  0.00    +0.000 NA
ATOM      6  H   UNL     1       5.732   2.766  19.340  0.00  0.00    +0.000 HD
ENDROOT
BRANCH   3   7
ATOM      7  C   UNL     1       3.188   3.947  19.011  0.00  0.00    +0.000 A 
ATOM      8  C   UNL     1       2.266   4.386  19.943  0.00  0.00    +0.000 A 
ATOM      9  C   UNL     1       1.028   3.686  19.868  0.00  0.00    +0.000 A 
ATOM     10  C   UNL     1       1.039   2.732  18.877  0.00  0.00    +0.000 A 
ATOM     11  S   UNL     1       2.534   2.688  18.047  0.00  0.00    +0.000 S 
ENDBRANCH   3   7
BRANCH   1  13
ATOM     12  O   UNL     1       7.233   7.259  16.873  0.00  0.00    +0.000 OA
ATOM     13  C   UNL     1       7.293   6.663  17.937  0.00  0.00    +0.000 C 
BRANCH  13  14
ATOM     14  O   UNL     1       8.256   6.896  18.869  0.00  0.00    +0.000 OA
ATOM     15  H   UNL     1       7.847   7.486  19.545  0.00  0.00    +0.000 HD
ENDBRANCH  13  14
ENDBRANCH   1  13
TORSDOF 3
ENDMDL
MODEL 7
REMARK VINA RESULT:      -6.1      1.827      2.228
REMARK  Name = 
REMARK  3 active torsions:
REMARK  status: ('A' for Active; 'I' for Inactive)
REMARK    1  A    between atoms: C_2  and  O_3
REMARK    2  A    between atoms: C_2  and  C_4
REMARK    3  A    between atoms: C_6  and  C_7
REMARK                            x       y       z     vdW  Elec       q    Type
REMARK                         _______ _______ _______ _____ _____    ______ ____
ROOT
ATOM      1  C   UNL     1       6.128   5.091  17.375  0.00  0.00    +0.000 A 
ATOM      2  C   UNL     1       4.719   4.978  17.349  0.00  0.00    +0.000 A 
ATOM      3  C   UNL     1       4.393   4.125  18.380  0.00  0.00    +0.000 A 
ATOM      4  N   UNL     1       5.583   3.815  18.980  0.00  0.00    +0.000 N 
ATOM      5  N   UNL     1       6.663   4.372  18.386  0.00  0.00    +0.000 NA
ATOM      6  H   UNL     1       5.724   3.216  19.787  0.00  0.00    +0.000 HD
ENDROOT
BRANCH   3   7
ATOM      7  C   UNL     1       3.113   3.619  18.788  0.00  0.00    +0.000 A 
ATOM      8  C   UNL     1       2.210   2.934  17.996  0.00  0.00    +0.000 A 
ATOM      9  C   UNL     1       1.031   2.558  18.702  0.00  0.00    +0.000 A 
ATOM     10  C   UNL     1       1.068   2.966  20.015  0.00  0.00    +0.000 A 
ATOM     11  S   UNL     1       2.518   3.794  20.387  0.00  0.00    +0.000 S 
ENDBRANCH   3   7
BRANCH   1  13
ATOM     12  O   UNL     1       7.417   5.419  15.401  0.00  0.00    +0.000 OA
ATOM     13  C   UNL     1       6.984   5.849  16.460  0.00  0.00    +0.000 C 
BRANCH  13  14
ATOM     14  O   UNL     1       7.256   7.099  16.923  0.00  0.00    +0.000 OA
ATOM     15  H   UNL     1       8.205   7.269  16.714  0.00  0.00    +0.000 HD
ENDBRANCH  13  14
ENDBRANCH   1  13
TORSDOF 3
ENDMDL
MODEL 8
REMARK VINA RESULT:      -6.1      4.061      5.816
REMARK  Name = 
REMARK  3 active torsions:
REMARK  status: ('A' for Active; 'I' for Inactive)
REMARK    1  A    between atoms: C_2  and  O_3
REMARK    2  A    between atoms: C_2  and  C_4
REMARK    3  A    between atoms: C_6  and  C_7
REMARK                            x       y       z     vdW  Elec       q    Type
REMARK                         _______ _______ _______ _____ _____    ______ ____
ROOT
ATOM      1  C   UNL     1       2.953   3.059  20.196  0.00  0.00    +0.000 A 
ATOM      2  C   UNL     1       3.151   3.844  19.038  0.00  0.00    +0.000 A 
ATOM      3  C   UNL     1       4.438   3.581  18.624  0.00  0.00    +0.000 A 
ATOM      4  N   UNL     1       4.915   2.646  19.503  0.00  0.00    +0.000 N 
ATOM      5  N   UNL     1       4.044   2.316  20.483  0.00  0.00    +0.000 NA
ATOM      6  H   UNL     1       5.831   2.210  19.496  0.00  0.00    +0.000 HD
ENDROOT
BRANCH   3   7
ATOM      7  C   UNL     1       5.186   4.132  17.529  0.00  0.00    +0.000 A 
ATOM      8  C   UNL     1       4.779   4.205  16.210  0.00  0.00    +0.000 A 
ATOM      9  C   UNL     1       5.749   4.819  15.366  0.00  0.00    +0.000 A 
ATOM     10  C   UNL     1       6.870   5.198  16.066  0.00  0.00    +0.000 A 
ATOM     11  S   UNL     1       6.746   4.817  17.729  0.00  0.00    +0.000 S 
ENDBRANCH   3   7
BRANCH   1  13
ATOM     12  O   UNL     1       1.781   2.778  22.249  0.00  0.00    +0.000 OA
ATOM     13  C   UNL     1       1.763   3.004  21.049  0.00  0.00    +0.000 C 
BRANCH  13  14
ATOM     14  O   UNL     1       0.617   3.228  20.350  0.00  0.00    +0.000 OA
ATOM     15  H   UNL     1       0.827   3.937  19.697  0.00  0.00    +0.000 HD
ENDBRANCH  13  14
ENDBRANCH   1  13
TORSDOF 3
ENDMDL
MODEL 9
REMARK VINA RESULT:      -6.1      2.416      2.851
REMARK  Name = 
REMARK  3 active torsions:
REMARK  status: ('A' for Active; 'I' for Inactive)
REMARK    1  A    between atoms: C_2  and  O_3
REMARK    2  A    between atoms: C_2  and  C_4
REMARK    3  A    between atoms: C_6  and  C_7
REMARK                            x       y       z     vdW  Elec       q    Type
REMARK                         _______ _______ _______ _____ _____    ______ ____
ROOT
ATOM      1  C   UNL     1       6.581   5.761  18.282  0.00  0.00    +0.000 A 
ATOM      2  C   UNL     1       5.173   5.867  18.328  0.00  0.00    +0.000 A 
ATOM      3  C   UNL     1       4.715   4.615  18.674  0.00  0.00    +0.000 A 
ATOM      4  N   UNL     1       5.840   3.857  18.855  0.00  0.00    +0.000 N 
ATOM      5  N   UNL     1       6.995   4.517  18.610  0.00  0.00    +0.000 NA
ATOM      6  H   UNL     1       5.884   2.881  19.129  0.00  0.00    +0.000 HD
ENDROOT
BRANCH   3   7
ATOM      7  C   UNL     1       3.370   4.133  18.820  0.00  0.00    +0.000 A 
ATOM      8  C   UNL     1       2.505   3.788  17.799  0.00  0.00    +0.000 A 
ATOM      9  C   UNL     1       1.241   3.335  18.274  0.00  0.00    +0.000 A 
ATOM     10  C   UNL     1       1.177   3.346  19.648  0.00  0.00    +0.000 A 
ATOM     11  S   UNL     1       2.636   3.896  20.353  0.00  0.00    +0.000 S 
ENDBRANCH   3   7
BRANCH   1  13
ATOM     12  O   UNL     1       7.582   7.368  16.839  0.00  0.00    +0.000 OA
ATOM     13  C   UNL     1       7.547   6.802  17.921  0.00  0.00    +0.000 C 
BRANCH  13  14
ATOM     14  O   UNL     1       8.419   7.069  18.931  0.00  0.00    +0.000 OA
ATOM     15  H   UNL     1       8.852   6.212  19.153  0.00  0.00    +0.000 HD
ENDBRANCH  13  14
ENDBRANCH   1  13
TORSDOF 3
ENDMDL
