MODEL 1
REMARK VINA RESULT:      -6.4      0.000      0.000
REMARK  Name = 
REMARK  12 active torsions:
REMARK  status: ('A' for Active; 'I' for Inactive)
REMARK    1  A    between atoms: C_1  and  C_2
REMARK    2  A    between atoms: C_2  and  C_3
REMARK    3  A    between atoms: C_3  and  C_4
REMARK    4  A    between atoms: C_4  and  C_5
REMARK    5  A    between atoms: C_5  and  C_6
REMARK    6  A    between atoms: C_6  and  C_7
REMARK    7  A    between atoms: C_8  and  O_9
REMARK    8  A    between atoms: C_12  and  C_13
REMARK    9  A    between atoms: C_13  and  CA_14
REMARK   10  A    between atoms: CA_14  and  N_15
REMARK   11  A    between atoms: CA_14  and  C_16
REMARK   12  A    between atoms: C_16  and  OXT_18
REMARK                            x       y       z     vdW  Elec       q    Type
REMARK                         _______ _______ _______ _____ _____    ______ ____
ROOT
ATOM      1  C   UNL     1       3.983   3.609  18.329  0.00  0.00    +0.000 A 
ATOM      2  C   UNL     1       3.933   2.309  18.873  0.00  0.00    +0.000 A 
ATOM      3  N   UNL     1       4.888   2.060  19.758  0.00  0.00    +0.000 NA
ATOM      4  O   UNL     1       5.629   3.222  19.802  0.00  0.00    +0.000 OA
ATOM      5  C   UNL     1       5.076   4.160  18.981  0.00  0.00    +0.000 A 
ENDROOT
BRANCH   2   6
ATOM      6  O   UNL     1       3.073   1.311  18.628  0.00  0.00    +0.000 OA
ATOM      7  H   UNL     1       2.740   1.373  17.721  0.00  0.00    +0.000 HD
ENDBRANCH   2   6
BRANCH   1   8
ATOM      8  C   UNL     1       3.080   4.182  17.288  0.00  0.00    +0.000 C 
BRANCH   8   9
ATOM      9  C   UNL     1       1.789   4.792  17.843  0.00  0.00    +0.000 C 
BRANCH   9  10
ATOM     10  C   UNL     1       1.976   5.737  19.035  0.00  0.00    +0.000 C 
BRANCH  10  11
ATOM     11  C   UNL     1       1.668   5.134  20.409  0.00  0.00    +0.000 C 
BRANCH  11  13
ATOM     12  C   UNL     1       1.379   2.849  21.413  0.00  0.00    +0.000 C 
ATOM     13  C   UNL     1       0.889   3.821  20.351  0.00  0.00    +0.000 C 
ENDBRANCH  11  13
ENDBRANCH  10  11
ENDBRANCH   9  10
ENDBRANCH   8   9
ENDBRANCH   1   8
BRANCH   5  14
ATOM     14  C   UNL     1       5.781   5.475  19.004  0.00  0.00    +0.000 C 
BRANCH  14  15
ATOM     15  CA  UNL     1       7.150   5.413  18.294  0.00  0.00    +0.000 C 
BRANCH  15  16
ATOM     16  N   UNL     1       7.497   4.058  17.750  0.00  0.00    +0.000 NA
ATOM     17  H1  UNL     1       7.027   3.948  16.844  0.00  0.00    +0.000 HD
ATOM     18  H2  UNL     1       7.016   3.363  18.338  0.00  0.00    +0.000 HD
ENDBRANCH  15  16
BRANCH  15  19
ATOM     19  C   UNL     1       7.209   6.397  17.118  0.00  0.00    +0.000 C 
ATOM     20  O   UNL     1       7.097   7.611  17.195  0.00  0.00    +0.000 OA
BRANCH  19  21
ATOM     21  OXT UNL     1       7.439   5.741  15.947  0.00  0.00    +0.000 OA
ATOM     22  HXT UNL     1       7.768   4.838  16.201  0.00  0.00    +0.000 HD
ENDBRANCH  19  21
ENDBRANCH  15  19
ENDBRANCH  14  15
ENDBRANCH   5  14
TORSDOF 11
ENDMDL
MODEL 2
REMARK VINA RESULT:      -6.3      2.438      3.148
REMARK  Name = 
REMARK  12 active torsions:
REMARK  status: ('A' for Active; 'I' for Inactive)
REMARK    1  A    between atoms: C_1  and  C_2
REMARK    2  A    between atoms: C_2  and  C_3
REMARK    3  A    between atoms: C_3  and  C_4
REMARK    4  A    between atoms: C_4  and  C_5
REMARK    5  A    between atoms: C_5  and  C_6
REMARK    6  A    between atoms: C_6  and  C_7
REMARK    7  A    between atoms: C_8  and  O_9
REMARK    8  A    between atoms: C_12  and  C_13
REMARK    9  A    between atoms: C_13  and  CA_14
REMARK   10  A    between atoms: CA_14  and  N_15
REMARK   11  A    between atoms: CA_14  and  C_16
REMARK   12  A    between atoms: C_16  and  OXT_18
REMARK                            x       y       z     vdW  Elec       q    Type
REMARK                         _______ _______ _______ _____ _____    ______ ____
ROOT
ATOM      1  C   UNL     1       4.178   4.502  18.516  0.00  0.00    +0.000 A 
ATOM      2  C   UNL     1       3.587   5.657  19.071  0.00  0.00    +0.000 A 
ATOM      3  N   UNL     1       3.608   6.710  18.265  0.00  0.00    +0.000 NA
ATOM      4  O   UNL     1       4.255   6.265  17.131  0.00  0.00    +0.000 OA
ATOM      5  C   UNL     1       4.566   4.943  17.260  0.00  0.00    +0.000 A 
ENDROOT
BRANCH   2   6
ATOM      6  O   UNL     1       3.018   5.835  20.270  0.00  0.00    +0.000 OA
ATOM      7  H   UNL     1       3.648   5.617  20.973  0.00  0.00    +0.000 HD
ENDBRANCH   2   6
BRANCH   1   8
ATOM      8  C   UNL     1       4.348   3.175  19.177  0.00  0.00    +0.000 C 
BRANCH   8   9
ATOM      9  C   UNL     1       3.563   2.038  18.512  0.00  0.00    +0.000 C 
BRANCH   9  10
ATOM     10  C   UNL     1       2.178   2.426  17.984  0.00  0.00    +0.000 C 
BRANCH  10  11
ATOM     11  C   UNL     1       1.012   2.172  18.944  0.00  0.00    +0.000 C 
BRANCH  11  13
ATOM     12  C   UNL     1       1.326   2.871  21.337  0.00  0.00    +0.000 C 
ATOM     13  C   UNL     1       0.799   3.283  19.970  0.00  0.00    +0.000 C 
ENDBRANCH  11  13
ENDBRANCH  10  11
ENDBRANCH   9  10
ENDBRANCH   8   9
ENDBRANCH   1   8
BRANCH   5  14
ATOM     14  C   UNL     1       5.223   4.357  16.055  0.00  0.00    +0.000 C 
BRANCH  14  15
ATOM     15  CA  UNL     1       6.659   4.887  15.862  0.00  0.00    +0.000 C 
BRANCH  15  16
ATOM     16  N   UNL     1       7.689   4.188  16.702  0.00  0.00    +0.000 NA
ATOM     17  H1  UNL     1       7.242   3.903  17.582  0.00  0.00    +0.000 HD
ATOM     18  H2  UNL     1       8.361   4.902  17.013  0.00  0.00    +0.000 HD
ENDBRANCH  15  16
BRANCH  15  19
ATOM     19  C   UNL     1       7.108   4.752  14.400  0.00  0.00    +0.000 C 
ATOM     20  O   UNL     1       7.882   5.497  13.818  0.00  0.00    +0.000 OA
BRANCH  19  21
ATOM     21  OXT UNL     1       6.548   3.655  13.820  0.00  0.00    +0.000 OA
ATOM     22  HXT UNL     1       7.100   3.459  13.017  0.00  0.00    +0.000 HD
ENDBRANCH  19  21
ENDBRANCH  15  19
ENDBRANCH  14  15
ENDBRANCH   5  14
TORSDOF 11
ENDMDL
MODEL 3
REMARK VINA RESULT:      -6.2      2.652      3.738
REMARK  Name = 
REMARK  12 active torsions:
REMARK  status: ('A' for Active; 'I' for Inactive)
REMARK    1  A    between atoms: C_1  and  C_2
REMARK    2  A    between atoms: C_2  and  C_3
REMARK    3  A    between atoms: C_3  and  C_4
REMARK    4  A    between atoms: C_4  and  C_5
REMARK    5  A    between atoms: C_5  and  C_6
REMARK    6  A    between atoms: C_6  and  C_7
REMARK    7  A    between atoms: C_8  and  O_9
REMARK    8  A    between atoms: C_12  and  C_13
REMARK    9  A    between atoms: C_13  and  CA_14
REMARK   10  A    between atoms: CA_14  and  N_15
REMARK   11  A    between atoms: CA_14  and  C_16
REMARK   12  A    between atoms: C_16  and  OXT_18
REMARK                            x       y       z     vdW  Elec       q    Type
REMARK                         _______ _______ _______ _____ _____    ______ ____
ROOT
ATOM      1  C   UNL     1       5.796   4.622  17.684  0.00  0.00    +0.000 A 
ATOM      2  C   UNL     1       6.836   4.904  18.593  0.00  0.00    +0.000 A 
ATOM      3  N   UNL     1       8.047   4.639  18.122  0.00  0.00    +0.000 NA
ATOM      4  O   UNL     1       7.824   4.138  16.857  0.00  0.00    +0.000 OA
ATOM      5  C   UNL     1       6.488   4.158  16.576  0.00  0.00    +0.000 A 
ENDROOT
BRANCH   2   6
ATOM      6  O   UNL     1       6.775   5.393  19.839  0.00  0.00    +0.000 OA
ATOM      7  H   UNL     1       7.387   6.138  19.934  0.00  0.00    +0.000 HD
ENDBRANCH   2   6
BRANCH   1   8
ATOM      8  C   UNL     1       4.330   4.773  17.922  0.00  0.00    +0.000 C 
BRANCH   8   9
ATOM      9  C   UNL     1       3.593   3.450  18.161  0.00  0.00    +0.000 C 
BRANCH   9  10
ATOM     10  C   UNL     1       2.121   3.440  17.738  0.00  0.00    +0.000 C 
BRANCH  10  11
ATOM     11  C   UNL     1       1.134   2.937  18.796  0.00  0.00    +0.000 C 
BRANCH  11  13
ATOM     12  C   UNL     1       1.370   2.906  21.297  0.00  0.00    +0.000 C 
ATOM     13  C   UNL     1       1.113   3.773  20.074  0.00  0.00    +0.000 C 
ENDBRANCH  11  13
ENDBRANCH  10  11
ENDBRANCH   9  10
ENDBRANCH   8   9
ENDBRANCH   1   8
BRANCH   5  14
ATOM     14  C   UNL     1       6.154   3.683  15.202  0.00  0.00    +0.000 C 
BRANCH  14  15
ATOM     15  CA  UNL     1       6.486   4.737  14.125  0.00  0.00    +0.000 C 
BRANCH  15  16
ATOM     16  N   UNL     1       7.762   5.487  14.375  0.00  0.00    +0.000 NA
ATOM     17  H1  UNL     1       7.558   6.255  15.027  0.00  0.00    +0.000 HD
ATOM     18  H2  UNL     1       7.995   5.986  13.506  0.00  0.00    +0.000 HD
ENDBRANCH  15  16
BRANCH  15  19
ATOM     19  C   UNL     1       6.609   4.092  12.738  0.00  0.00    +0.000 C 
ATOM     20  O   UNL     1       5.925   3.173  12.314  0.00  0.00    +0.000 OA
BRANCH  19  21
ATOM     21  OXT UNL     1       7.578   4.704  12.003  0.00  0.00    +0.000 OA
ATOM     22  HXT UNL     1       7.338   4.548  11.051  0.00  0.00    +0.000 HD
ENDBRANCH  19  21
ENDBRANCH  15  19
ENDBRANCH  14  15
ENDBRANCH   5  14
TORSDOF 11
ENDMDL
MODEL 4
REMARK VINA RESULT:      -6.2      2.464      3.406
REMARK  Name = 
REMARK  12 active torsions:
REMARK  status: ('A' for Active; 'I' for Inactive)
REMARK    1  A    between atoms: C_1  and  C_2
REMARK    2  A    between atoms: C_2  and  C_3
REMARK    3  A    between atoms: C_3  and  C_4
REMARK    4  A    between atoms: C_4  and  C_5
REMARK    5  A    between atoms: C_5  and  C_6
REMARK    6  A    between atoms: C_6  and  C_7
REMARK    7  A    between atoms: C_8  and  O_9
REMARK    8  A    between atoms: C_12  and  C_13
REMARK    9  A    between atoms: C_13  and  CA_14
REMARK   10  A    between atoms: CA_14  and  N_15
REMARK   11  A    between atoms: CA_14  and  C_16
REMARK   12  A    between atoms: C_16  and  OXT_18
REMARK                            x       y       z     vdW  Elec       q    Type
REMARK                         _______ _______ _______ _____ _____    ______ ____
ROOT
ATOM      1  C   UNL     1       5.925   4.937  18.715  0.00  0.00    +0.000 A 
ATOM      2  C   UNL     1       7.244   5.149  19.165  0.00  0.00    +0.000 A 
ATOM      3  N   UNL     1       8.172   4.859  18.264  0.00  0.00    +0.000 NA
ATOM      4  O   UNL     1       7.463   4.411  17.169  0.00  0.00    +0.000 OA
ATOM      5  C   UNL     1       6.123   4.488  17.418  0.00  0.00    +0.000 A 
ENDROOT
BRANCH   2   6
ATOM      6  O   UNL     1       7.683   5.596  20.350  0.00  0.00    +0.000 OA
ATOM      7  H   UNL     1       8.612   5.354  20.473  0.00  0.00    +0.000 HD
ENDBRANCH   2   6
BRANCH   1   8
ATOM      8  C   UNL     1       4.667   5.130  19.496  0.00  0.00    +0.000 C 
BRANCH   8   9
ATOM      9  C   UNL     1       3.633   6.028  18.807  0.00  0.00    +0.000 C 
BRANCH   9  10
ATOM     10  C   UNL     1       2.253   6.059  19.473  0.00  0.00    +0.000 C 
BRANCH  10  11
ATOM     11  C   UNL     1       2.058   5.077  20.632  0.00  0.00    +0.000 C 
BRANCH  11  13
ATOM     12  C   UNL     1       1.233   3.387  18.965  0.00  0.00    +0.000 C 
ATOM     13  C   UNL     1       1.031   3.981  20.351  0.00  0.00    +0.000 C 
ENDBRANCH  11  13
ENDBRANCH  10  11
ENDBRANCH   9  10
ENDBRANCH   8   9
ENDBRANCH   1   8
BRANCH   5  14
ATOM     14  C   UNL     1       5.271   4.074  16.266  0.00  0.00    +0.000 C 
BRANCH  14  15
ATOM     15  CA  UNL     1       5.406   5.036  15.067  0.00  0.00    +0.000 C 
BRANCH  15  16
ATOM     16  N   UNL     1       5.694   6.458  15.452  0.00  0.00    +0.000 NA
ATOM     17  H1  UNL     1       6.005   6.959  14.612  0.00  0.00    +0.000 HD
ATOM     18  H2  UNL     1       6.542   6.448  16.034  0.00  0.00    +0.000 HD
ENDBRANCH  15  16
BRANCH  15  19
ATOM     19  C   UNL     1       6.531   4.590  14.123  0.00  0.00    +0.000 C 
ATOM     20  O   UNL     1       6.447   3.716  13.273  0.00  0.00    +0.000 OA
BRANCH  19  21
ATOM     21  OXT UNL     1       7.658   5.325  14.331  0.00  0.00    +0.000 OA
ATOM     22  HXT UNL     1       8.236   4.777  14.925  0.00  0.00    +0.000 HD
ENDBRANCH  19  21
ENDBRANCH  15  19
ENDBRANCH  14  15
ENDBRANCH   5  14
TORSDOF 11
ENDMDL
MODEL 5
REMARK VINA RESULT:      -6.2      3.635      6.538
REMARK  Name = 
REMARK  12 active torsions:
REMARK  status: ('A' for Active; 'I' for Inactive)
REMARK    1  A    between atoms: C_1  and  C_2
REMARK    2  A    between atoms: C_2  and  C_3
REMARK    3  A    between atoms: C_3  and  C_4
REMARK    4  A    between atoms: C_4  and  C_5
REMARK    5  A    between atoms: C_5  and  C_6
REMARK    6  A    between atoms: C_6  and  C_7
REMARK    7  A    between atoms: C_8  and  O_9
REMARK    8  A    between atoms: C_12  and  C_13
REMARK    9  A    between atoms: C_13  and  CA_14
REMARK   10  A    between atoms: CA_14  and  N_15
REMARK   11  A    between atoms: CA_14  and  C_16
REMARK   12  A    between atoms: C_16  and  OXT_18
REMARK                            x       y       z     vdW  Elec       q    Type
REMARK                         _______ _______ _______ _____ _____    ______ ____
ROOT
ATOM      1  C   UNL     1       5.337   4.436  16.700  0.00  0.00    +0.000 A 
ATOM      2  C   UNL     1       6.402   4.579  17.614  0.00  0.00    +0.000 A 
ATOM      3  N   UNL     1       6.060   4.348  18.875  0.00  0.00    +0.000 NA
ATOM      4  O   UNL     1       4.712   4.061  18.821  0.00  0.00    +0.000 OA
ATOM      5  C   UNL     1       4.283   4.077  17.526  0.00  0.00    +0.000 A 
ENDROOT
BRANCH   2   6
ATOM      6  O   UNL     1       7.682   4.905  17.394  0.00  0.00    +0.000 OA
ATOM      7  H   UNL     1       8.249   4.130  17.516  0.00  0.00    +0.000 HD
ENDBRANCH   2   6
BRANCH   1   8
ATOM      8  C   UNL     1       5.384   4.663  15.225  0.00  0.00    +0.000 C 
BRANCH   8   9
ATOM      9  C   UNL     1       6.384   3.768  14.484  0.00  0.00    +0.000 C 
BRANCH   9  10
ATOM     10  C   UNL     1       6.518   4.046  12.983  0.00  0.00    +0.000 C 
BRANCH  10  11
ATOM     11  C   UNL     1       5.835   3.032  12.061  0.00  0.00    +0.000 C 
BRANCH  11  13
ATOM     12  C   UNL     1       6.180   0.742  11.087  0.00  0.00    +0.000 C 
ATOM     13  C   UNL     1       6.805   2.109  11.327  0.00  0.00    +0.000 C 
ENDBRANCH  11  13
ENDBRANCH  10  11
ENDBRANCH   9  10
ENDBRANCH   8   9
ENDBRANCH   1   8
BRANCH   5  14
ATOM     14  C   UNL     1       2.843   3.723  17.363  0.00  0.00    +0.000 C 
BRANCH  14  15
ATOM     15  CA  UNL     1       2.554   2.262  17.767  0.00  0.00    +0.000 C 
BRANCH  15  16
ATOM     16  N   UNL     1       3.773   1.489  18.180  0.00  0.00    +0.000 NA
ATOM     17  H1  UNL     1       3.567   1.022  19.072  0.00  0.00    +0.000 HD
ATOM     18  H2  UNL     1       4.491   2.175  18.447  0.00  0.00    +0.000 HD
ENDBRANCH  15  16
BRANCH  15  19
ATOM     19  C   UNL     1       1.563   2.197  18.938  0.00  0.00    +0.000 C 
ATOM     20  O   UNL     1       1.851   2.271  20.123  0.00  0.00    +0.000 OA
BRANCH  19  21
ATOM     21  OXT UNL     1       0.285   2.074  18.485  0.00  0.00    +0.000 OA
ATOM     22  HXT UNL     1      -0.284   1.994  19.295  0.00  0.00    +0.000 HD
ENDBRANCH  19  21
ENDBRANCH  15  19
ENDBRANCH  14  15
ENDBRANCH   5  14
TORSDOF 11
ENDMDL
MODEL 6
REMARK VINA RESULT:      -6.2      1.739      2.196
REMARK  Name = 
REMARK  12 active torsions:
REMARK  status: ('A' for Active; 'I' for Inactive)
REMARK    1  A    between atoms: C_1  and  C_2
REMARK    2  A    between atoms: C_2  and  C_3
REMARK    3  A    between atoms: C_3  and  C_4
REMARK    4  A    between atoms: C_4  and  C_5
REMARK    5  A    between atoms: C_5  and  C_6
REMARK    6  A    between atoms: C_6  and  C_7
REMARK    7  A    between atoms: C_8  and  O_9
REMARK    8  A    between atoms: C_12  and  C_13
REMARK    9  A    between atoms: C_13  and  CA_14
REMARK   10  A    between atoms: CA_14  and  N_15
REMARK   11  A    between atoms: CA_14  and  C_16
REMARK   12  A    between atoms: C_16  and  OXT_18
REMARK                            x       y       z     vdW  Elec       q    Type
REMARK                         _______ _______ _______ _____ _____    ______ ____
ROOT
ATOM      1  C   UNL     1       4.520   3.770  18.000  0.00  0.00    +0.000 A 
ATOM      2  C   UNL     1       5.054   3.468  19.270  0.00  0.00    +0.000 A 
ATOM      3  N   UNL     1       5.866   4.402  19.747  0.00  0.00    +0.000 NA
ATOM      4  O   UNL     1       5.905   5.363  18.758  0.00  0.00    +0.000 OA
ATOM      5  C   UNL     1       5.079   5.010  17.731  0.00  0.00    +0.000 A 
ENDROOT
BRANCH   2   6
ATOM      6  O   UNL     1       4.858   2.395  20.048  0.00  0.00    +0.000 OA
ATOM      7  H   UNL     1       5.463   1.684  19.791  0.00  0.00    +0.000 HD
ENDBRANCH   2   6
BRANCH   1   8
ATOM      8  C   UNL     1       3.611   2.915  17.182  0.00  0.00    +0.000 C 
BRANCH   8   9
ATOM      9  C   UNL     1       2.202   2.759  17.764  0.00  0.00    +0.000 C 
BRANCH   9  10
ATOM     10  C   UNL     1       1.514   4.069  18.162  0.00  0.00    +0.000 C 
BRANCH  10  11
ATOM     11  C   UNL     1       1.349   4.296  19.668  0.00  0.00    +0.000 C 
BRANCH  11  13
ATOM     12  C   UNL     1       1.891   2.952  21.720  0.00  0.00    +0.000 C 
ATOM     13  C   UNL     1       1.045   3.025  20.458  0.00  0.00    +0.000 C 
ENDBRANCH  11  13
ENDBRANCH  10  11
ENDBRANCH   9  10
ENDBRANCH   8   9
ENDBRANCH   1   8
BRANCH   5  14
ATOM     14  C   UNL     1       5.014   6.020  16.635  0.00  0.00    +0.000 C 
BRANCH  14  15
ATOM     15  CA  UNL     1       6.343   6.119  15.857  0.00  0.00    +0.000 C 
BRANCH  15  16
ATOM     16  N   UNL     1       7.416   6.886  16.573  0.00  0.00    +0.000 NA
ATOM     17  H1  UNL     1       8.283   6.805  16.029  0.00  0.00    +0.000 HD
ATOM     18  H2  UNL     1       7.640   6.365  17.431  0.00  0.00    +0.000 HD
ENDBRANCH  15  16
BRANCH  15  19
ATOM     19  C   UNL     1       6.913   4.726  15.554  0.00  0.00    +0.000 C 
ATOM     20  O   UNL     1       6.562   3.993  14.642  0.00  0.00    +0.000 OA
BRANCH  19  21
ATOM     21  OXT UNL     1       7.905   4.408  16.430  0.00  0.00    +0.000 OA
ATOM     22  HXT UNL     1       8.638   5.057  16.261  0.00  0.00    +0.000 HD
ENDBRANCH  19  21
ENDBRANCH  15  19
ENDBRANCH  14  15
ENDBRANCH   5  14
TORSDOF 11
ENDMDL
MODEL 7
REMARK VINA RESULT:      -6.1      2.354      2.852
REMARK  Name = 
REMARK  12 active torsions:
REMARK  status: ('A' for Active; 'I' for Inactive)
REMARK    1  A    between atoms: C_1  and  C_2
REMARK    2  A    between atoms: C_2  and  C_3
REMARK    3  A    between atoms: C_3  and  C_4
REMARK    4  A    between atoms: C_4  and  C_5
REMARK    5  A    between atoms: C_5  and  C_6
REMARK    6  A    between atoms: C_6  and  C_7
REMARK    7  A    between atoms: C_8  and  O_9
REMARK    8  A    between atoms: C_12  and  C_13
REMARK    9  A    between atoms: C_13  and  CA_14
REMARK   10  A    between atoms: CA_14  and  N_15
REMARK   11  A    between atoms: CA_14  and  C_16
REMARK   12  A    between atoms: C_16  and  OXT_18
REMARK                            x       y       z     vdW  Elec       q    Type
REMARK                         _______ _______ _______ _____ _____    ______ ____
ROOT
ATOM      1  C   UNL     1       3.361   5.094  18.033  0.00  0.00    +0.000 A 
ATOM      2  C   UNL     1       3.795   5.576  19.285  0.00  0.00    +0.000 A 
ATOM      3  N   UNL     1       5.109   5.520  19.456  0.00  0.00    +0.000 NA
ATOM      4  O   UNL     1       5.585   4.958  18.290  0.00  0.00    +0.000 OA
ATOM      5  C   UNL     1       4.554   4.735  17.424  0.00  0.00    +0.000 A 
ENDROOT
BRANCH   2   6
ATOM      6  O   UNL     1       3.083   6.076  20.304  0.00  0.00    +0.000 OA
ATOM      7  H   UNL     1       3.254   7.024  20.396  0.00  0.00    +0.000 HD
ENDBRANCH   2   6
BRANCH   1   8
ATOM      8  C   UNL     1       1.953   4.987  17.551  0.00  0.00    +0.000 C 
BRANCH   8   9
ATOM      9  C   UNL     1       1.154   3.847  18.192  0.00  0.00    +0.000 C 
BRANCH   9  10
ATOM     10  C   UNL     1       1.873   2.495  18.238  0.00  0.00    +0.000 C 
BRANCH  10  11
ATOM     11  C   UNL     1       2.227   1.985  19.638  0.00  0.00    +0.000 C 
BRANCH  11  13
ATOM     12  C   UNL     1       2.184   3.211  21.831  0.00  0.00    +0.000 C 
ATOM     13  C   UNL     1       1.344   2.551  20.748  0.00  0.00    +0.000 C 
ENDBRANCH  11  13
ENDBRANCH  10  11
ENDBRANCH   9  10
ENDBRANCH   8   9
ENDBRANCH   1   8
BRANCH   5  14
ATOM     14  C   UNL     1       4.981   4.176  16.108  0.00  0.00    +0.000 C 
BRANCH  14  15
ATOM     15  CA  UNL     1       5.683   5.231  15.229  0.00  0.00    +0.000 C 
BRANCH  15  16
ATOM     16  N   UNL     1       5.462   6.647  15.676  0.00  0.00    +0.000 NA
ATOM     17  H1  UNL     1       4.525   6.935  15.371  0.00  0.00    +0.000 HD
ATOM     18  H2  UNL     1       6.077   7.244  15.107  0.00  0.00    +0.000 HD
ENDBRANCH  15  16
BRANCH  15  19
ATOM     19  C   UNL     1       7.201   5.003  15.196  0.00  0.00    +0.000 C 
ATOM     20  O   UNL     1       7.865   4.484  16.080  0.00  0.00    +0.000 OA
BRANCH  19  21
ATOM     21  OXT UNL     1       7.731   5.433  14.018  0.00  0.00    +0.000 OA
ATOM     22  HXT UNL     1       7.094   5.146  13.312  0.00  0.00    +0.000 HD
ENDBRANCH  19  21
ENDBRANCH  15  19
ENDBRANCH  14  15
ENDBRANCH   5  14
TORSDOF 11
ENDMDL
MODEL 8
REMARK VINA RESULT:      -6.1      3.293      6.201
REMARK  Name = 
REMARK  12 active torsions:
REMARK  status: ('A' for Active; 'I' for Inactive)
REMARK    1  A    between atoms: C_1  and  C_2
REMARK    2  A    between atoms: C_2  and  C_3
REMARK    3  A    between atoms: C_3  and  C_4
REMARK    4  A    between atoms: C_4  and  C_5
REMARK    5  A    between atoms: C_5  and  C_6
REMARK    6  A    between atoms: C_6  and  C_7
REMARK    7  A    between atoms: C_8  and  O_9
REMARK    8  A    between atoms: C_12  and  C_13
REMARK    9  A    between atoms: C_13  and  CA_14
REMARK   10  A    between atoms: CA_14  and  N_15
REMARK   11  A    between atoms: CA_14  and  C_16
REMARK   12  A    between atoms: C_16  and  OXT_18
REMARK                            x       y       z     vdW  Elec       q    Type
REMARK                         _______ _______ _______ _____ _____    ______ ____
ROOT
ATOM      1  C   UNL     1       5.451   4.832  16.928  0.00  0.00    +0.000 A 
ATOM      2  C   UNL     1       6.561   4.556  17.753  0.00  0.00    +0.000 A 
ATOM      3  N   UNL     1       6.237   4.227  18.996  0.00  0.00    +0.000 NA
ATOM      4  O   UNL     1       4.861   4.304  19.026  0.00  0.00    +0.000 OA
ATOM      5  C   UNL     1       4.384   4.629  17.789  0.00  0.00    +0.000 A 
ENDROOT
BRANCH   2   6
ATOM      6  O   UNL     1       7.869   4.576  17.464  0.00  0.00    +0.000 OA
ATOM      7  H   UNL     1       8.195   3.674  17.334  0.00  0.00    +0.000 HD
ENDBRANCH   2   6
BRANCH   1   8
ATOM      8  C   UNL     1       5.480   5.264  15.499  0.00  0.00    +0.000 C 
BRANCH   8   9
ATOM      9  C   UNL     1       5.589   4.110  14.496  0.00  0.00    +0.000 C 
BRANCH   9  10
ATOM     10  C   UNL     1       6.702   4.259  13.453  0.00  0.00    +0.000 C 
BRANCH  10  11
ATOM     11  C   UNL     1       6.428   3.600  12.098  0.00  0.00    +0.000 C 
BRANCH  11  13
ATOM     12  C   UNL     1       4.154   3.409  11.046  0.00  0.00    +0.000 C 
ATOM     13  C   UNL     1       5.126   2.803  12.047  0.00  0.00    +0.000 C 
ENDBRANCH  11  13
ENDBRANCH  10  11
ENDBRANCH   9  10
ENDBRANCH   8   9
ENDBRANCH   1   8
BRANCH   5  14
ATOM     14  C   UNL     1       2.895   4.682  17.711  0.00  0.00    +0.000 C 
BRANCH  14  15
ATOM     15  CA  UNL     1       2.262   3.275  17.716  0.00  0.00    +0.000 C 
BRANCH  15  16
ATOM     16  N   UNL     1       3.250   2.159  17.896  0.00  0.00    +0.000 NA
ATOM     17  H1  UNL     1       4.168   2.492  17.578  0.00  0.00    +0.000 HD
ATOM     18  H2  UNL     1       3.020   1.437  17.201  0.00  0.00    +0.000 HD
ENDBRANCH  15  16
BRANCH  15  19
ATOM     19  C   UNL     1       1.223   3.139  18.838  0.00  0.00    +0.000 C 
ATOM     20  O   UNL     1       1.215   3.769  19.884  0.00  0.00    +0.000 OA
BRANCH  19  21
ATOM     21  OXT UNL     1       0.267   2.229  18.505  0.00  0.00    +0.000 OA
ATOM     22  HXT UNL     1      -0.084   1.876  19.365  0.00  0.00    +0.000 HD
ENDBRANCH  19  21
ENDBRANCH  15  19
ENDBRANCH  14  15
ENDBRANCH   5  14
TORSDOF 11
ENDMDL
MODEL 9
REMARK VINA RESULT:      -6.1      3.445      6.193
REMARK  Name = 
REMARK  12 active torsions:
REMARK  status: ('A' for Active; 'I' for Inactive)
REMARK    1  A    between atoms: C_1  and  C_2
REMARK    2  A    between atoms: C_2  and  C_3
REMARK    3  A    between atoms: C_3  and  C_4
REMARK    4  A    between atoms: C_4  and  C_5
REMARK    5  A    between atoms: C_5  and  C_6
REMARK    6  A    between atoms: C_6  and  C_7
REMARK    7  A    between atoms: C_8  and  O_9
REMARK    8  A    between atoms: C_12  and  C_13
REMARK    9  A    between atoms: C_13  and  CA_14
REMARK   10  A    between atoms: CA_14  and  N_15
REMARK   11  A    between atoms: CA_14  and  C_16
REMARK   12  A    between atoms: C_16  and  OXT_18
REMARK                            x       y       z     vdW  Elec       q    Type
REMARK                         _______ _______ _______ _____ _____    ______ ____
ROOT
ATOM      1  C   UNL     1       5.593   4.865  17.026  0.00  0.00    +0.000 A 
ATOM      2  C   UNL     1       6.807   4.644  17.710  0.00  0.00    +0.000 A 
ATOM      3  N   UNL     1       6.687   4.645  19.030  0.00  0.00    +0.000 NA
ATOM      4  O   UNL     1       5.350   4.898  19.256  0.00  0.00    +0.000 OA
ATOM      5  C   UNL     1       4.687   4.995  18.067  0.00  0.00    +0.000 A 
ENDROOT
BRANCH   2   6
ATOM      6  O   UNL     1       8.038   4.435  17.223  0.00  0.00    +0.000 OA
ATOM      7  H   UNL     1       8.682   4.970  17.708  0.00  0.00    +0.000 HD
ENDBRANCH   2   6
BRANCH   1   8
ATOM      8  C   UNL     1       5.399   4.960  15.549  0.00  0.00    +0.000 C 
BRANCH   8   9
ATOM      9  C   UNL     1       5.916   3.746  14.769  0.00  0.00    +0.000 C 
BRANCH   9  10
ATOM     10  C   UNL     1       6.521   4.064  13.398  0.00  0.00    +0.000 C 
BRANCH  10  11
ATOM     11  C   UNL     1       5.906   3.311  12.215  0.00  0.00    +0.000 C 
BRANCH  11  13
ATOM     12  C   UNL     1       3.875   3.272  10.736  0.00  0.00    +0.000 C 
ATOM     13  C   UNL     1       4.380   3.367  12.168  0.00  0.00    +0.000 C 
ENDBRANCH  11  13
ENDBRANCH  10  11
ENDBRANCH   9  10
ENDBRANCH   8   9
ENDBRANCH   1   8
BRANCH   5  14
ATOM     14  C   UNL     1       3.219   5.216  18.212  0.00  0.00    +0.000 C 
BRANCH  14  15
ATOM     15  CA  UNL     1       2.649   4.527  19.470  0.00  0.00    +0.000 C 
BRANCH  15  16
ATOM     16  N   UNL     1       2.385   5.462  20.614  0.00  0.00    +0.000 NA
ATOM     17  H1  UNL     1       1.690   5.025  21.230  0.00  0.00    +0.000 HD
ATOM     18  H2  UNL     1       1.873   6.269  20.234  0.00  0.00    +0.000 HD
ENDBRANCH  15  16
BRANCH  15  19
ATOM     19  C   UNL     1       1.325   3.814  19.160  0.00  0.00    +0.000 C 
ATOM     20  O   UNL     1       0.981   3.389  18.067  0.00  0.00    +0.000 OA
BRANCH  19  21
ATOM     21  OXT UNL     1       0.571   3.681  20.285  0.00  0.00    +0.000 OA
ATOM     22  HXT UNL     1       1.162   3.256  20.961  0.00  0.00    +0.000 HD
ENDBRANCH  19  21
ENDBRANCH  15  19
ENDBRANCH  14  15
ENDBRANCH   5  14
TORSDOF 11
ENDMDL
