MODEL 1
REMARK VINA RESULT:      -6.4      0.000      0.000
REMARK  Name = 
REMARK  7 active torsions:
REMARK  status: ('A' for Active; 'I' for Inactive)
REMARK    1  A    between atoms: C_1  and  C_2
REMARK    2  A    between atoms: C_2  and  N_3
REMARK    3  A    between atoms: N_3  and  C_4
REMARK    4  A    between atoms: C_10  and  C_11
REMARK    5  A    between atoms: C_18  and  C_19
REMARK    6  A    between atoms: C_19  and  C_20
REMARK    7  A    between atoms: C_21  and  C_22
REMARK                            x       y       z     vdW  Elec       q    Type
REMARK                         _______ _______ _______ _____ _____    ______ ____
ROOT
ATOM      1  C   UNL     1       2.864   6.047  19.723  0.00  0.00    +0.000 A 
ATOM      2  N   UNL     1       3.770   5.538  18.852  0.00  0.00    +0.000 NA
ATOM      3  C   UNL     1       4.093   6.227  17.752  0.00  0.00    +0.000 A 
ATOM      4  N   UNL     1       3.597   7.397  17.362  0.00  0.00    +0.000 NA
ATOM      5  C   UNL     1       2.714   7.895  18.239  0.00  0.00    +0.000 A 
ATOM      6  S   UNL     1       1.899   9.340  17.888  0.00  0.00    +0.000 S 
ATOM      7  C   UNL     1       1.311   9.471  19.493  0.00  0.00    +0.000 A 
ATOM      8  C   UNL     1       1.411   8.241  20.151  0.00  0.00    +0.000 A 
ATOM      9  C   UNL     1       0.733   7.909  21.445  0.00  0.00    +0.000 C 
ATOM     10  C   UNL     1       2.321   7.334  19.446  0.00  0.00    +0.000 A 
ENDROOT
BRANCH   7  11
ATOM     11  C   UNL     1       0.619  10.697  19.930  0.00  0.00    +0.000 C 
ATOM     12  O   UNL     1       1.228  11.506  20.620  0.00  0.00    +0.000 OA
ATOM     13  N   UNL     1      -0.709  10.954  19.463  0.00  0.00    +0.000 N 
ATOM     14  C   UNL     1      -1.475   9.904  18.780  0.00  0.00    +0.000 C 
ATOM     15  C   UNL     1      -2.390  10.437  17.696  0.00  0.00    +0.000 C 
ATOM     16  C   UNL     1      -3.364  11.429  18.284  0.00  0.00    +0.000 C 
ATOM     17  C   UNL     1      -2.606  12.548  18.977  0.00  0.00    +0.000 C 
ATOM     18  C   UNL     1      -1.551  12.076  20.017  0.00  0.00    +0.000 C 
BRANCH  18  19
ATOM     19  C   UNL     1      -0.799  13.331  20.537  0.00  0.00    +0.000 C 
ATOM     20  C   UNL     1      -0.540  14.404  19.478  0.00  0.00    +0.000 C 
ENDBRANCH  18  19
ENDBRANCH   7  11
BRANCH   1  21
ATOM     21  N   UNL     1       2.519   5.282  20.840  0.00  0.00    +0.000 N 
ATOM     22  H   UNL     1       3.316   4.928  21.346  0.00  0.00    +0.000 HD
BRANCH  21  24
ATOM     23  C   UNL     1       1.674   3.108  21.536  0.00  0.00    +0.000 C 
ATOM     24  C   UNL     1       1.444   4.318  20.645  0.00  0.00    +0.000 C 
ENDBRANCH  21  24
ENDBRANCH   1  21
TORSDOF 4
ENDMDL
MODEL 2
REMARK VINA RESULT:      -6.3      2.506      7.395
REMARK  Name = 
REMARK  7 active torsions:
REMARK  status: ('A' for Active; 'I' for Inactive)
REMARK    1  A    between atoms: C_1  and  C_2
REMARK    2  A    between atoms: C_2  and  N_3
REMARK    3  A    between atoms: N_3  and  C_4
REMARK    4  A    between atoms: C_10  and  C_11
REMARK    5  A    between atoms: C_18  and  C_19
REMARK    6  A    between atoms: C_19  and  C_20
REMARK    7  A    between atoms: C_21  and  C_22
REMARK                            x       y       z     vdW  Elec       q    Type
REMARK                         _______ _______ _______ _____ _____    ______ ____
ROOT
ATOM      1  C   UNL     1       0.393  10.271  20.118  0.00  0.00    +0.000 A 
ATOM      2  N   UNL     1       0.005  10.598  21.375  0.00  0.00    +0.000 NA
ATOM      3  C   UNL     1       0.257   9.760  22.387  0.00  0.00    +0.000 A 
ATOM      4  N   UNL     1       0.846   8.570  22.317  0.00  0.00    +0.000 NA
ATOM      5  C   UNL     1       1.236   8.267  21.071  0.00  0.00    +0.000 A 
ATOM      6  S   UNL     1       1.933   6.753  20.750  0.00  0.00    +0.000 S 
ATOM      7  C   UNL     1       2.441   7.249  19.190  0.00  0.00    +0.000 A 
ATOM      8  C   UNL     1       1.747   8.396  18.792  0.00  0.00    +0.000 A 
ATOM      9  C   UNL     1       1.715   8.930  17.393  0.00  0.00    +0.000 C 
ATOM     10  C   UNL     1       1.102   9.051  19.934  0.00  0.00    +0.000 A 
ENDROOT
BRANCH   7  11
ATOM     11  C   UNL     1       3.327   6.384  18.391  0.00  0.00    +0.000 C 
ATOM     12  O   UNL     1       4.395   6.836  17.993  0.00  0.00    +0.000 OA
ATOM     13  N   UNL     1       2.964   5.016  18.180  0.00  0.00    +0.000 N 
ATOM     14  C   UNL     1       1.615   4.542  18.518  0.00  0.00    +0.000 C 
ATOM     15  C   UNL     1       1.590   3.113  19.019  0.00  0.00    +0.000 C 
ATOM     16  C   UNL     1       2.170   2.189  17.976  0.00  0.00    +0.000 C 
ATOM     17  C   UNL     1       3.579   2.632  17.620  0.00  0.00    +0.000 C 
ATOM     18  C   UNL     1       3.711   4.127  17.216  0.00  0.00    +0.000 C 
BRANCH  18  19
ATOM     19  C   UNL     1       5.218   4.432  17.000  0.00  0.00    +0.000 C 
ATOM     20  C   UNL     1       5.682   4.358  15.545  0.00  0.00    +0.000 C 
ENDBRANCH  18  19
ENDBRANCH   7  11
BRANCH   1  21
ATOM     21  N   UNL     1       0.076  11.150  19.079  0.00  0.00    +0.000 N 
ATOM     22  H   UNL     1       0.611  12.004  19.098  0.00  0.00    +0.000 HD
BRANCH  21  24
ATOM     23  C   UNL     1      -1.740  10.492  17.597  0.00  0.00    +0.000 C 
ATOM     24  C   UNL     1      -1.344  11.327  18.804  0.00  0.00    +0.000 C 
ENDBRANCH  21  24
ENDBRANCH   1  21
TORSDOF 4
ENDMDL
MODEL 3
REMARK VINA RESULT:      -6.3      2.389      4.397
REMARK  Name = 
REMARK  7 active torsions:
REMARK  status: ('A' for Active; 'I' for Inactive)
REMARK    1  A    between atoms: C_1  and  C_2
REMARK    2  A    between atoms: C_2  and  N_3
REMARK    3  A    between atoms: N_3  and  C_4
REMARK    4  A    between atoms: C_10  and  C_11
REMARK    5  A    between atoms: C_18  and  C_19
REMARK    6  A    between atoms: C_19  and  C_20
REMARK    7  A    between atoms: C_21  and  C_22
REMARK                            x       y       z     vdW  Elec       q    Type
REMARK                         _______ _______ _______ _____ _____    ______ ____
ROOT
ATOM      1  C   UNL     1       4.964   3.936  18.960  0.00  0.00    +0.000 A 
ATOM      2  N   UNL     1       4.805   2.711  19.519  0.00  0.00    +0.000 NA
ATOM      3  C   UNL     1       3.750   2.473  20.307  0.00  0.00    +0.000 A 
ATOM      4  N   UNL     1       2.798   3.332  20.656  0.00  0.00    +0.000 NA
ATOM      5  C   UNL     1       2.960   4.534  20.085  0.00  0.00    +0.000 A 
ATOM      6  S   UNL     1       1.899   5.801  20.468  0.00  0.00    +0.000 S 
ATOM      7  C   UNL     1       2.488   6.766  19.180  0.00  0.00    +0.000 A 
ATOM      8  C   UNL     1       3.724   6.285  18.735  0.00  0.00    +0.000 A 
ATOM      9  C   UNL     1       4.659   7.038  17.840  0.00  0.00    +0.000 C 
ATOM     10  C   UNL     1       3.962   4.917  19.204  0.00  0.00    +0.000 A 
ENDROOT
BRANCH   7  11
ATOM     11  C   UNL     1       1.809   8.026  18.829  0.00  0.00    +0.000 C 
ATOM     12  O   UNL     1       1.688   8.324  17.646  0.00  0.00    +0.000 OA
ATOM     13  N   UNL     1       1.229   8.821  19.869  0.00  0.00    +0.000 N 
ATOM     14  C   UNL     1       1.527   8.536  21.279  0.00  0.00    +0.000 C 
ATOM     15  C   UNL     1       0.360   8.811  22.205  0.00  0.00    +0.000 C 
ATOM     16  C   UNL     1      -0.062  10.256  22.091  0.00  0.00    +0.000 C 
ATOM     17  C   UNL     1      -0.405  10.581  20.648  0.00  0.00    +0.000 C 
ATOM     18  C   UNL     1       0.695  10.209  19.614  0.00  0.00    +0.000 C 
BRANCH  18  19
ATOM     19  C   UNL     1       0.135  10.500  18.196  0.00  0.00    +0.000 C 
ATOM     20  C   UNL     1      -1.357  10.207  18.026  0.00  0.00    +0.000 C 
ENDBRANCH  18  19
ENDBRANCH   7  11
BRANCH   1  21
ATOM     21  N   UNL     1       6.099   4.163  18.178  0.00  0.00    +0.000 N 
ATOM     22  H   UNL     1       6.600   5.001  18.429  0.00  0.00    +0.000 HD
BRANCH  21  24
ATOM     23  C   UNL     1       7.013   4.724  15.992  0.00  0.00    +0.000 C 
ATOM     24  C   UNL     1       5.938   3.956  16.744  0.00  0.00    +0.000 C 
ENDBRANCH  21  24
ENDBRANCH   1  21
TORSDOF 4
ENDMDL
MODEL 4
REMARK VINA RESULT:      -6.1      2.557      3.626
REMARK  Name = 
REMARK  7 active torsions:
REMARK  status: ('A' for Active; 'I' for Inactive)
REMARK    1  A    between atoms: C_1  and  C_2
REMARK    2  A    between atoms: C_2  and  N_3
REMARK    3  A    between atoms: N_3  and  C_4
REMARK    4  A    between atoms: C_10  and  C_11
REMARK    5  A    between atoms: C_18  and  C_19
REMARK    6  A    between atoms: C_19  and  C_20
REMARK    7  A    between atoms: C_21  and  C_22
REMARK                            x       y       z     vdW  Elec       q    Type
REMARK                         _______ _______ _______ _____ _____    ______ ____
ROOT
ATOM      1  C   UNL     1       3.690   3.585  17.335  0.00  0.00    +0.000 A 
ATOM      2  N   UNL     1       4.749   3.518  16.491  0.00  0.00    +0.000 NA
ATOM      3  C   UNL     1       5.397   4.637  16.149  0.00  0.00    +0.000 A 
ATOM      4  N   UNL     1       5.109   5.879  16.525  0.00  0.00    +0.000 NA
ATOM      5  C   UNL     1       4.069   5.929  17.369  0.00  0.00    +0.000 A 
ATOM      6  S   UNL     1       3.485   7.430  17.902  0.00  0.00    +0.000 S 
ATOM      7  C   UNL     1       2.514   6.694  19.107  0.00  0.00    +0.000 A 
ATOM      8  C   UNL     1       2.346   5.332  18.835  0.00  0.00    +0.000 A 
ATOM      9  C   UNL     1       1.333   4.449  19.496  0.00  0.00    +0.000 C 
ATOM     10  C   UNL     1       3.336   4.859  17.863  0.00  0.00    +0.000 A 
ENDROOT
BRANCH   7  11
ATOM     11  C   UNL     1       1.827   7.524  20.113  0.00  0.00    +0.000 C 
ATOM     12  O   UNL     1       1.726   7.102  21.259  0.00  0.00    +0.000 OA
ATOM     13  N   UNL     1       1.381   8.835  19.751  0.00  0.00    +0.000 N 
ATOM     14  C   UNL     1       1.362   9.253  18.343  0.00  0.00    +0.000 C 
ATOM     15  C   UNL     1       1.673  10.723  18.151  0.00  0.00    +0.000 C 
ATOM     16  C   UNL     1       0.676  11.566  18.910  0.00  0.00    +0.000 C 
ATOM     17  C   UNL     1       0.688  11.179  20.379  0.00  0.00    +0.000 C 
ATOM     18  C   UNL     1       0.503   9.661  20.657  0.00  0.00    +0.000 C 
BRANCH  18  19
ATOM     19  C   UNL     1       0.654   9.434  22.185  0.00  0.00    +0.000 C 
ATOM     20  C   UNL     1      -0.520   9.938  23.026  0.00  0.00    +0.000 C 
ENDBRANCH  18  19
ENDBRANCH   7  11
BRANCH   1  21
ATOM     21  N   UNL     1       3.011   2.403  17.637  0.00  0.00    +0.000 N 
ATOM     22  H   UNL     1       2.055   2.550  17.923  0.00  0.00    +0.000 HD
BRANCH  21  24
ATOM     23  C   UNL     1       4.199   2.083  19.737  0.00  0.00    +0.000 C 
ATOM     24  C   UNL     1       3.744   1.433  18.441  0.00  0.00    +0.000 C 
ENDBRANCH  21  24
ENDBRANCH   1  21
TORSDOF 4
ENDMDL
MODEL 5
REMARK VINA RESULT:      -6.1      2.516      7.022
REMARK  Name = 
REMARK  7 active torsions:
REMARK  status: ('A' for Active; 'I' for Inactive)
REMARK    1  A    between atoms: C_1  and  C_2
REMARK    2  A    between atoms: C_2  and  N_3
REMARK    3  A    between atoms: N_3  and  C_4
REMARK    4  A    between atoms: C_10  and  C_11
REMARK    5  A    between atoms: C_18  and  C_19
REMARK    6  A    between atoms: C_19  and  C_20
REMARK    7  A    between atoms: C_21  and  C_22
REMARK                            x       y       z     vdW  Elec       q    Type
REMARK                         _______ _______ _______ _____ _____    ______ ____
ROOT
ATOM      1  C   UNL     1       0.009   9.224  20.541  0.00  0.00    +0.000 A 
ATOM      2  N   UNL     1      -0.757  10.270  20.147  0.00  0.00    +0.000 NA
ATOM      3  C   UNL     1      -0.522  10.859  18.969  0.00  0.00    +0.000 A 
ATOM      4  N   UNL     1       0.432  10.556  18.095  0.00  0.00    +0.000 NA
ATOM      5  C   UNL     1       1.173   9.510  18.491  0.00  0.00    +0.000 A 
ATOM      6  S   UNL     1       2.501   9.015  17.559  0.00  0.00    +0.000 S 
ATOM      7  C   UNL     1       2.658   7.557  18.444  0.00  0.00    +0.000 A 
ATOM      8  C   UNL     1       1.968   7.646  19.658  0.00  0.00    +0.000 A 
ATOM      9  C   UNL     1       2.127   6.690  20.801  0.00  0.00    +0.000 C 
ATOM     10  C   UNL     1       1.017   8.761  19.649  0.00  0.00    +0.000 A 
ENDROOT
BRANCH   7  11
ATOM     11  C   UNL     1       3.593   6.512  17.990  0.00  0.00    +0.000 C 
ATOM     12  O   UNL     1       4.769   6.807  17.810  0.00  0.00    +0.000 OA
ATOM     13  N   UNL     1       3.127   5.165  17.863  0.00  0.00    +0.000 N 
ATOM     14  C   UNL     1       1.690   4.864  17.921  0.00  0.00    +0.000 C 
ATOM     15  C   UNL     1       1.383   3.530  18.568  0.00  0.00    +0.000 C 
ATOM     16  C   UNL     1       2.070   2.418  17.813  0.00  0.00    +0.000 C 
ATOM     17  C   UNL     1       3.564   2.681  17.755  0.00  0.00    +0.000 C 
ATOM     18  C   UNL     1       3.962   4.085  17.220  0.00  0.00    +0.000 C 
BRANCH  18  19
ATOM     19  C   UNL     1       5.503   4.222  17.338  0.00  0.00    +0.000 C 
ATOM     20  C   UNL     1       6.252   4.185  16.005  0.00  0.00    +0.000 C 
ENDBRANCH  18  19
ENDBRANCH   7  11
BRANCH   1  21
ATOM     21  N   UNL     1      -0.237   8.660  21.795  0.00  0.00    +0.000 N 
ATOM     22  H   UNL     1      -1.143   8.225  21.870  0.00  0.00    +0.000 HD
BRANCH  21  24
ATOM     23  C   UNL     1      -0.976  10.437  23.286  0.00  0.00    +0.000 C 
ATOM     24  C   UNL     1       0.146   9.470  22.945  0.00  0.00    +0.000 C 
ENDBRANCH  21  24
ENDBRANCH   1  21
TORSDOF 4
ENDMDL
MODEL 6
REMARK VINA RESULT:      -6.0      2.775      4.547
REMARK  Name = 
REMARK  7 active torsions:
REMARK  status: ('A' for Active; 'I' for Inactive)
REMARK    1  A    between atoms: C_1  and  C_2
REMARK    2  A    between atoms: C_2  and  N_3
REMARK    3  A    between atoms: N_3  and  C_4
REMARK    4  A    between atoms: C_10  and  C_11
REMARK    5  A    between atoms: C_18  and  C_19
REMARK    6  A    between atoms: C_19  and  C_20
REMARK    7  A    between atoms: C_21  and  C_22
REMARK                            x       y       z     vdW  Elec       q    Type
REMARK                         _______ _______ _______ _____ _____    ______ ____
ROOT
ATOM      1  C   UNL     1       4.453   3.620  17.547  0.00  0.00    +0.000 A 
ATOM      2  N   UNL     1       3.988   2.353  17.669  0.00  0.00    +0.000 NA
ATOM      3  C   UNL     1       2.799   2.134  18.241  0.00  0.00    +0.000 A 
ATOM      4  N   UNL     1       1.977   3.041  18.758  0.00  0.00    +0.000 NA
ATOM      5  C   UNL     1       2.443   4.291  18.618  0.00  0.00    +0.000 A 
ATOM      6  S   UNL     1       1.585   5.591  19.288  0.00  0.00    +0.000 S 
ATOM      7  C   UNL     1       2.532   6.737  18.434  0.00  0.00    +0.000 A 
ATOM      8  C   UNL     1       3.713   6.146  17.972  0.00  0.00    +0.000 A 
ATOM      9  C   UNL     1       4.897   6.901  17.452  0.00  0.00    +0.000 C 
ATOM     10  C   UNL     1       3.621   4.683  17.999  0.00  0.00    +0.000 A 
ENDROOT
BRANCH   7  11
ATOM     11  C   UNL     1       2.157   8.162  18.444  0.00  0.00    +0.000 C 
ATOM     12  O   UNL     1       2.320   8.824  17.425  0.00  0.00    +0.000 OA
ATOM     13  N   UNL     1       1.529   8.711  19.606  0.00  0.00    +0.000 N 
ATOM     14  C   UNL     1       1.495   7.953  20.864  0.00  0.00    +0.000 C 
ATOM     15  C   UNL     1       0.234   8.187  21.671  0.00  0.00    +0.000 C 
ATOM     16  C   UNL     1       0.093   9.654  21.997  0.00  0.00    +0.000 C 
ATOM     17  C   UNL     1       0.097  10.470  20.716  0.00  0.00    +0.000 C 
ATOM     18  C   UNL     1       1.298  10.194  19.768  0.00  0.00    +0.000 C 
BRANCH  18  19
ATOM     19  C   UNL     1       1.081  11.019  18.471  0.00  0.00    +0.000 C 
ATOM     20  C   UNL     1       1.970  12.257  18.346  0.00  0.00    +0.000 C 
ENDBRANCH  18  19
ENDBRANCH   7  11
BRANCH   1  21
ATOM     21  N   UNL     1       5.717   3.809  16.983  0.00  0.00    +0.000 N 
ATOM     22  H   UNL     1       6.255   4.532  17.435  0.00  0.00    +0.000 HD
BRANCH  21  24
ATOM     23  C   UNL     1       6.972   4.641  15.071  0.00  0.00    +0.000 C 
ATOM     24  C   UNL     1       5.770   3.831  15.527  0.00  0.00    +0.000 C 
ENDBRANCH  21  24
ENDBRANCH   1  21
TORSDOF 4
ENDMDL
MODEL 7
REMARK VINA RESULT:      -5.9      2.345      3.603
REMARK  Name = 
REMARK  7 active torsions:
REMARK  status: ('A' for Active; 'I' for Inactive)
REMARK    1  A    between atoms: C_1  and  C_2
REMARK    2  A    between atoms: C_2  and  N_3
REMARK    3  A    between atoms: N_3  and  C_4
REMARK    4  A    between atoms: C_10  and  C_11
REMARK    5  A    between atoms: C_18  and  C_19
REMARK    6  A    between atoms: C_19  and  C_20
REMARK    7  A    between atoms: C_21  and  C_22
REMARK                            x       y       z     vdW  Elec       q    Type
REMARK                         _______ _______ _______ _____ _____    ______ ____
ROOT
ATOM      1  C   UNL     1       4.615   4.109  19.111  0.00  0.00    +0.000 A 
ATOM      2  N   UNL     1       5.936   3.845  18.966  0.00  0.00    +0.000 NA
ATOM      3  C   UNL     1       6.729   4.735  18.358  0.00  0.00    +0.000 A 
ATOM      4  N   UNL     1       6.369   5.897  17.823  0.00  0.00    +0.000 NA
ATOM      5  C   UNL     1       5.063   6.151  17.985  0.00  0.00    +0.000 A 
ATOM      6  S   UNL     1       4.383   7.546  17.299  0.00  0.00    +0.000 S 
ATOM      7  C   UNL     1       2.931   7.350  18.188  0.00  0.00    +0.000 A 
ATOM      8  C   UNL     1       2.832   6.045  18.681  0.00  0.00    +0.000 A 
ATOM      9  C   UNL     1       1.583   5.437  19.240  0.00  0.00    +0.000 C 
ATOM     10  C   UNL     1       4.129   5.363  18.641  0.00  0.00    +0.000 A 
ENDROOT
BRANCH   7  11
ATOM     11  C   UNL     1       1.908   8.411  18.177  0.00  0.00    +0.000 C 
ATOM     12  O   UNL     1       1.527   8.855  17.100  0.00  0.00    +0.000 OA
ATOM     13  N   UNL     1       1.319   8.827  19.413  0.00  0.00    +0.000 N 
ATOM     14  C   UNL     1       1.902   8.407  20.694  0.00  0.00    +0.000 C 
ATOM     15  C   UNL     1       0.868   8.187  21.779  0.00  0.00    +0.000 C 
ATOM     16  C   UNL     1       0.081   9.455  22.009  0.00  0.00    +0.000 C 
ATOM     17  C   UNL     1      -0.560   9.906  20.708  0.00  0.00    +0.000 C 
ATOM     18  C   UNL     1       0.418  10.033  19.506  0.00  0.00    +0.000 C 
BRANCH  18  19
ATOM     19  C   UNL     1      -0.418  10.388  18.247  0.00  0.00    +0.000 C 
ATOM     20  C   UNL     1      -1.919  10.539  18.499  0.00  0.00    +0.000 C 
ENDBRANCH  18  19
ENDBRANCH   7  11
BRANCH   1  21
ATOM     21  N   UNL     1       3.809   3.140  19.712  0.00  0.00    +0.000 N 
ATOM     22  H   UNL     1       4.001   3.010  20.694  0.00  0.00    +0.000 HD
BRANCH  21  24
ATOM     23  C   UNL     1       2.662   2.147  17.809  0.00  0.00    +0.000 C 
ATOM     24  C   UNL     1       3.625   1.905  18.959  0.00  0.00    +0.000 C 
ENDBRANCH  21  24
ENDBRANCH   1  21
TORSDOF 4
ENDMDL
MODEL 8
REMARK VINA RESULT:      -5.9      4.948      7.483
REMARK  Name = 
REMARK  7 active torsions:
REMARK  status: ('A' for Active; 'I' for Inactive)
REMARK    1  A    between atoms: C_1  and  C_2
REMARK    2  A    between atoms: C_2  and  N_3
REMARK    3  A    between atoms: N_3  and  C_4
REMARK    4  A    between atoms: C_10  and  C_11
REMARK    5  A    between atoms: C_18  and  C_19
REMARK    6  A    between atoms: C_19  and  C_20
REMARK    7  A    between atoms: C_21  and  C_22
REMARK                            x       y       z     vdW  Elec       q    Type
REMARK                         _______ _______ _______ _____ _____    ______ ____
ROOT
ATOM      1  C   UNL     1       7.287   5.621  16.064  0.00  0.00    +0.000 A 
ATOM      2  N   UNL     1       7.665   5.593  14.763  0.00  0.00    +0.000 NA
ATOM      3  C   UNL     1       7.058   4.758  13.912  0.00  0.00    +0.000 A 
ATOM      4  N   UNL     1       6.096   3.885  14.193  0.00  0.00    +0.000 NA
ATOM      5  C   UNL     1       5.722   3.933  15.479  0.00  0.00    +0.000 A 
ATOM      6  S   UNL     1       4.566   2.838  16.064  0.00  0.00    +0.000 S 
ATOM      7  C   UNL     1       4.387   3.712  17.527  0.00  0.00    +0.000 A 
ATOM      8  C   UNL     1       5.468   4.579  17.713  0.00  0.00    +0.000 A 
ATOM      9  C   UNL     1       5.794   5.271  19.001  0.00  0.00    +0.000 C 
ATOM     10  C   UNL     1       6.210   4.779  16.465  0.00  0.00    +0.000 A 
ENDROOT
BRANCH   7  11
ATOM     11  C   UNL     1       3.318   3.354  18.477  0.00  0.00    +0.000 C 
ATOM     12  O   UNL     1       3.167   2.177  18.782  0.00  0.00    +0.000 OA
ATOM     13  N   UNL     1       2.550   4.395  19.089  0.00  0.00    +0.000 N 
ATOM     14  C   UNL     1       2.633   5.774  18.590  0.00  0.00    +0.000 C 
ATOM     15  C   UNL     1       2.494   6.815  19.682  0.00  0.00    +0.000 C 
ATOM     16  C   UNL     1       1.173   6.647  20.392  0.00  0.00    +0.000 C 
ATOM     17  C   UNL     1       1.062   5.237  20.947  0.00  0.00    +0.000 C 
ATOM     18  C   UNL     1       1.320   4.105  19.912  0.00  0.00    +0.000 C 
BRANCH  18  19
ATOM     19  C   UNL     1       1.281   2.750  20.668  0.00  0.00    +0.000 C 
ATOM     20  C   UNL     1       2.010   2.748  22.012  0.00  0.00    +0.000 C 
ENDBRANCH  18  19
ENDBRANCH   7  11
BRANCH   1  21
ATOM     21  N   UNL     1       7.971   6.473  16.934  0.00  0.00    +0.000 N 
ATOM     22  H   UNL     1       8.377   5.999  17.725  0.00  0.00    +0.000 HD
BRANCH  21  24
ATOM     23  C   UNL     1       8.260   8.639  18.008  0.00  0.00    +0.000 C 
ATOM     24  C   UNL     1       7.304   7.729  17.254  0.00  0.00    +0.000 C 
ENDBRANCH  21  24
ENDBRANCH   1  21
TORSDOF 4
ENDMDL
MODEL 9
REMARK VINA RESULT:      -5.8      2.208      3.055
REMARK  Name = 
REMARK  7 active torsions:
REMARK  status: ('A' for Active; 'I' for Inactive)
REMARK    1  A    between atoms: C_1  and  C_2
REMARK    2  A    between atoms: C_2  and  N_3
REMARK    3  A    between atoms: N_3  and  C_4
REMARK    4  A    between atoms: C_10  and  C_11
REMARK    5  A    between atoms: C_18  and  C_19
REMARK    6  A    between atoms: C_19  and  C_20
REMARK    7  A    between atoms: C_21  and  C_22
REMARK                            x       y       z     vdW  Elec       q    Type
REMARK                         _______ _______ _______ _____ _____    ______ ____
ROOT
ATOM      1  C   UNL     1       4.306   4.323  18.389  0.00  0.00    +0.000 A 
ATOM      2  N   UNL     1       5.230   4.343  17.396  0.00  0.00    +0.000 NA
ATOM      3  C   UNL     1       5.396   5.451  16.665  0.00  0.00    +0.000 A 
ATOM      4  N   UNL     1       4.721   6.591  16.770  0.00  0.00    +0.000 NA
ATOM      5  C   UNL     1       3.822   6.562  17.764  0.00  0.00    +0.000 A 
ATOM      6  S   UNL     1       2.794   7.889  18.011  0.00  0.00    +0.000 S 
ATOM      7  C   UNL     1       2.276   7.284  19.528  0.00  0.00    +0.000 A 
ATOM      8  C   UNL     1       2.582   5.924  19.642  0.00  0.00    +0.000 A 
ATOM      9  C   UNL     1       2.023   5.009  20.688  0.00  0.00    +0.000 C 
ATOM     10  C   UNL     1       3.574   5.517  18.642  0.00  0.00    +0.000 A 
ENDROOT
BRANCH   7  11
ATOM     11  C   UNL     1       1.441   8.118  20.411  0.00  0.00    +0.000 C 
ATOM     12  O   UNL     1       1.163   7.701  21.530  0.00  0.00    +0.000 OA
ATOM     13  N   UNL     1       1.055   9.426  19.978  0.00  0.00    +0.000 N 
ATOM     14  C   UNL     1       1.254   9.837  18.582  0.00  0.00    +0.000 C 
ATOM     15  C   UNL     1       1.589  11.307  18.433  0.00  0.00    +0.000 C 
ATOM     16  C   UNL     1       0.486  12.152  19.024  0.00  0.00    +0.000 C 
ATOM     17  C   UNL     1       0.270  11.773  20.479  0.00  0.00    +0.000 C 
ATOM     18  C   UNL     1       0.046  10.256  20.733  0.00  0.00    +0.000 C 
BRANCH  18  19
ATOM     19  C   UNL     1      -0.040  10.037  22.267  0.00  0.00    +0.000 C 
ATOM     20  C   UNL     1      -1.035  10.948  22.987  0.00  0.00    +0.000 C 
ENDBRANCH  18  19
ENDBRANCH   7  11
BRANCH   1  21
ATOM     21  N   UNL     1       4.130   3.136  19.103  0.00  0.00    +0.000 N 
ATOM     22  H   UNL     1       4.928   2.882  19.664  0.00  0.00    +0.000 HD
BRANCH  21  24
ATOM     23  C   UNL     1       2.012   2.175  18.382  0.00  0.00    +0.000 C 
ATOM     24  C   UNL     1       3.526   2.032  18.368  0.00  0.00    +0.000 C 
ENDBRANCH  21  24
ENDBRANCH   1  21
TORSDOF 4
ENDMDL
