MODEL 1
REMARK VINA RESULT:      -7.9      0.000      0.000
REMARK  Name = 
REMARK  10 active torsions:
REMARK  status: ('A' for Active; 'I' for Inactive)
REMARK    1  A    between atoms: C_1  and  C_2
REMARK    2  A    between atoms: C_2  and  O_4
REMARK    3  A    between atoms: O_4  and  C_5
REMARK    4  A    between atoms: C_9  and  C_10
REMARK    5  A    between atoms: C_13  and  C_14
REMARK    6  A    between atoms: C_17  and  O_18
REMARK    7  A    between atoms: O_18  and  C_19
REMARK    8  A    between atoms: C_19  and  C_20
REMARK    9  A    between atoms: C_19  and  C_21
REMARK   10  A    between atoms: C_22  and  C_23
REMARK                            x       y       z     vdW  Elec       q    Type
REMARK                         _______ _______ _______ _____ _____    ______ ____
ROOT
ATOM      1  C   UNL     1       2.327   5.980  19.620  0.00  0.00    +0.000 A 
ATOM      2  N   UNL     1       1.978   5.514  20.831  0.00  0.00    +0.000 NA
ATOM      3  O   UNL     1       1.380   6.612  21.447  0.00  0.00    +0.000 OA
ATOM      4  C   UNL     1       1.413   7.633  20.541  0.00  0.00    +0.000 A 
ATOM      5  N   UNL     1       1.979   7.295  19.404  0.00  0.00    +0.000 NA
ENDROOT
BRANCH   1  10
ATOM      6  C   UNL     1       5.464   5.701  15.874  0.00  0.00    +0.000 C 
ATOM      7  C   UNL     1       5.714   6.902  16.803  0.00  0.00    +0.000 C 
ATOM      8  C   UNL     1       4.426   7.108  17.610  0.00  0.00    +0.000 C 
ATOM      9  C   UNL     1       3.905   5.703  17.706  0.00  0.00    +0.000 A 
ATOM     10  C   UNL     1       2.976   5.171  18.602  0.00  0.00    +0.000 A 
ATOM     11  C   UNL     1       2.670   3.804  18.488  0.00  0.00    +0.000 A 
ATOM     12  C   UNL     1       3.229   3.020  17.467  0.00  0.00    +0.000 A 
ATOM     13  C   UNL     1       4.127   3.575  16.557  0.00  0.00    +0.000 A 
ATOM     14  C   UNL     1       4.487   4.906  16.704  0.00  0.00    +0.000 A 
BRANCH   6  15
ATOM     15  O   UNL     1       6.656   4.937  15.662  0.00  0.00    +0.000 OA
BRANCH  15  17
ATOM     16  C   UNL     1       6.281   3.902  13.584  0.00  0.00    +0.000 C 
ATOM     17  C   UNL     1       7.096   4.885  14.378  0.00  0.00    +0.000 C 
ATOM     18  O   UNL     1       7.995   5.568  13.906  0.00  0.00    +0.000 OA
ENDBRANCH  15  17
ENDBRANCH   6  15
ENDBRANCH   1  10
BRANCH   4  19
ATOM     19  C   UNL     1       0.821   8.899  20.937  0.00  0.00    +0.000 A 
ATOM     20  C   UNL     1       0.332   9.132  22.222  0.00  0.00    +0.000 A 
ATOM     21  C   UNL     1      -0.265  10.356  22.542  0.00  0.00    +0.000 A 
ATOM     22  C   UNL     1      -0.382  11.392  21.598  0.00  0.00    +0.000 A 
ATOM     23  C   UNL     1       0.119  11.173  20.308  0.00  0.00    +0.000 A 
ATOM     24  C   UNL     1       0.714   9.939  19.992  0.00  0.00    +0.000 A 
BRANCH  23  25
ATOM     25  C   UNL     1       0.057  12.124  19.238  0.00  0.00    +0.000 C 
ATOM     26  N   UNL     1      -0.051  12.894  18.375  0.00  0.00    +0.000 NA
ENDBRANCH  23  25
BRANCH  22  27
ATOM     27  O   UNL     1      -1.072  12.467  22.088  0.00  0.00    +0.000 OA
BRANCH  27  28
ATOM     28  C   UNL     1      -2.493  12.553  21.949  0.00  0.00    +0.000 C 
ATOM     29  C   UNL     1      -3.121  12.554  23.339  0.00  0.00    +0.000 C 
ATOM     30  C   UNL     1      -2.824  13.860  21.232  0.00  0.00    +0.000 C 
ENDBRANCH  27  28
ENDBRANCH  22  27
ENDBRANCH   4  19
TORSDOF 7
ENDMDL
MODEL 2
REMARK VINA RESULT:      -7.9      2.624      9.897
REMARK  Name = 
REMARK  10 active torsions:
REMARK  status: ('A' for Active; 'I' for Inactive)
REMARK    1  A    between atoms: C_1  and  C_2
REMARK    2  A    between atoms: C_2  and  O_4
REMARK    3  A    between atoms: O_4  and  C_5
REMARK    4  A    between atoms: C_9  and  C_10
REMARK    5  A    between atoms: C_13  and  C_14
REMARK    6  A    between atoms: C_17  and  O_18
REMARK    7  A    between atoms: O_18  and  C_19
REMARK    8  A    between atoms: C_19  and  C_20
REMARK    9  A    between atoms: C_19  and  C_21
REMARK   10  A    between atoms: C_22  and  C_23
REMARK                            x       y       z     vdW  Elec       q    Type
REMARK                         _______ _______ _______ _____ _____    ______ ____
ROOT
ATOM      1  C   UNL     1       1.009   9.103  19.802  0.00  0.00    +0.000 A 
ATOM      2  N   UNL     1       1.360   8.385  20.882  0.00  0.00    +0.000 NA
ATOM      3  O   UNL     1       2.189   7.392  20.361  0.00  0.00    +0.000 OA
ATOM      4  C   UNL     1       2.269   7.616  19.017  0.00  0.00    +0.000 A 
ATOM      5  N   UNL     1       1.567   8.656  18.625  0.00  0.00    +0.000 NA
ENDROOT
BRANCH   1  10
ATOM      6  C   UNL     1      -2.813  11.576  18.004  0.00  0.00    +0.000 C 
ATOM      7  C   UNL     1      -2.844  10.072  17.685  0.00  0.00    +0.000 C 
ATOM      8  C   UNL     1      -1.417   9.549  17.896  0.00  0.00    +0.000 C 
ATOM      9  C   UNL     1      -0.923  10.456  18.985  0.00  0.00    +0.000 A 
ATOM     10  C   UNL     1       0.151  10.275  19.858  0.00  0.00    +0.000 A 
ATOM     11  C   UNL     1       0.393  11.280  20.809  0.00  0.00    +0.000 A 
ATOM     12  C   UNL     1      -0.375  12.454  20.835  0.00  0.00    +0.000 A 
ATOM     13  C   UNL     1      -1.422  12.636  19.932  0.00  0.00    +0.000 A 
ATOM     14  C   UNL     1      -1.711  11.619  19.034  0.00  0.00    +0.000 A 
BRANCH   6  15
ATOM     15  O   UNL     1      -4.043  12.020  18.588  0.00  0.00    +0.000 OA
BRANCH  15  17
ATOM     16  C   UNL     1      -6.199  11.082  18.567  0.00  0.00    +0.000 C 
ATOM     17  C   UNL     1      -5.149  11.855  17.818  0.00  0.00    +0.000 C 
ATOM     18  O   UNL     1      -5.303  12.303  16.690  0.00  0.00    +0.000 OA
ENDBRANCH  15  17
ENDBRANCH   6  15
ENDBRANCH   1  10
BRANCH   4  19
ATOM     19  C   UNL     1       3.105   6.719  18.238  0.00  0.00    +0.000 A 
ATOM     20  C   UNL     1       4.077   7.179  17.348  0.00  0.00    +0.000 A 
ATOM     21  C   UNL     1       4.830   6.274  16.592  0.00  0.00    +0.000 A 
ATOM     22  C   UNL     1       4.650   4.885  16.707  0.00  0.00    +0.000 A 
ATOM     23  C   UNL     1       3.686   4.412  17.607  0.00  0.00    +0.000 A 
ATOM     24  C   UNL     1       2.930   5.327  18.361  0.00  0.00    +0.000 A 
BRANCH  23  25
ATOM     25  C   UNL     1       3.378   3.029  17.820  0.00  0.00    +0.000 C 
ATOM     26  N   UNL     1       3.094   1.923  18.036  0.00  0.00    +0.000 NA
ENDBRANCH  23  25
BRANCH  22  27
ATOM     27  O   UNL     1       5.422   4.185  15.819  0.00  0.00    +0.000 OA
BRANCH  27  28
ATOM     28  C   UNL     1       5.862   4.784  14.597  0.00  0.00    +0.000 C 
ATOM     29  C   UNL     1       7.379   4.938  14.647  0.00  0.00    +0.000 C 
ATOM     30  C   UNL     1       5.475   3.859  13.445  0.00  0.00    +0.000 C 
ENDBRANCH  27  28
ENDBRANCH  22  27
ENDBRANCH   4  19
TORSDOF 7
ENDMDL
MODEL 3
REMARK VINA RESULT:      -7.9      5.653      8.197
REMARK  Name = 
REMARK  10 active torsions:
REMARK  status: ('A' for Active; 'I' for Inactive)
REMARK    1  A    between atoms: C_1  and  C_2
REMARK    2  A    between atoms: C_2  and  O_4
REMARK    3  A    between atoms: O_4  and  C_5
REMARK    4  A    between atoms: C_9  and  C_10
REMARK    5  A    between atoms: C_13  and  C_14
REMARK    6  A    between atoms: C_17  and  O_18
REMARK    7  A    between atoms: O_18  and  C_19
REMARK    8  A    between atoms: C_19  and  C_20
REMARK    9  A    between atoms: C_19  and  C_21
REMARK   10  A    between atoms: C_22  and  C_23
REMARK                            x       y       z     vdW  Elec       q    Type
REMARK                         _______ _______ _______ _____ _____    ______ ____
ROOT
ATOM      1  C   UNL     1       6.934   6.702  17.814  0.00  0.00    +0.000 A 
ATOM      2  N   UNL     1       7.928   6.421  18.674  0.00  0.00    +0.000 NA
ATOM      3  O   UNL     1       8.585   7.641  18.828  0.00  0.00    +0.000 OA
ATOM      4  C   UNL     1       7.914   8.545  18.055  0.00  0.00    +0.000 A 
ATOM      5  N   UNL     1       6.892   8.020  17.418  0.00  0.00    +0.000 NA
ENDROOT
BRANCH   1  10
ATOM      6  C   UNL     1       3.084   3.861  18.842  0.00  0.00    +0.000 C 
ATOM      7  C   UNL     1       3.243   5.057  19.796  0.00  0.00    +0.000 C 
ATOM      8  C   UNL     1       4.686   5.552  19.642  0.00  0.00    +0.000 C 
ATOM      9  C   UNL     1       4.968   5.216  18.207  0.00  0.00    +0.000 A 
ATOM     10  C   UNL     1       5.958   5.723  17.364  0.00  0.00    +0.000 A 
ATOM     11  C   UNL     1       5.995   5.249  16.042  0.00  0.00    +0.000 A 
ATOM     12  C   UNL     1       5.110   4.251  15.606  0.00  0.00    +0.000 A 
ATOM     13  C   UNL     1       4.149   3.727  16.471  0.00  0.00    +0.000 A 
ATOM     14  C   UNL     1       4.062   4.239  17.757  0.00  0.00    +0.000 A 
BRANCH   6  15
ATOM     15  O   UNL     1       1.761   3.787  18.300  0.00  0.00    +0.000 OA
BRANCH  15  17
ATOM     16  C   UNL     1       1.147   2.624  20.249  0.00  0.00    +0.000 C 
ATOM     17  C   UNL     1       0.998   2.762  18.759  0.00  0.00    +0.000 C 
ATOM     18  O   UNL     1       0.254   2.068  18.079  0.00  0.00    +0.000 OA
ENDBRANCH  15  17
ENDBRANCH   6  15
ENDBRANCH   1  10
BRANCH   4  19
ATOM     19  C   UNL     1       8.393   9.917  18.062  0.00  0.00    +0.000 A 
ATOM     20  C   UNL     1       7.737  10.946  17.387  0.00  0.00    +0.000 A 
ATOM     21  C   UNL     1       8.260  12.244  17.393  0.00  0.00    +0.000 A 
ATOM     22  C   UNL     1       9.444  12.560  18.082  0.00  0.00    +0.000 A 
ATOM     23  C   UNL     1      10.104  11.536  18.775  0.00  0.00    +0.000 A 
ATOM     24  C   UNL     1       9.574  10.234  18.761  0.00  0.00    +0.000 A 
BRANCH  23  25
ATOM     25  C   UNL     1      11.325  11.702  19.505  0.00  0.00    +0.000 C 
ATOM     26  N   UNL     1      12.333  11.784  20.078  0.00  0.00    +0.000 NA
ENDBRANCH  23  25
BRANCH  22  27
ATOM     27  O   UNL     1       9.827  13.860  17.888  0.00  0.00    +0.000 OA
BRANCH  27  28
ATOM     28  C   UNL     1       9.186  14.927  18.591  0.00  0.00    +0.000 C 
ATOM     29  C   UNL     1       9.939  15.176  19.895  0.00  0.00    +0.000 C 
ATOM     30  C   UNL     1       9.242  16.178  17.716  0.00  0.00    +0.000 C 
ENDBRANCH  27  28
ENDBRANCH  22  27
ENDBRANCH   4  19
TORSDOF 7
ENDMDL
MODEL 4
REMARK VINA RESULT:      -7.9      3.173      9.933
REMARK  Name = 
REMARK  10 active torsions:
REMARK  status: ('A' for Active; 'I' for Inactive)
REMARK    1  A    between atoms: C_1  and  C_2
REMARK    2  A    between atoms: C_2  and  O_4
REMARK    3  A    between atoms: O_4  and  C_5
REMARK    4  A    between atoms: C_9  and  C_10
REMARK    5  A    between atoms: C_13  and  C_14
REMARK    6  A    between atoms: C_17  and  O_18
REMARK    7  A    between atoms: O_18  and  C_19
REMARK    8  A    between atoms: C_19  and  C_20
REMARK    9  A    between atoms: C_19  and  C_21
REMARK   10  A    between atoms: C_22  and  C_23
REMARK                            x       y       z     vdW  Elec       q    Type
REMARK                         _______ _______ _______ _____ _____    ______ ____
ROOT
ATOM      1  C   UNL     1       0.923   9.968  18.577  0.00  0.00    +0.000 A 
ATOM      2  N   UNL     1       1.765  10.220  17.561  0.00  0.00    +0.000 NA
ATOM      3  O   UNL     1       2.586   9.093  17.526  0.00  0.00    +0.000 OA
ATOM      4  C   UNL     1       2.149   8.262  18.518  0.00  0.00    +0.000 A 
ATOM      5  N   UNL     1       1.129   8.751  19.187  0.00  0.00    +0.000 NA
ENDROOT
BRANCH   1  10
ATOM      6  C   UNL     1      -3.682  11.522  18.003  0.00  0.00    +0.000 C 
ATOM      7  C   UNL     1      -3.441  10.095  17.483  0.00  0.00    +0.000 C 
ATOM      8  C   UNL     1      -1.925   9.940  17.310  0.00  0.00    +0.000 C 
ATOM      9  C   UNL     1      -1.407  10.844  18.390  0.00  0.00    +0.000 A 
ATOM     10  C   UNL     1      -0.143  10.870  18.982  0.00  0.00    +0.000 A 
ATOM     11  C   UNL     1       0.083  11.815  19.996  0.00  0.00    +0.000 A 
ATOM     12  C   UNL     1      -0.906  12.744  20.354  0.00  0.00    +0.000 A 
ATOM     13  C   UNL     1      -2.152  12.730  19.727  0.00  0.00    +0.000 A 
ATOM     14  C   UNL     1      -2.406  11.757  18.773  0.00  0.00    +0.000 A 
BRANCH   6  15
ATOM     15  O   UNL     1      -4.804  11.581  18.891  0.00  0.00    +0.000 OA
BRANCH  15  17
ATOM     16  C   UNL     1      -6.545  12.347  17.508  0.00  0.00    +0.000 C 
ATOM     17  C   UNL     1      -5.655  12.620  18.688  0.00  0.00    +0.000 C 
ATOM     18  O   UNL     1      -5.731  13.623  19.385  0.00  0.00    +0.000 OA
ENDBRANCH  15  17
ENDBRANCH   6  15
ENDBRANCH   1  10
BRANCH   4  19
ATOM     19  C   UNL     1       2.833   6.991  18.675  0.00  0.00    +0.000 A 
ATOM     20  C   UNL     1       2.582   6.127  19.742  0.00  0.00    +0.000 A 
ATOM     21  C   UNL     1       3.297   4.931  19.869  0.00  0.00    +0.000 A 
ATOM     22  C   UNL     1       4.272   4.549  18.931  0.00  0.00    +0.000 A 
ATOM     23  C   UNL     1       4.523   5.403  17.848  0.00  0.00    +0.000 A 
ATOM     24  C   UNL     1       3.804   6.605  17.729  0.00  0.00    +0.000 A 
BRANCH  23  25
ATOM     25  C   UNL     1       5.496   5.158  16.826  0.00  0.00    +0.000 C 
ATOM     26  N   UNL     1       6.274   4.902  16.002  0.00  0.00    +0.000 NA
ENDBRANCH  23  25
BRANCH  22  27
ATOM     27  O   UNL     1       4.911   3.392  19.287  0.00  0.00    +0.000 OA
BRANCH  27  28
ATOM     28  C   UNL     1       4.174   2.263  19.762  0.00  0.00    +0.000 C 
ATOM     29  C   UNL     1       3.741   1.422  18.564  0.00  0.00    +0.000 C 
ATOM     30  C   UNL     1       5.090   1.440  20.666  0.00  0.00    +0.000 C 
ENDBRANCH  27  28
ENDBRANCH  22  27
ENDBRANCH   4  19
TORSDOF 7
ENDMDL
MODEL 5
REMARK VINA RESULT:      -7.9      6.169      8.266
REMARK  Name = 
REMARK  10 active torsions:
REMARK  status: ('A' for Active; 'I' for Inactive)
REMARK    1  A    between atoms: C_1  and  C_2
REMARK    2  A    between atoms: C_2  and  O_4
REMARK    3  A    between atoms: O_4  and  C_5
REMARK    4  A    between atoms: C_9  and  C_10
REMARK    5  A    between atoms: C_13  and  C_14
REMARK    6  A    between atoms: C_17  and  O_18
REMARK    7  A    between atoms: O_18  and  C_19
REMARK    8  A    between atoms: C_19  and  C_20
REMARK    9  A    between atoms: C_19  and  C_21
REMARK   10  A    between atoms: C_22  and  C_23
REMARK                            x       y       z     vdW  Elec       q    Type
REMARK                         _______ _______ _______ _____ _____    ______ ____
ROOT
ATOM      1  C   UNL     1       7.479   7.273  17.682  0.00  0.00    +0.000 A 
ATOM      2  N   UNL     1       8.257   7.015  18.747  0.00  0.00    +0.000 NA
ATOM      3  O   UNL     1       8.890   8.231  18.995  0.00  0.00    +0.000 OA
ATOM      4  C   UNL     1       8.421   9.112  18.063  0.00  0.00    +0.000 A 
ATOM      5  N   UNL     1       7.551   8.574  17.238  0.00  0.00    +0.000 NA
ENDROOT
BRANCH   1  10
ATOM      6  C   UNL     1       4.298   3.593  18.220  0.00  0.00    +0.000 C 
ATOM      7  C   UNL     1       4.420   4.492  19.462  0.00  0.00    +0.000 C 
ATOM      8  C   UNL     1       5.733   5.270  19.313  0.00  0.00    +0.000 C 
ATOM      9  C   UNL     1       5.839   5.396  17.820  0.00  0.00    +0.000 A 
ATOM     10  C   UNL     1       6.602   6.290  17.067  0.00  0.00    +0.000 A 
ATOM     11  C   UNL     1       6.508   6.208  15.668  0.00  0.00    +0.000 A 
ATOM     12  C   UNL     1       5.726   5.220  15.051  0.00  0.00    +0.000 A 
ATOM     13  C   UNL     1       4.997   4.310  15.818  0.00  0.00    +0.000 A 
ATOM     14  C   UNL     1       5.032   4.427  17.199  0.00  0.00    +0.000 A 
BRANCH   6  15
ATOM     15  O   UNL     1       2.934   3.423  17.819  0.00  0.00    +0.000 OA
BRANCH  15  17
ATOM     16  C   UNL     1       0.845   2.742  18.658  0.00  0.00    +0.000 C 
ATOM     17  C   UNL     1       2.281   2.381  18.396  0.00  0.00    +0.000 C 
ATOM     18  O   UNL     1       2.764   1.283  18.633  0.00  0.00    +0.000 OA
ENDBRANCH  15  17
ENDBRANCH   6  15
ENDBRANCH   1  10
BRANCH   4  19
ATOM     19  C   UNL     1       8.916  10.477  18.123  0.00  0.00    +0.000 A 
ATOM     20  C   UNL     1      10.232  10.786  18.468  0.00  0.00    +0.000 A 
ATOM     21  C   UNL     1      10.648  12.120  18.549  0.00  0.00    +0.000 A 
ATOM     22  C   UNL     1       9.773  13.185  18.276  0.00  0.00    +0.000 A 
ATOM     23  C   UNL     1       8.453  12.886  17.915  0.00  0.00    +0.000 A 
ATOM     24  C   UNL     1       8.040  11.544  17.839  0.00  0.00    +0.000 A 
BRANCH  23  25
ATOM     25  C   UNL     1       7.446  13.862  17.626  0.00  0.00    +0.000 C 
ATOM     26  N   UNL     1       6.593  14.610  17.374  0.00  0.00    +0.000 NA
ENDBRANCH  23  25
BRANCH  22  27
ATOM     27  O   UNL     1      10.354  14.405  18.498  0.00  0.00    +0.000 OA
BRANCH  27  28
ATOM     28  C   UNL     1      10.747  15.241  17.406  0.00  0.00    +0.000 C 
ATOM     29  C   UNL     1      10.318  16.674  17.708  0.00  0.00    +0.000 C 
ATOM     30  C   UNL     1      12.267  15.174  17.276  0.00  0.00    +0.000 C 
ENDBRANCH  27  28
ENDBRANCH  22  27
ENDBRANCH   4  19
TORSDOF 7
ENDMDL
MODEL 6
REMARK VINA RESULT:      -7.8      3.622      5.009
REMARK  Name = 
REMARK  10 active torsions:
REMARK  status: ('A' for Active; 'I' for Inactive)
REMARK    1  A    between atoms: C_1  and  C_2
REMARK    2  A    between atoms: C_2  and  O_4
REMARK    3  A    between atoms: O_4  and  C_5
REMARK    4  A    between atoms: C_9  and  C_10
REMARK    5  A    between atoms: C_13  and  C_14
REMARK    6  A    between atoms: C_17  and  O_18
REMARK    7  A    between atoms: O_18  and  C_19
REMARK    8  A    between atoms: C_19  and  C_20
REMARK    9  A    between atoms: C_19  and  C_21
REMARK   10  A    between atoms: C_22  and  C_23
REMARK                            x       y       z     vdW  Elec       q    Type
REMARK                         _______ _______ _______ _____ _____    ______ ____
ROOT
ATOM      1  C   UNL     1       1.467   8.679  18.738  0.00  0.00    +0.000 A 
ATOM      2  N   UNL     1       1.387   9.433  19.847  0.00  0.00    +0.000 NA
ATOM      3  O   UNL     1       0.234  10.191  19.647  0.00  0.00    +0.000 OA
ATOM      4  C   UNL     1      -0.278   9.810  18.441  0.00  0.00    +0.000 A 
ATOM      5  N   UNL     1       0.438   8.883  17.846  0.00  0.00    +0.000 NA
ENDROOT
BRANCH   1  10
ATOM      6  C   UNL     1       3.616   4.467  20.001  0.00  0.00    +0.000 C 
ATOM      7  C   UNL     1       2.154   4.581  20.467  0.00  0.00    +0.000 C 
ATOM      8  C   UNL     1       1.791   6.070  20.412  0.00  0.00    +0.000 C 
ATOM      9  C   UNL     1       2.647   6.546  19.275  0.00  0.00    +0.000 A 
ATOM     10  C   UNL     1       2.517   7.701  18.502  0.00  0.00    +0.000 A 
ATOM     11  C   UNL     1       3.453   7.906  17.475  0.00  0.00    +0.000 A 
ATOM     12  C   UNL     1       4.518   7.015  17.276  0.00  0.00    +0.000 A 
ATOM     13  C   UNL     1       4.655   5.883  18.080  0.00  0.00    +0.000 A 
ATOM     14  C   UNL     1       3.697   5.638  19.053  0.00  0.00    +0.000 A 
BRANCH   6  15
ATOM     15  O   UNL     1       3.853   3.247  19.289  0.00  0.00    +0.000 OA
BRANCH  15  17
ATOM     16  C   UNL     1       2.578   3.018  17.326  0.00  0.00    +0.000 C 
ATOM     17  C   UNL     1       2.749   2.648  18.773  0.00  0.00    +0.000 C 
ATOM     18  O   UNL     1       2.013   1.877  19.373  0.00  0.00    +0.000 OA
ENDBRANCH  15  17
ENDBRANCH   6  15
ENDBRANCH   1  10
BRANCH   4  19
ATOM     19  C   UNL     1      -1.512  10.444  18.007  0.00  0.00    +0.000 A 
ATOM     20  C   UNL     1      -2.231  11.324  18.816  0.00  0.00    +0.000 A 
ATOM     21  C   UNL     1      -3.434  11.878  18.366  0.00  0.00    +0.000 A 
ATOM     22  C   UNL     1      -3.952  11.585  17.092  0.00  0.00    +0.000 A 
ATOM     23  C   UNL     1      -3.231  10.714  16.266  0.00  0.00    +0.000 A 
ATOM     24  C   UNL     1      -2.024  10.157  16.726  0.00  0.00    +0.000 A 
BRANCH  23  25
ATOM     25  C   UNL     1      -3.639  10.310  14.954  0.00  0.00    +0.000 C 
ATOM     26  N   UNL     1      -3.994   9.934  13.913  0.00  0.00    +0.000 NA
ENDBRANCH  23  25
BRANCH  22  27
ATOM     27  O   UNL     1      -5.177  12.159  16.885  0.00  0.00    +0.000 OA
BRANCH  27  28
ATOM     28  C   UNL     1      -6.104  12.321  17.962  0.00  0.00    +0.000 C 
ATOM     29  C   UNL     1      -7.200  13.288  17.522  0.00  0.00    +0.000 C 
ATOM     30  C   UNL     1      -6.715  10.957  18.276  0.00  0.00    +0.000 C 
ENDBRANCH  27  28
ENDBRANCH  22  27
ENDBRANCH   4  19
TORSDOF 7
ENDMDL
MODEL 7
REMARK VINA RESULT:      -7.8      1.864     10.376
REMARK  Name = 
REMARK  10 active torsions:
REMARK  status: ('A' for Active; 'I' for Inactive)
REMARK    1  A    between atoms: C_1  and  C_2
REMARK    2  A    between atoms: C_2  and  O_4
REMARK    3  A    between atoms: O_4  and  C_5
REMARK    4  A    between atoms: C_9  and  C_10
REMARK    5  A    between atoms: C_13  and  C_14
REMARK    6  A    between atoms: C_17  and  O_18
REMARK    7  A    between atoms: O_18  and  C_19
REMARK    8  A    between atoms: C_19  and  C_20
REMARK    9  A    between atoms: C_19  and  C_21
REMARK   10  A    between atoms: C_22  and  C_23
REMARK                            x       y       z     vdW  Elec       q    Type
REMARK                         _______ _______ _______ _____ _____    ______ ____
ROOT
ATOM      1  C   UNL     1       0.994   9.345  19.742  0.00  0.00    +0.000 A 
ATOM      2  N   UNL     1       1.022   9.997  18.567  0.00  0.00    +0.000 NA
ATOM      3  O   UNL     1       1.824   9.189  17.762  0.00  0.00    +0.000 OA
ATOM      4  C   UNL     1       2.192   8.119  18.527  0.00  0.00    +0.000 A 
ATOM      5  N   UNL     1       1.704   8.166  19.746  0.00  0.00    +0.000 NA
ENDROOT
BRANCH   1  10
ATOM      6  C   UNL     1      -2.150  12.556  21.683  0.00  0.00    +0.000 C 
ATOM      7  C   UNL     1      -2.250  12.439  20.153  0.00  0.00    +0.000 C 
ATOM      8  C   UNL     1      -0.948  11.784  19.676  0.00  0.00    +0.000 C 
ATOM      9  C   UNL     1      -0.604  10.911  20.849  0.00  0.00    +0.000 A 
ATOM     10  C   UNL     1       0.250   9.809  20.902  0.00  0.00    +0.000 A 
ATOM     11  C   UNL     1       0.385   9.149  22.135  0.00  0.00    +0.000 A 
ATOM     12  C   UNL     1      -0.265   9.622  23.285  0.00  0.00    +0.000 A 
ATOM     13  C   UNL     1      -1.087  10.747  23.223  0.00  0.00    +0.000 A 
ATOM     14  C   UNL     1      -1.279  11.364  21.996  0.00  0.00    +0.000 A 
BRANCH   6  15
ATOM     15  O   UNL     1      -3.427  12.404  22.312  0.00  0.00    +0.000 OA
BRANCH  15  17
ATOM     16  C   UNL     1      -2.971  13.977  24.000  0.00  0.00    +0.000 C 
ATOM     17  C   UNL     1      -3.913  13.515  22.923  0.00  0.00    +0.000 C 
ATOM     18  O   UNL     1      -4.946  14.098  22.621  0.00  0.00    +0.000 OA
ENDBRANCH  15  17
ENDBRANCH   6  15
ENDBRANCH   1  10
BRANCH   4  19
ATOM     19  C   UNL     1       3.022   7.104  17.903  0.00  0.00    +0.000 A 
ATOM     20  C   UNL     1       4.171   7.413  17.175  0.00  0.00    +0.000 A 
ATOM     21  C   UNL     1       4.915   6.400  16.560  0.00  0.00    +0.000 A 
ATOM     22  C   UNL     1       4.548   5.047  16.662  0.00  0.00    +0.000 A 
ATOM     23  C   UNL     1       3.403   4.724  17.402  0.00  0.00    +0.000 A 
ATOM     24  C   UNL     1       2.658   5.747  18.014  0.00  0.00    +0.000 A 
BRANCH  23  25
ATOM     25  C   UNL     1       2.896   3.396  17.580  0.00  0.00    +0.000 C 
ATOM     26  N   UNL     1       2.463   2.321  17.671  0.00  0.00    +0.000 NA
ENDBRANCH  23  25
BRANCH  22  27
ATOM     27  O   UNL     1       5.356   4.231  15.918  0.00  0.00    +0.000 OA
BRANCH  27  28
ATOM     28  C   UNL     1       5.962   4.701  14.710  0.00  0.00    +0.000 C 
ATOM     29  C   UNL     1       7.468   4.814  14.931  0.00  0.00    +0.000 C 
ATOM     30  C   UNL     1       5.677   3.685  13.606  0.00  0.00    +0.000 C 
ENDBRANCH  27  28
ENDBRANCH  22  27
ENDBRANCH   4  19
TORSDOF 7
ENDMDL
MODEL 8
REMARK VINA RESULT:      -7.8      3.053      9.872
REMARK  Name = 
REMARK  10 active torsions:
REMARK  status: ('A' for Active; 'I' for Inactive)
REMARK    1  A    between atoms: C_1  and  C_2
REMARK    2  A    between atoms: C_2  and  O_4
REMARK    3  A    between atoms: O_4  and  C_5
REMARK    4  A    between atoms: C_9  and  C_10
REMARK    5  A    between atoms: C_13  and  C_14
REMARK    6  A    between atoms: C_17  and  O_18
REMARK    7  A    between atoms: O_18  and  C_19
REMARK    8  A    between atoms: C_19  and  C_20
REMARK    9  A    between atoms: C_19  and  C_21
REMARK   10  A    between atoms: C_22  and  C_23
REMARK                            x       y       z     vdW  Elec       q    Type
REMARK                         _______ _______ _______ _____ _____    ______ ____
ROOT
ATOM      1  C   UNL     1       0.747  10.280  18.849  0.00  0.00    +0.000 A 
ATOM      2  N   UNL     1       1.701  10.667  17.985  0.00  0.00    +0.000 NA
ATOM      3  O   UNL     1       2.525   9.548  17.881  0.00  0.00    +0.000 OA
ATOM      4  C   UNL     1       1.980   8.586  18.683  0.00  0.00    +0.000 A 
ATOM      5  N   UNL     1       0.887   8.985  19.295  0.00  0.00    +0.000 NA
ENDROOT
BRANCH   1  10
ATOM      6  C   UNL     1      -3.916  11.636  18.244  0.00  0.00    +0.000 C 
ATOM      7  C   UNL     1      -3.605  10.229  17.704  0.00  0.00    +0.000 C 
ATOM      8  C   UNL     1      -2.082  10.146  17.547  0.00  0.00    +0.000 C 
ATOM      9  C   UNL     1      -1.617  11.055  18.648  0.00  0.00    +0.000 A 
ATOM     10  C   UNL     1      -0.362  11.127  19.256  0.00  0.00    +0.000 A 
ATOM     11  C   UNL     1      -0.191  12.064  20.288  0.00  0.00    +0.000 A 
ATOM     12  C   UNL     1      -1.225  12.942  20.648  0.00  0.00    +0.000 A 
ATOM     13  C   UNL     1      -2.462  12.883  20.006  0.00  0.00    +0.000 A 
ATOM     14  C   UNL     1      -2.661  11.915  19.033  0.00  0.00    +0.000 A 
BRANCH   6  15
ATOM     15  O   UNL     1      -5.050  11.630  19.119  0.00  0.00    +0.000 OA
BRANCH  15  17
ATOM     16  C   UNL     1      -6.873  10.157  19.309  0.00  0.00    +0.000 C 
ATOM     17  C   UNL     1      -6.229  11.281  18.545  0.00  0.00    +0.000 C 
ATOM     18  O   UNL     1      -6.734  11.823  17.571  0.00  0.00    +0.000 OA
ENDBRANCH  15  17
ENDBRANCH   6  15
ENDBRANCH   1  10
BRANCH   4  19
ATOM     19  C   UNL     1       2.647   7.297  18.731  0.00  0.00    +0.000 A 
ATOM     20  C   UNL     1       3.609   6.911  17.797  0.00  0.00    +0.000 A 
ATOM     21  C   UNL     1       4.194   5.642  17.865  0.00  0.00    +0.000 A 
ATOM     22  C   UNL     1       3.852   4.723  18.872  0.00  0.00    +0.000 A 
ATOM     23  C   UNL     1       2.897   5.105  19.823  0.00  0.00    +0.000 A 
ATOM     24  C   UNL     1       2.310   6.380  19.747  0.00  0.00    +0.000 A 
BRANCH  23  25
ATOM     25  C   UNL     1       2.436   4.273  20.894  0.00  0.00    +0.000 C 
ATOM     26  N   UNL     1       2.112   3.568  21.759  0.00  0.00    +0.000 NA
ENDBRANCH  23  25
BRANCH  22  27
ATOM     27  O   UNL     1       4.473   3.515  18.705  0.00  0.00    +0.000 OA
BRANCH  27  28
ATOM     28  C   UNL     1       3.893   2.498  17.882  0.00  0.00    +0.000 C 
ATOM     29  C   UNL     1       3.654   1.256  18.735  0.00  0.00    +0.000 C 
ATOM     30  C   UNL     1       2.562   3.020  17.345  0.00  0.00    +0.000 C 
ENDBRANCH  27  28
ENDBRANCH  22  27
ENDBRANCH   4  19
TORSDOF 7
ENDMDL
MODEL 9
REMARK VINA RESULT:      -7.7      5.886      7.959
REMARK  Name = 
REMARK  10 active torsions:
REMARK  status: ('A' for Active; 'I' for Inactive)
REMARK    1  A    between atoms: C_1  and  C_2
REMARK    2  A    between atoms: C_2  and  O_4
REMARK    3  A    between atoms: O_4  and  C_5
REMARK    4  A    between atoms: C_9  and  C_10
REMARK    5  A    between atoms: C_13  and  C_14
REMARK    6  A    between atoms: C_17  and  O_18
REMARK    7  A    between atoms: O_18  and  C_19
REMARK    8  A    between atoms: C_19  and  C_20
REMARK    9  A    between atoms: C_19  and  C_21
REMARK   10  A    between atoms: C_22  and  C_23
REMARK                            x       y       z     vdW  Elec       q    Type
REMARK                         _______ _______ _______ _____ _____    ______ ____
ROOT
ATOM      1  C   UNL     1       7.457   7.239  17.689  0.00  0.00    +0.000 A 
ATOM      2  N   UNL     1       8.224   7.032  18.772  0.00  0.00    +0.000 NA
ATOM      3  O   UNL     1       8.856   8.259  18.967  0.00  0.00    +0.000 OA
ATOM      4  C   UNL     1       8.398   9.094  17.989  0.00  0.00    +0.000 A 
ATOM      5  N   UNL     1       7.535   8.517  17.183  0.00  0.00    +0.000 NA
ENDROOT
BRANCH   1  10
ATOM      6  C   UNL     1       3.932   3.904  18.329  0.00  0.00    +0.000 C 
ATOM      7  C   UNL     1       3.971   4.982  19.425  0.00  0.00    +0.000 C 
ATOM      8  C   UNL     1       5.354   5.641  19.344  0.00  0.00    +0.000 C 
ATOM      9  C   UNL     1       5.659   5.518  17.880  0.00  0.00    +0.000 A 
ATOM     10  C   UNL     1       6.585   6.227  17.114  0.00  0.00    +0.000 A 
ATOM     11  C   UNL     1       6.663   5.928  15.743  0.00  0.00    +0.000 A 
ATOM     12  C   UNL     1       5.885   4.905  15.180  0.00  0.00    +0.000 A 
ATOM     13  C   UNL     1       4.990   4.179  15.967  0.00  0.00    +0.000 A 
ATOM     14  C   UNL     1       4.858   4.515  17.306  0.00  0.00    +0.000 A 
BRANCH   6  15
ATOM     15  O   UNL     1       2.620   3.760  17.772  0.00  0.00    +0.000 OA
BRANCH  15  17
ATOM     16  C   UNL     1       2.913   1.530  18.459  0.00  0.00    +0.000 C 
ATOM     17  C   UNL     1       1.949   2.640  18.144  0.00  0.00    +0.000 C 
ATOM     18  O   UNL     1       0.734   2.544  18.256  0.00  0.00    +0.000 OA
ENDBRANCH  15  17
ENDBRANCH   6  15
ENDBRANCH   1  10
BRANCH   4  19
ATOM     19  C   UNL     1       8.893  10.459  17.988  0.00  0.00    +0.000 A 
ATOM     20  C   UNL     1      10.238  10.773  18.182  0.00  0.00    +0.000 A 
ATOM     21  C   UNL     1      10.658  12.107  18.211  0.00  0.00    +0.000 A 
ATOM     22  C   UNL     1       9.756  13.170  18.033  0.00  0.00    +0.000 A 
ATOM     23  C   UNL     1       8.404  12.866  17.823  0.00  0.00    +0.000 A 
ATOM     24  C   UNL     1       7.989  11.524  17.800  0.00  0.00    +0.000 A 
BRANCH  23  25
ATOM     25  C   UNL     1       7.369  13.840  17.644  0.00  0.00    +0.000 C 
ATOM     26  N   UNL     1       6.567  14.671  17.516  0.00  0.00    +0.000 NA
ENDBRANCH  23  25
BRANCH  22  27
ATOM     27  O   UNL     1      10.356  14.391  18.183  0.00  0.00    +0.000 OA
BRANCH  27  28
ATOM     28  C   UNL     1      10.417  15.027  19.463  0.00  0.00    +0.000 C 
ATOM     29  C   UNL     1       9.496  16.243  19.450  0.00  0.00    +0.000 C 
ATOM     30  C   UNL     1       9.939  14.029  20.515  0.00  0.00    +0.000 C 
ENDBRANCH  27  28
ENDBRANCH  22  27
ENDBRANCH   4  19
TORSDOF 7
ENDMDL
