MODEL 1
REMARK VINA RESULT:      -8.2      0.000      0.000
REMARK  Name = 
REMARK  1 active torsions:
REMARK  status: ('A' for Active; 'I' for Inactive)
REMARK    1  A    between atoms: C_5  and  C_6
REMARK                            x       y       z     vdW  Elec       q    Type
REMARK                         _______ _______ _______ _____ _____    ______ ____
ROOT
ATOM      1  C   UNL     1       4.933   4.907  16.005  0.00  0.00    +0.000 A 
ATOM      2  N   UNL     1       4.263   3.953  16.625  0.00  0.00    +0.000 NA
ATOM      3  C   UNL     1       3.579   4.567  17.660  0.00  0.00    +0.000 A 
ATOM      4  C   UNL     1       3.814   5.936  17.643  0.00  0.00    +0.000 A 
ATOM      5  C   UNL     1       3.248   6.833  18.548  0.00  0.00    +0.000 A 
ATOM      6  C   UNL     1       2.406   6.293  19.528  0.00  0.00    +0.000 A 
ATOM      7  C   UNL     1       2.144   4.915  19.603  0.00  0.00    +0.000 A 
ATOM      8  C   UNL     1       1.307   4.385  20.597  0.00  0.00    +0.000 A 
ATOM      9  C   UNL     1       1.062   3.010  20.666  0.00  0.00    +0.000 A 
ATOM     10  C   UNL     1       1.647   2.143  19.741  0.00  0.00    +0.000 A 
ATOM     11  C   UNL     1       2.478   2.646  18.741  0.00  0.00    +0.000 A 
ATOM     12  C   UNL     1       2.732   4.030  18.665  0.00  0.00    +0.000 A 
ATOM     13  N   UNL     1       4.669   6.123  16.591  0.00  0.00    +0.000 N 
ATOM     14  H   UNL     1       5.034   7.011  16.284  0.00  0.00    +0.000 HD
ENDROOT
BRANCH   1  19
ATOM     15  C   UNL     1       6.381   3.785  12.708  0.00  0.00    +0.000 A 
ATOM     16  C   UNL     1       7.550   4.526  12.731  0.00  0.00    +0.000 A 
ATOM     17  N   UNL     1       7.886   5.361  13.736  0.00  0.00    +0.000 NA
ATOM     18  C   UNL     1       7.006   5.464  14.765  0.00  0.00    +0.000 A 
ATOM     19  C   UNL     1       5.812   4.755  14.850  0.00  0.00    +0.000 A 
ATOM     20  C   UNL     1       5.503   3.902  13.785  0.00  0.00    +0.000 A 
ENDBRANCH   1  19
TORSDOF 1
ENDMDL
MODEL 2
REMARK VINA RESULT:      -8.0      0.957      2.374
REMARK  Name = 
REMARK  1 active torsions:
REMARK  status: ('A' for Active; 'I' for Inactive)
REMARK    1  A    between atoms: C_5  and  C_6
REMARK                            x       y       z     vdW  Elec       q    Type
REMARK                         _______ _______ _______ _____ _____    ______ ____
ROOT
ATOM      1  C   UNL     1       5.237   4.370  15.983  0.00  0.00    +0.000 A 
ATOM      2  N   UNL     1       4.652   5.365  16.625  0.00  0.00    +0.000 NA
ATOM      3  C   UNL     1       4.019   4.803  17.720  0.00  0.00    +0.000 A 
ATOM      4  C   UNL     1       4.258   3.435  17.761  0.00  0.00    +0.000 A 
ATOM      5  C   UNL     1       3.772   2.592  18.758  0.00  0.00    +0.000 A 
ATOM      6  C   UNL     1       2.991   3.183  19.759  0.00  0.00    +0.000 A 
ATOM      7  C   UNL     1       2.704   4.557  19.761  0.00  0.00    +0.000 A 
ATOM      8  C   UNL     1       1.910   5.136  20.763  0.00  0.00    +0.000 A 
ATOM      9  C   UNL     1       1.625   6.504  20.747  0.00  0.00    +0.000 A 
ATOM     10  C   UNL     1       2.130   7.318  19.732  0.00  0.00    +0.000 A 
ATOM     11  C   UNL     1       2.926   6.768  18.727  0.00  0.00    +0.000 A 
ATOM     12  C   UNL     1       3.217   5.389  18.734  0.00  0.00    +0.000 A 
ATOM     13  N   UNL     1       5.028   3.189  16.657  0.00  0.00    +0.000 N 
ATOM     14  H   UNL     1       5.396   2.290  16.388  0.00  0.00    +0.000 HD
ENDROOT
BRANCH   1  19
ATOM     15  C   UNL     1       6.503   3.819  12.472  0.00  0.00    +0.000 A 
ATOM     16  C   UNL     1       7.585   4.681  12.504  0.00  0.00    +0.000 A 
ATOM     17  N   UNL     1       7.918   5.424  13.580  0.00  0.00    +0.000 NA
ATOM     18  C   UNL     1       7.125   5.303  14.676  0.00  0.00    +0.000 A 
ATOM     19  C   UNL     1       6.023   4.457  14.757  0.00  0.00    +0.000 A 
ATOM     20  C   UNL     1       5.714   3.706  13.617  0.00  0.00    +0.000 A 
ENDBRANCH   1  19
TORSDOF 1
ENDMDL
MODEL 3
REMARK VINA RESULT:      -7.7      3.510      7.485
REMARK  Name = 
REMARK  1 active torsions:
REMARK  status: ('A' for Active; 'I' for Inactive)
REMARK    1  A    between atoms: C_5  and  C_6
REMARK                            x       y       z     vdW  Elec       q    Type
REMARK                         _______ _______ _______ _____ _____    ______ ____
ROOT
ATOM      1  C   UNL     1       1.741   7.718  20.272  0.00  0.00    +0.000 A 
ATOM      2  N   UNL     1       2.447   7.770  19.157  0.00  0.00    +0.000 NA
ATOM      3  C   UNL     1       2.958   6.499  18.960  0.00  0.00    +0.000 A 
ATOM      4  C   UNL     1       2.520   5.646  19.966  0.00  0.00    +0.000 A 
ATOM      5  C   UNL     1       2.848   4.293  20.033  0.00  0.00    +0.000 A 
ATOM      6  C   UNL     1       3.677   3.793  19.023  0.00  0.00    +0.000 A 
ATOM      7  C   UNL     1       4.164   4.612  17.990  0.00  0.00    +0.000 A 
ATOM      8  C   UNL     1       5.005   4.102  16.989  0.00  0.00    +0.000 A 
ATOM      9  C   UNL     1       5.488   4.930  15.972  0.00  0.00    +0.000 A 
ATOM     10  C   UNL     1       5.138   6.281  15.937  0.00  0.00    +0.000 A 
ATOM     11  C   UNL     1       4.299   6.810  16.917  0.00  0.00    +0.000 A 
ATOM     12  C   UNL     1       3.809   5.984  17.947  0.00  0.00    +0.000 A 
ATOM     13  N   UNL     1       1.755   6.439  20.777  0.00  0.00    +0.000 N 
ATOM     14  H   UNL     1       1.266   6.131  21.603  0.00  0.00    +0.000 HD
ENDROOT
BRANCH   1  19
ATOM     15  C   UNL     1      -0.481  10.715  20.822  0.00  0.00    +0.000 A 
ATOM     16  C   UNL     1      -0.300  10.862  22.186  0.00  0.00    +0.000 A 
ATOM     17  N   UNL     1       0.484  10.051  22.927  0.00  0.00    +0.000 NA
ATOM     18  C   UNL     1       1.113   9.042  22.271  0.00  0.00    +0.000 A 
ATOM     19  C   UNL     1       1.012   8.813  20.902  0.00  0.00    +0.000 A 
ATOM     20  C   UNL     1       0.186   9.677  20.174  0.00  0.00    +0.000 A 
ENDBRANCH   1  19
TORSDOF 1
ENDMDL
MODEL 4
REMARK VINA RESULT:      -7.7      0.807      1.174
REMARK  Name = 
REMARK  1 active torsions:
REMARK  status: ('A' for Active; 'I' for Inactive)
REMARK    1  A    between atoms: C_5  and  C_6
REMARK                            x       y       z     vdW  Elec       q    Type
REMARK                         _______ _______ _______ _____ _____    ______ ____
ROOT
ATOM      1  C   UNL     1       4.990   4.701  15.719  0.00  0.00    +0.000 A 
ATOM      2  N   UNL     1       4.253   3.788  16.325  0.00  0.00    +0.000 NA
ATOM      3  C   UNL     1       3.681   4.413  17.419  0.00  0.00    +0.000 A 
ATOM      4  C   UNL     1       4.054   5.751  17.455  0.00  0.00    +0.000 A 
ATOM      5  C   UNL     1       3.623   6.652  18.427  0.00  0.00    +0.000 A 
ATOM      6  C   UNL     1       2.773   6.150  19.419  0.00  0.00    +0.000 A 
ATOM      7  C   UNL     1       2.374   4.803  19.443  0.00  0.00    +0.000 A 
ATOM      8  C   UNL     1       1.530   4.309  20.450  0.00  0.00    +0.000 A 
ATOM      9  C   UNL     1       1.149   2.964  20.465  0.00  0.00    +0.000 A 
ATOM     10  C   UNL     1       1.601   2.092  19.474  0.00  0.00    +0.000 A 
ATOM     11  C   UNL     1       2.435   2.560  18.459  0.00  0.00    +0.000 A 
ATOM     12  C   UNL     1       2.827   3.913  18.437  0.00  0.00    +0.000 A 
ATOM     13  N   UNL     1       4.878   5.905  16.373  0.00  0.00    +0.000 N 
ATOM     14  H   UNL     1       5.319   6.767  16.091  0.00  0.00    +0.000 HD
ENDROOT
BRANCH   1  19
ATOM     15  C   UNL     1       7.750   4.980  13.162  0.00  0.00    +0.000 A 
ATOM     16  C   UNL     1       7.232   4.128  12.202  0.00  0.00    +0.000 A 
ATOM     17  N   UNL     1       6.059   3.473  12.340  0.00  0.00    +0.000 NA
ATOM     18  C   UNL     1       5.377   3.676  13.495  0.00  0.00    +0.000 A 
ATOM     19  C   UNL     1       5.798   4.521  14.517  0.00  0.00    +0.000 A 
ATOM     20  C   UNL     1       7.020   5.179  14.334  0.00  0.00    +0.000 A 
ENDBRANCH   1  19
TORSDOF 1
ENDMDL
MODEL 5
REMARK VINA RESULT:      -7.6      3.385      7.452
REMARK  Name = 
REMARK  1 active torsions:
REMARK  status: ('A' for Active; 'I' for Inactive)
REMARK    1  A    between atoms: C_5  and  C_6
REMARK                            x       y       z     vdW  Elec       q    Type
REMARK                         _______ _______ _______ _____ _____    ______ ____
ROOT
ATOM      1  C   UNL     1       1.774   7.660  20.222  0.00  0.00    +0.000 A 
ATOM      2  N   UNL     1       2.475   7.709  19.104  0.00  0.00    +0.000 NA
ATOM      3  C   UNL     1       3.007   6.444  18.921  0.00  0.00    +0.000 A 
ATOM      4  C   UNL     1       2.585   5.597  19.939  0.00  0.00    +0.000 A 
ATOM      5  C   UNL     1       2.936   4.251  20.023  0.00  0.00    +0.000 A 
ATOM      6  C   UNL     1       3.770   3.752  19.015  0.00  0.00    +0.000 A 
ATOM      7  C   UNL     1       4.240   4.565  17.971  0.00  0.00    +0.000 A 
ATOM      8  C   UNL     1       5.087   4.057  16.974  0.00  0.00    +0.000 A 
ATOM      9  C   UNL     1       5.553   4.880  15.945  0.00  0.00    +0.000 A 
ATOM     10  C   UNL     1       5.181   6.224  15.894  0.00  0.00    +0.000 A 
ATOM     11  C   UNL     1       4.336   6.752  16.870  0.00  0.00    +0.000 A 
ATOM     12  C   UNL     1       3.863   5.930  17.911  0.00  0.00    +0.000 A 
ATOM     13  N   UNL     1       1.810   6.388  20.742  0.00  0.00    +0.000 N 
ATOM     14  H   UNL     1       1.328   6.083  21.574  0.00  0.00    +0.000 HD
ENDROOT
BRANCH   1  19
ATOM     15  C   UNL     1      -0.018   9.820  22.741  0.00  0.00    +0.000 A 
ATOM     16  C   UNL     1      -0.400  10.850  21.899  0.00  0.00    +0.000 A 
ATOM     17  N   UNL     1      -0.107  10.885  20.582  0.00  0.00    +0.000 NA
ATOM     18  C   UNL     1       0.608   9.843  20.086  0.00  0.00    +0.000 A 
ATOM     19  C   UNL     1       1.029   8.751  20.840  0.00  0.00    +0.000 A 
ATOM     20  C   UNL     1       0.705   8.757  22.201  0.00  0.00    +0.000 A 
ENDBRANCH   1  19
TORSDOF 1
ENDMDL
MODEL 6
REMARK VINA RESULT:      -7.5      4.076      7.625
REMARK  Name = 
REMARK  1 active torsions:
REMARK  status: ('A' for Active; 'I' for Inactive)
REMARK    1  A    between atoms: C_5  and  C_6
REMARK                            x       y       z     vdW  Elec       q    Type
REMARK                         _______ _______ _______ _____ _____    ______ ____
ROOT
ATOM      1  C   UNL     1       1.174   8.468  20.750  0.00  0.00    +0.000 A 
ATOM      2  N   UNL     1       1.331   7.226  21.173  0.00  0.00    +0.000 NA
ATOM      3  C   UNL     1       2.024   6.560  20.177  0.00  0.00    +0.000 A 
ATOM      4  C   UNL     1       2.326   7.433  19.139  0.00  0.00    +0.000 A 
ATOM      5  C   UNL     1       3.038   7.066  17.998  0.00  0.00    +0.000 A 
ATOM      6  C   UNL     1       3.451   5.731  17.915  0.00  0.00    +0.000 A 
ATOM      7  C   UNL     1       3.160   4.800  18.925  0.00  0.00    +0.000 A 
ATOM      8  C   UNL     1       3.569   3.461  18.824  0.00  0.00    +0.000 A 
ATOM      9  C   UNL     1       3.265   2.544  19.834  0.00  0.00    +0.000 A 
ATOM     10  C   UNL     1       2.550   2.949  20.962  0.00  0.00    +0.000 A 
ATOM     11  C   UNL     1       2.138   4.275  21.089  0.00  0.00    +0.000 A 
ATOM     12  C   UNL     1       2.437   5.206  20.075  0.00  0.00    +0.000 A 
ATOM     13  N   UNL     1       1.781   8.627  19.526  0.00  0.00    +0.000 N 
ATOM     14  H   UNL     1       1.830   9.489  19.007  0.00  0.00    +0.000 HD
ENDROOT
BRANCH   1  19
ATOM     15  C   UNL     1      -1.004  10.397  23.150  0.00  0.00    +0.000 A 
ATOM     16  C   UNL     1      -0.749  11.675  22.682  0.00  0.00    +0.000 A 
ATOM     17  N   UNL     1       0.082  11.941  21.652  0.00  0.00    +0.000 NA
ATOM     18  C   UNL     1       0.692  10.878  21.068  0.00  0.00    +0.000 A 
ATOM     19  C   UNL     1       0.496   9.554  21.449  0.00  0.00    +0.000 A 
ATOM     20  C   UNL     1      -0.372   9.325  22.522  0.00  0.00    +0.000 A 
ENDBRANCH   1  19
TORSDOF 1
ENDMDL
MODEL 7
REMARK VINA RESULT:      -7.5      4.122      7.609
REMARK  Name = 
REMARK  1 active torsions:
REMARK  status: ('A' for Active; 'I' for Inactive)
REMARK    1  A    between atoms: C_5  and  C_6
REMARK                            x       y       z     vdW  Elec       q    Type
REMARK                         _______ _______ _______ _____ _____    ______ ____
ROOT
ATOM      1  C   UNL     1       1.138   8.433  20.646  0.00  0.00    +0.000 A 
ATOM      2  N   UNL     1       1.309   7.202  21.095  0.00  0.00    +0.000 NA
ATOM      3  C   UNL     1       2.049   6.536  20.133  0.00  0.00    +0.000 A 
ATOM      4  C   UNL     1       2.365   7.399  19.090  0.00  0.00    +0.000 A 
ATOM      5  C   UNL     1       3.121   7.030  17.979  0.00  0.00    +0.000 A 
ATOM      6  C   UNL     1       3.566   5.704  17.932  0.00  0.00    +0.000 A 
ATOM      7  C   UNL     1       3.265   4.783  18.948  0.00  0.00    +0.000 A 
ATOM      8  C   UNL     1       3.706   3.452  18.883  0.00  0.00    +0.000 A 
ATOM      9  C   UNL     1       3.391   2.545  19.898  0.00  0.00    +0.000 A 
ATOM     10  C   UNL     1       2.631   2.951  20.996  0.00  0.00    +0.000 A 
ATOM     11  C   UNL     1       2.185   4.269  21.087  0.00  0.00    +0.000 A 
ATOM     12  C   UNL     1       2.496   5.190  20.068  0.00  0.00    +0.000 A 
ATOM     13  N   UNL     1       1.780   8.586  19.440  0.00  0.00    +0.000 N 
ATOM     14  H   UNL     1       1.826   9.441  18.907  0.00  0.00    +0.000 HD
ENDROOT
BRANCH   1  19
ATOM     15  C   UNL     1      -0.806  11.603  21.271  0.00  0.00    +0.000 A 
ATOM     16  C   UNL     1      -0.916  11.513  22.648  0.00  0.00    +0.000 A 
ATOM     17  N   UNL     1      -0.408  10.494  23.372  0.00  0.00    +0.000 NA
ATOM     18  C   UNL     1       0.234   9.515  22.685  0.00  0.00    +0.000 A 
ATOM     19  C   UNL     1       0.414   9.514  21.305  0.00  0.00    +0.000 A 
ATOM     20  C   UNL     1      -0.131  10.590  20.593  0.00  0.00    +0.000 A 
ENDBRANCH   1  19
TORSDOF 1
ENDMDL
MODEL 8
REMARK VINA RESULT:      -7.5      1.978      6.679
REMARK  Name = 
REMARK  1 active torsions:
REMARK  status: ('A' for Active; 'I' for Inactive)
REMARK    1  A    between atoms: C_5  and  C_6
REMARK                            x       y       z     vdW  Elec       q    Type
REMARK                         _______ _______ _______ _____ _____    ______ ____
ROOT
ATOM      1  C   UNL     1       4.080   4.043  18.791  0.00  0.00    +0.000 A 
ATOM      2  N   UNL     1       4.199   3.671  17.530  0.00  0.00    +0.000 NA
ATOM      3  C   UNL     1       5.259   4.391  17.009  0.00  0.00    +0.000 A 
ATOM      4  C   UNL     1       5.821   5.196  17.993  0.00  0.00    +0.000 A 
ATOM      5  C   UNL     1       6.921   6.025  17.784  0.00  0.00    +0.000 A 
ATOM      6  C   UNL     1       7.465   6.038  16.494  0.00  0.00    +0.000 A 
ATOM      7  C   UNL     1       6.930   5.258  15.455  0.00  0.00    +0.000 A 
ATOM      8  C   UNL     1       7.477   5.288  14.163  0.00  0.00    +0.000 A 
ATOM      9  C   UNL     1       6.929   4.513  13.138  0.00  0.00    +0.000 A 
ATOM     10  C   UNL     1       5.827   3.693  13.385  0.00  0.00    +0.000 A 
ATOM     11  C   UNL     1       5.269   3.642  14.662  0.00  0.00    +0.000 A 
ATOM     12  C   UNL     1       5.813   4.421  15.701  0.00  0.00    +0.000 A 
ATOM     13  N   UNL     1       5.060   4.956  19.105  0.00  0.00    +0.000 N 
ATOM     14  H   UNL     1       5.204   5.370  20.013  0.00  0.00    +0.000 HD
ENDROOT
BRANCH   1  19
ATOM     15  C   UNL     1       0.824   3.305  20.546  0.00  0.00    +0.000 A 
ATOM     16  C   UNL     1       1.329   2.651  21.656  0.00  0.00    +0.000 A 
ATOM     17  N   UNL     1       2.645   2.434  21.861  0.00  0.00    +0.000 NA
ATOM     18  C   UNL     1       3.496   2.887  20.904  0.00  0.00    +0.000 A 
ATOM     19  C   UNL     1       3.097   3.569  19.759  0.00  0.00    +0.000 A 
ATOM     20  C   UNL     1       1.723   3.770  19.587  0.00  0.00    +0.000 A 
ENDBRANCH   1  19
TORSDOF 1
ENDMDL
MODEL 9
REMARK VINA RESULT:      -7.4      1.808      3.362
REMARK  Name = 
REMARK  1 active torsions:
REMARK  status: ('A' for Active; 'I' for Inactive)
REMARK    1  A    between atoms: C_5  and  C_6
REMARK                            x       y       z     vdW  Elec       q    Type
REMARK                         _______ _______ _______ _____ _____    ______ ____
ROOT
ATOM      1  C   UNL     1       4.506   5.606  17.250  0.00  0.00    +0.000 A 
ATOM      2  N   UNL     1       3.893   6.763  17.421  0.00  0.00    +0.000 NA
ATOM      3  C   UNL     1       3.128   6.633  18.567  0.00  0.00    +0.000 A 
ATOM      4  C   UNL     1       3.312   5.374  19.124  0.00  0.00    +0.000 A 
ATOM      5  C   UNL     1       2.693   4.946  20.298  0.00  0.00    +0.000 A 
ATOM      6  C   UNL     1       1.833   5.855  20.924  0.00  0.00    +0.000 A 
ATOM      7  C   UNL     1       1.596   7.136  20.399  0.00  0.00    +0.000 A 
ATOM      8  C   UNL     1       0.722   8.034  21.030  0.00  0.00    +0.000 A 
ATOM      9  C   UNL     1       0.490   9.303  20.491  0.00  0.00    +0.000 A 
ATOM     10  C   UNL     1       1.128   9.696  19.314  0.00  0.00    +0.000 A 
ATOM     11  C   UNL     1       2.005   8.824  18.671  0.00  0.00    +0.000 A 
ATOM     12  C   UNL     1       2.244   7.543  19.206  0.00  0.00    +0.000 A 
ATOM     13  N   UNL     1       4.185   4.749  18.276  0.00  0.00    +0.000 N 
ATOM     14  H   UNL     1       4.547   3.815  18.392  0.00  0.00    +0.000 HD
ENDROOT
BRANCH   1  19
ATOM     15  C   UNL     1       5.970   4.050  14.141  0.00  0.00    +0.000 A 
ATOM     16  C   UNL     1       7.229   4.622  14.195  0.00  0.00    +0.000 A 
ATOM     17  N   UNL     1       7.621   5.476  15.164  0.00  0.00    +0.000 NA
ATOM     18  C   UNL     1       6.706   5.776  16.121  0.00  0.00    +0.000 A 
ATOM     19  C   UNL     1       5.420   5.248  16.170  0.00  0.00    +0.000 A 
ATOM     20  C   UNL     1       5.055   4.368  15.145  0.00  0.00    +0.000 A 
ENDBRANCH   1  19
TORSDOF 1
ENDMDL
