MODEL 1
REMARK VINA RESULT:      -7.1      0.000      0.000
REMARK  Name = 
REMARK  6 active torsions:
REMARK  status: ('A' for Active; 'I' for Inactive)
REMARK    1  A    between atoms: C_1  and  S_2
REMARK    2  A    between atoms: S_2  and  N_5
REMARK    3  A    between atoms: N_5  and  C_6
REMARK    4  A    between atoms: C_9  and  S_10
REMARK    5  A    between atoms: S_10  and  N_13
REMARK    6  A    between atoms: N_13  and  C_14
REMARK                            x       y       z     vdW  Elec       q    Type
REMARK                         _______ _______ _______ _____ _____    ______ ____
ROOT
ATOM      1  C   UNL     1       5.314   4.230  17.341  0.00  0.00    +0.000 A 
ATOM      2  C   UNL     1       4.026   3.743  17.119  0.00  0.00    +0.000 A 
ATOM      3  C   UNL     1       3.030   3.950  18.074  0.00  0.00    +0.000 A 
ATOM      4  C   UNL     1       3.343   4.596  19.275  0.00  0.00    +0.000 A 
ATOM      5  C   UNL     1       4.631   5.099  19.497  0.00  0.00    +0.000 A 
ATOM      6  C   UNL     1       5.618   4.912  18.518  0.00  0.00    +0.000 A 
ENDROOT
BRANCH   4   7
ATOM      7  S   UNL     1       2.059   4.835  20.487  0.00  0.00    +0.000 S 
ATOM      8  O   UNL     1       0.802   4.926  19.782  0.00  0.00    +0.000 OA
ATOM      9  O   UNL     1       2.262   3.857  21.542  0.00  0.00    +0.000 OA
BRANCH   7  10
ATOM     10  N   UNL     1       2.359   6.366  21.106  0.00  0.00    +0.000 N 
ATOM     11  H   UNL     1       2.774   6.397  22.034  0.00  0.00    +0.000 HD
BRANCH  10  12
ATOM     12  C   UNL     1       1.698   7.501  20.583  0.00  0.00    +0.000 A 
ATOM     13  C   UNL     1       2.010   7.953  19.301  0.00  0.00    +0.000 A 
ATOM     14  C   UNL     1       1.378   9.089  18.790  0.00  0.00    +0.000 A 
ATOM     15  C   UNL     1       0.413   9.746  19.555  0.00  0.00    +0.000 A 
ATOM     16  I   UNL     1      -0.544  11.422  18.784  0.00  0.00    +0.000 I 
ATOM     17  C   UNL     1       0.086   9.284  20.830  0.00  0.00    +0.000 A 
ATOM     18  C   UNL     1       0.739   8.162  21.349  0.00  0.00    +0.000 A 
ENDBRANCH  10  12
ENDBRANCH   7  10
ENDBRANCH   4   7
BRANCH   1  19
ATOM     19  N   UNL     1       6.315   4.018  16.366  0.00  0.00    +0.000 N 
ATOM     20  H   UNL     1       6.790   3.118  16.305  0.00  0.00    +0.000 HD
BRANCH  19  22
ATOM     21  C   UNL     1       5.885   3.939  13.679  0.00  0.00    +0.000 C 
ATOM     22  S   UNL     1       6.414   4.998  15.015  0.00  0.00    +0.000 S 
ATOM     23  O   UNL     1       7.826   5.260  14.829  0.00  0.00    +0.000 OA
ATOM     24  O   UNL     1       5.464   6.079  15.152  0.00  0.00    +0.000 OA
ENDBRANCH  19  22
ENDBRANCH   1  19
TORSDOF 5
ENDMDL
MODEL 2
REMARK VINA RESULT:      -6.8      1.152      1.584
REMARK  Name = 
REMARK  6 active torsions:
REMARK  status: ('A' for Active; 'I' for Inactive)
REMARK    1  A    between atoms: C_1  and  S_2
REMARK    2  A    between atoms: S_2  and  N_5
REMARK    3  A    between atoms: N_5  and  C_6
REMARK    4  A    between atoms: C_9  and  S_10
REMARK    5  A    between atoms: S_10  and  N_13
REMARK    6  A    between atoms: N_13  and  C_14
REMARK                            x       y       z     vdW  Elec       q    Type
REMARK                         _______ _______ _______ _____ _____    ______ ____
ROOT
ATOM      1  C   UNL     1       4.847   3.988  17.371  0.00  0.00    +0.000 A 
ATOM      2  C   UNL     1       5.168   3.676  18.692  0.00  0.00    +0.000 A 
ATOM      3  C   UNL     1       4.231   3.887  19.704  0.00  0.00    +0.000 A 
ATOM      4  C   UNL     1       2.993   4.463  19.395  0.00  0.00    +0.000 A 
ATOM      5  C   UNL     1       2.662   4.764  18.069  0.00  0.00    +0.000 A 
ATOM      6  C   UNL     1       3.599   4.521  17.054  0.00  0.00    +0.000 A 
ENDROOT
BRANCH   4   7
ATOM      7  S   UNL     1       1.818   4.738  20.705  0.00  0.00    +0.000 S 
ATOM      8  O   UNL     1       0.510   4.854  20.104  0.00  0.00    +0.000 OA
ATOM      9  O   UNL     1       2.084   3.763  21.748  0.00  0.00    +0.000 OA
BRANCH   7  10
ATOM     10  N   UNL     1       2.202   6.266  21.285  0.00  0.00    +0.000 N 
ATOM     11  H   UNL     1       2.633   6.297  22.206  0.00  0.00    +0.000 HD
BRANCH  10  12
ATOM     12  C   UNL     1       1.588   7.420  20.747  0.00  0.00    +0.000 A 
ATOM     13  C   UNL     1       1.983   7.894  19.496  0.00  0.00    +0.000 A 
ATOM     14  C   UNL     1       1.396   9.048  18.972  0.00  0.00    +0.000 A 
ATOM     15  C   UNL     1       0.395   9.703  19.690  0.00  0.00    +0.000 A 
ATOM     16  I   UNL     1      -0.492  11.406  18.898  0.00  0.00    +0.000 I 
ATOM     17  C   UNL     1      -0.014   9.220  20.934  0.00  0.00    +0.000 A 
ATOM     18  C   UNL     1       0.593   8.078  21.467  0.00  0.00    +0.000 A 
ENDBRANCH  10  12
ENDBRANCH   7  10
ENDBRANCH   4   7
BRANCH   1  19
ATOM     19  N   UNL     1       5.803   3.766  16.353  0.00  0.00    +0.000 N 
ATOM     20  H   UNL     1       5.546   3.246  15.514  0.00  0.00    +0.000 HD
BRANCH  19  22
ATOM     21  C   UNL     1       6.635   6.313  16.836  0.00  0.00    +0.000 C 
ATOM     22  S   UNL     1       7.172   4.717  16.243  0.00  0.00    +0.000 S 
ATOM     23  O   UNL     1       7.441   4.847  14.826  0.00  0.00    +0.000 OA
ATOM     24  O   UNL     1       8.173   4.200  17.150  0.00  0.00    +0.000 OA
ENDBRANCH  19  22
ENDBRANCH   1  19
TORSDOF 5
ENDMDL
MODEL 3
REMARK VINA RESULT:      -6.8      0.815      1.433
REMARK  Name = 
REMARK  6 active torsions:
REMARK  status: ('A' for Active; 'I' for Inactive)
REMARK    1  A    between atoms: C_1  and  S_2
REMARK    2  A    between atoms: S_2  and  N_5
REMARK    3  A    between atoms: N_5  and  C_6
REMARK    4  A    between atoms: C_9  and  S_10
REMARK    5  A    between atoms: S_10  and  N_13
REMARK    6  A    between atoms: N_13  and  C_14
REMARK                            x       y       z     vdW  Elec       q    Type
REMARK                         _______ _______ _______ _____ _____    ______ ____
ROOT
ATOM      1  C   UNL     1       5.313   4.126  17.420  0.00  0.00    +0.000 A 
ATOM      2  C   UNL     1       5.551   4.921  18.542  0.00  0.00    +0.000 A 
ATOM      3  C   UNL     1       4.554   5.081  19.504  0.00  0.00    +0.000 A 
ATOM      4  C   UNL     1       3.301   4.489  19.311  0.00  0.00    +0.000 A 
ATOM      5  C   UNL     1       3.062   3.680  18.194  0.00  0.00    +0.000 A 
ATOM      6  C   UNL     1       4.081   3.500  17.247  0.00  0.00    +0.000 A 
ENDROOT
BRANCH   4   7
ATOM      7  S   UNL     1       2.037   4.721  20.545  0.00  0.00    +0.000 S 
ATOM      8  O   UNL     1       0.770   4.824  19.861  0.00  0.00    +0.000 OA
ATOM      9  O   UNL     1       2.252   3.732  21.587  0.00  0.00    +0.000 OA
BRANCH   7  10
ATOM     10  N   UNL     1       2.353   6.244  21.174  0.00  0.00    +0.000 N 
ATOM     11  H   UNL     1       2.747   6.266  22.112  0.00  0.00    +0.000 HD
BRANCH  10  12
ATOM     12  C   UNL     1       1.727   7.393  20.638  0.00  0.00    +0.000 A 
ATOM     13  C   UNL     1       2.061   7.828  19.356  0.00  0.00    +0.000 A 
ATOM     14  C   UNL     1       1.463   8.976  18.832  0.00  0.00    +0.000 A 
ATOM     15  C   UNL     1       0.512   9.666  19.585  0.00  0.00    +0.000 A 
ATOM     16  I   UNL     1      -0.394  11.361  18.795  0.00  0.00    +0.000 I 
ATOM     17  C   UNL     1       0.163   9.222  20.861  0.00  0.00    +0.000 A 
ATOM     18  C   UNL     1       0.781   8.086  21.393  0.00  0.00    +0.000 A 
ENDBRANCH  10  12
ENDBRANCH   7  10
ENDBRANCH   4   7
BRANCH   1  19
ATOM     19  N   UNL     1       6.332   3.967  16.453  0.00  0.00    +0.000 N 
ATOM     20  H   UNL     1       6.893   3.116  16.434  0.00  0.00    +0.000 HD
BRANCH  19  22
ATOM     21  C   UNL     1       5.314   6.290  15.463  0.00  0.00    +0.000 C 
ATOM     22  S   UNL     1       6.338   4.885  15.057  0.00  0.00    +0.000 S 
ATOM     23  O   UNL     1       5.624   4.098  14.072  0.00  0.00    +0.000 OA
ATOM     24  O   UNL     1       7.684   5.351  14.809  0.00  0.00    +0.000 OA
ENDBRANCH  19  22
ENDBRANCH   1  19
TORSDOF 5
ENDMDL
MODEL 4
REMARK VINA RESULT:      -6.8      3.817      7.278
REMARK  Name = 
REMARK  6 active torsions:
REMARK  status: ('A' for Active; 'I' for Inactive)
REMARK    1  A    between atoms: C_1  and  S_2
REMARK    2  A    between atoms: S_2  and  N_5
REMARK    3  A    between atoms: N_5  and  C_6
REMARK    4  A    between atoms: C_9  and  S_10
REMARK    5  A    between atoms: S_10  and  N_13
REMARK    6  A    between atoms: N_13  and  C_14
REMARK                            x       y       z     vdW  Elec       q    Type
REMARK                         _______ _______ _______ _____ _____    ______ ____
ROOT
ATOM      1  C   UNL     1       3.020   5.037  19.073  0.00  0.00    +0.000 A 
ATOM      2  C   UNL     1       4.180   4.568  19.691  0.00  0.00    +0.000 A 
ATOM      3  C   UNL     1       5.428   5.018  19.258  0.00  0.00    +0.000 A 
ATOM      4  C   UNL     1       5.512   5.893  18.171  0.00  0.00    +0.000 A 
ATOM      5  C   UNL     1       4.350   6.377  17.557  0.00  0.00    +0.000 A 
ATOM      6  C   UNL     1       3.099   5.943  18.018  0.00  0.00    +0.000 A 
ENDROOT
BRANCH   4   7
ATOM      7  S   UNL     1       7.117   6.441  17.625  0.00  0.00    +0.000 S 
ATOM      8  O   UNL     1       6.916   7.505  16.670  0.00  0.00    +0.000 OA
ATOM      9  O   UNL     1       7.941   6.635  18.805  0.00  0.00    +0.000 OA
BRANCH   7  10
ATOM     10  N   UNL     1       7.720   5.140  16.754  0.00  0.00    +0.000 N 
ATOM     11  H   UNL     1       8.692   4.899  16.929  0.00  0.00    +0.000 HD
BRANCH  10  12
ATOM     12  C   UNL     1       7.079   4.699  15.573  0.00  0.00    +0.000 A 
ATOM     13  C   UNL     1       5.962   3.869  15.660  0.00  0.00    +0.000 A 
ATOM     14  C   UNL     1       5.341   3.412  14.496  0.00  0.00    +0.000 A 
ATOM     15  C   UNL     1       5.824   3.815  13.250  0.00  0.00    +0.000 A 
ATOM     16  I   UNL     1       4.885   3.153  11.519  0.00  0.00    +0.000 I 
ATOM     17  C   UNL     1       6.931   4.660  13.161  0.00  0.00    +0.000 A 
ATOM     18  C   UNL     1       7.566   5.096  14.328  0.00  0.00    +0.000 A 
ENDBRANCH  10  12
ENDBRANCH   7  10
ENDBRANCH   4   7
BRANCH   1  19
ATOM     19  N   UNL     1       1.760   4.578  19.522  0.00  0.00    +0.000 N 
ATOM     20  H   UNL     1       0.951   5.198  19.497  0.00  0.00    +0.000 HD
BRANCH  19  22
ATOM     21  C   UNL     1       1.498   2.613  21.388  0.00  0.00    +0.000 C 
ATOM     22  S   UNL     1       1.435   2.943  19.635  0.00  0.00    +0.000 S 
ATOM     23  O   UNL     1       2.570   2.279  19.026  0.00  0.00    +0.000 OA
ATOM     24  O   UNL     1       0.088   2.702  19.167  0.00  0.00    +0.000 OA
ENDBRANCH  19  22
ENDBRANCH   1  19
TORSDOF 5
ENDMDL
MODEL 5
REMARK VINA RESULT:      -6.7      0.837      1.393
REMARK  Name = 
REMARK  6 active torsions:
REMARK  status: ('A' for Active; 'I' for Inactive)
REMARK    1  A    between atoms: C_1  and  S_2
REMARK    2  A    between atoms: S_2  and  N_5
REMARK    3  A    between atoms: N_5  and  C_6
REMARK    4  A    between atoms: C_9  and  S_10
REMARK    5  A    between atoms: S_10  and  N_13
REMARK    6  A    between atoms: N_13  and  C_14
REMARK                            x       y       z     vdW  Elec       q    Type
REMARK                         _______ _______ _______ _____ _____    ______ ____
ROOT
ATOM      1  C   UNL     1       4.979   3.917  17.271  0.00  0.00    +0.000 A 
ATOM      2  C   UNL     1       3.685   3.398  17.215  0.00  0.00    +0.000 A 
ATOM      3  C   UNL     1       2.770   3.704  18.222  0.00  0.00    +0.000 A 
ATOM      4  C   UNL     1       3.170   4.485  19.312  0.00  0.00    +0.000 A 
ATOM      5  C   UNL     1       4.463   5.019  19.365  0.00  0.00    +0.000 A 
ATOM      6  C   UNL     1       5.368   4.731  18.333  0.00  0.00    +0.000 A 
ENDROOT
BRANCH   4   7
ATOM      7  S   UNL     1       1.989   4.849  20.594  0.00  0.00    +0.000 S 
ATOM      8  O   UNL     1       0.689   4.957  19.975  0.00  0.00    +0.000 OA
ATOM      9  O   UNL     1       2.226   3.924  21.688  0.00  0.00    +0.000 OA
BRANCH   7  10
ATOM     10  N   UNL     1       2.396   6.397  21.100  0.00  0.00    +0.000 N 
ATOM     11  H   UNL     1       2.892   6.460  21.985  0.00  0.00    +0.000 HD
BRANCH  10  12
ATOM     12  C   UNL     1       1.732   7.529  20.574  0.00  0.00    +0.000 A 
ATOM     13  C   UNL     1       0.796   8.206  21.354  0.00  0.00    +0.000 A 
ATOM     14  C   UNL     1       0.119   9.310  20.829  0.00  0.00    +0.000 A 
ATOM     15  C   UNL     1       0.408   9.747  19.536  0.00  0.00    +0.000 A 
ATOM     16  I   UNL     1      -0.582  11.403  18.765  0.00  0.00    +0.000 I 
ATOM     17  C   UNL     1       1.358   9.081  18.760  0.00  0.00    +0.000 A 
ATOM     18  C   UNL     1       2.015   7.962  19.279  0.00  0.00    +0.000 A 
ENDBRANCH  10  12
ENDBRANCH   7  10
ENDBRANCH   4   7
BRANCH   1  19
ATOM     19  N   UNL     1       5.898   3.604  16.243  0.00  0.00    +0.000 N 
ATOM     20  H   UNL     1       6.029   2.636  15.949  0.00  0.00    +0.000 HD
BRANCH  19  22
ATOM     21  C   UNL     1       5.178   6.058  15.308  0.00  0.00    +0.000 C 
ATOM     22  S   UNL     1       6.414   4.777  15.170  0.00  0.00    +0.000 S 
ATOM     23  O   UNL     1       6.282   4.185  13.855  0.00  0.00    +0.000 OA
ATOM     24  O   UNL     1       7.680   5.305  15.630  0.00  0.00    +0.000 OA
ENDBRANCH  19  22
ENDBRANCH   1  19
TORSDOF 5
ENDMDL
MODEL 6
REMARK VINA RESULT:      -6.7      3.427      6.715
REMARK  Name = 
REMARK  6 active torsions:
REMARK  status: ('A' for Active; 'I' for Inactive)
REMARK    1  A    between atoms: C_1  and  S_2
REMARK    2  A    between atoms: S_2  and  N_5
REMARK    3  A    between atoms: N_5  and  C_6
REMARK    4  A    between atoms: C_9  and  S_10
REMARK    5  A    between atoms: S_10  and  N_13
REMARK    6  A    between atoms: N_13  and  C_14
REMARK                            x       y       z     vdW  Elec       q    Type
REMARK                         _______ _______ _______ _____ _____    ______ ____
ROOT
ATOM      1  C   UNL     1       1.922   6.875  20.471  0.00  0.00    +0.000 A 
ATOM      2  C   UNL     1       2.150   6.993  19.100  0.00  0.00    +0.000 A 
ATOM      3  C   UNL     1       2.311   5.846  18.321  0.00  0.00    +0.000 A 
ATOM      4  C   UNL     1       2.299   4.586  18.929  0.00  0.00    +0.000 A 
ATOM      5  C   UNL     1       2.058   4.463  20.302  0.00  0.00    +0.000 A 
ATOM      6  C   UNL     1       1.866   5.619  21.072  0.00  0.00    +0.000 A 
ENDROOT
BRANCH   4   7
ATOM      7  S   UNL     1       2.525   3.137  17.917  0.00  0.00    +0.000 S 
ATOM      8  O   UNL     1       2.073   1.996  18.679  0.00  0.00    +0.000 OA
ATOM      9  O   UNL     1       1.979   3.428  16.603  0.00  0.00    +0.000 OA
BRANCH   7  10
ATOM     10  N   UNL     1       4.191   2.983  17.787  0.00  0.00    +0.000 N 
ATOM     11  H   UNL     1       4.574   2.073  18.032  0.00  0.00    +0.000 HD
BRANCH  10  12
ATOM     12  C   UNL     1       5.024   4.124  17.767  0.00  0.00    +0.000 A 
ATOM     13  C   UNL     1       5.719   4.494  18.919  0.00  0.00    +0.000 A 
ATOM     14  C   UNL     1       6.524   5.635  18.910  0.00  0.00    +0.000 A 
ATOM     15  C   UNL     1       6.654   6.382  17.738  0.00  0.00    +0.000 A 
ATOM     16  I   UNL     1       7.870   8.066  17.720  0.00  0.00    +0.000 I 
ATOM     17  C   UNL     1       5.973   6.003  16.580  0.00  0.00    +0.000 A 
ATOM     18  C   UNL     1       5.148   4.874  16.599  0.00  0.00    +0.000 A 
ENDBRANCH  10  12
ENDBRANCH   7  10
ENDBRANCH   4   7
BRANCH   1  19
ATOM     19  N   UNL     1       1.755   8.043  21.250  0.00  0.00    +0.000 N 
ATOM     20  H   UNL     1       2.567   8.597  21.523  0.00  0.00    +0.000 HD
BRANCH  19  22
ATOM     21  C   UNL     1       0.277   9.572  22.949  0.00  0.00    +0.000 C 
ATOM     22  S   UNL     1       0.274   8.811  21.334  0.00  0.00    +0.000 S 
ATOM     23  O   UNL     1      -0.712   7.750  21.355  0.00  0.00    +0.000 OA
ATOM     24  O   UNL     1       0.231   9.853  20.332  0.00  0.00    +0.000 OA
ENDBRANCH  19  22
ENDBRANCH   1  19
TORSDOF 5
ENDMDL
MODEL 7
REMARK VINA RESULT:      -6.7      3.869      7.220
REMARK  Name = 
REMARK  6 active torsions:
REMARK  status: ('A' for Active; 'I' for Inactive)
REMARK    1  A    between atoms: C_1  and  S_2
REMARK    2  A    between atoms: S_2  and  N_5
REMARK    3  A    between atoms: N_5  and  C_6
REMARK    4  A    between atoms: C_9  and  S_10
REMARK    5  A    between atoms: S_10  and  N_13
REMARK    6  A    between atoms: N_13  and  C_14
REMARK                            x       y       z     vdW  Elec       q    Type
REMARK                         _______ _______ _______ _____ _____    ______ ____
ROOT
ATOM      1  C   UNL     1       3.029   4.839  19.011  0.00  0.00    +0.000 A 
ATOM      2  C   UNL     1       3.104   5.647  17.876  0.00  0.00    +0.000 A 
ATOM      3  C   UNL     1       4.344   6.104  17.429  0.00  0.00    +0.000 A 
ATOM      4  C   UNL     1       5.500   5.797  18.154  0.00  0.00    +0.000 A 
ATOM      5  C   UNL     1       5.432   4.975  19.285  0.00  0.00    +0.000 A 
ATOM      6  C   UNL     1       4.184   4.495  19.710  0.00  0.00    +0.000 A 
ENDROOT
BRANCH   4   7
ATOM      7  S   UNL     1       7.071   6.406  17.574  0.00  0.00    +0.000 S 
ATOM      8  O   UNL     1       6.808   7.463  16.625  0.00  0.00    +0.000 OA
ATOM      9  O   UNL     1       7.913   6.631  18.736  0.00  0.00    +0.000 OA
BRANCH   7  10
ATOM     10  N   UNL     1       7.704   5.129  16.688  0.00  0.00    +0.000 N 
ATOM     11  H   UNL     1       8.684   4.915  16.855  0.00  0.00    +0.000 HD
BRANCH  10  12
ATOM     12  C   UNL     1       7.068   4.681  15.508  0.00  0.00    +0.000 A 
ATOM     13  C   UNL     1       5.977   3.816  15.596  0.00  0.00    +0.000 A 
ATOM     14  C   UNL     1       5.361   3.352  14.432  0.00  0.00    +0.000 A 
ATOM     15  C   UNL     1       5.822   3.780  13.186  0.00  0.00    +0.000 A 
ATOM     16  I   UNL     1       4.890   3.106  11.456  0.00  0.00    +0.000 I 
ATOM     17  C   UNL     1       6.902   4.659  13.097  0.00  0.00    +0.000 A 
ATOM     18  C   UNL     1       7.533   5.104  14.264  0.00  0.00    +0.000 A 
ENDBRANCH  10  12
ENDBRANCH   7  10
ENDBRANCH   4   7
BRANCH   1  19
ATOM     19  N   UNL     1       1.768   4.377  19.453  0.00  0.00    +0.000 N 
ATOM     20  H   UNL     1       0.966   5.007  19.463  0.00  0.00    +0.000 HD
BRANCH  19  22
ATOM     21  C   UNL     1       2.610   2.022  18.377  0.00  0.00    +0.000 C 
ATOM     22  S   UNL     1       1.424   2.742  19.500  0.00  0.00    +0.000 S 
ATOM     23  O   UNL     1       0.114   2.604  18.897  0.00  0.00    +0.000 OA
ATOM     24  O   UNL     1       1.690   2.248  20.833  0.00  0.00    +0.000 OA
ENDBRANCH  19  22
ENDBRANCH   1  19
TORSDOF 5
ENDMDL
MODEL 8
REMARK VINA RESULT:      -6.7      3.331      6.655
REMARK  Name = 
REMARK  6 active torsions:
REMARK  status: ('A' for Active; 'I' for Inactive)
REMARK    1  A    between atoms: C_1  and  S_2
REMARK    2  A    between atoms: S_2  and  N_5
REMARK    3  A    between atoms: N_5  and  C_6
REMARK    4  A    between atoms: C_9  and  S_10
REMARK    5  A    between atoms: S_10  and  N_13
REMARK    6  A    between atoms: N_13  and  C_14
REMARK                            x       y       z     vdW  Elec       q    Type
REMARK                         _______ _______ _______ _____ _____    ______ ____
ROOT
ATOM      1  C   UNL     1       1.963   6.945  20.528  0.00  0.00    +0.000 A 
ATOM      2  C   UNL     1       2.219   7.049  19.160  0.00  0.00    +0.000 A 
ATOM      3  C   UNL     1       2.351   5.893  18.389  0.00  0.00    +0.000 A 
ATOM      4  C   UNL     1       2.281   4.637  19.001  0.00  0.00    +0.000 A 
ATOM      5  C   UNL     1       2.011   4.529  20.371  0.00  0.00    +0.000 A 
ATOM      6  C   UNL     1       1.850   5.695  21.133  0.00  0.00    +0.000 A 
ENDROOT
BRANCH   4   7
ATOM      7  S   UNL     1       2.469   3.176  17.999  0.00  0.00    +0.000 S 
ATOM      8  O   UNL     1       2.010   2.049  18.777  0.00  0.00    +0.000 OA
ATOM      9  O   UNL     1       1.910   3.465  16.690  0.00  0.00    +0.000 OA
BRANCH   7  10
ATOM     10  N   UNL     1       4.130   2.994  17.848  0.00  0.00    +0.000 N 
ATOM     11  H   UNL     1       4.501   2.077  18.088  0.00  0.00    +0.000 HD
BRANCH  10  12
ATOM     12  C   UNL     1       4.983   4.121  17.817  0.00  0.00    +0.000 A 
ATOM     13  C   UNL     1       5.670   4.501  18.970  0.00  0.00    +0.000 A 
ATOM     14  C   UNL     1       6.494   5.628  18.950  0.00  0.00    +0.000 A 
ATOM     15  C   UNL     1       6.649   6.351  17.766  0.00  0.00    +0.000 A 
ATOM     16  I   UNL     1       7.894   8.014  17.732  0.00  0.00    +0.000 I 
ATOM     17  C   UNL     1       5.977   5.962  16.607  0.00  0.00    +0.000 A 
ATOM     18  C   UNL     1       5.133   4.847  16.636  0.00  0.00    +0.000 A 
ENDBRANCH  10  12
ENDBRANCH   7  10
ENDBRANCH   4   7
BRANCH   1  19
ATOM     19  N   UNL     1       1.827   8.122  21.299  0.00  0.00    +0.000 N 
ATOM     20  H   UNL     1       2.646   8.691  21.516  0.00  0.00    +0.000 HD
BRANCH  19  22
ATOM     21  C   UNL     1       0.154   9.780  19.935  0.00  0.00    +0.000 C 
ATOM     22  S   UNL     1       0.343   8.873  21.461  0.00  0.00    +0.000 S 
ATOM     23  O   UNL     1       0.512   9.842  22.524  0.00  0.00    +0.000 OA
ATOM     24  O   UNL     1      -0.687   7.861  21.528  0.00  0.00    +0.000 OA
ENDBRANCH  19  22
ENDBRANCH   1  19
TORSDOF 5
ENDMDL
MODEL 9
REMARK VINA RESULT:      -6.7      3.328      6.588
REMARK  Name = 
REMARK  6 active torsions:
REMARK  status: ('A' for Active; 'I' for Inactive)
REMARK    1  A    between atoms: C_1  and  S_2
REMARK    2  A    between atoms: S_2  and  N_5
REMARK    3  A    between atoms: N_5  and  C_6
REMARK    4  A    between atoms: C_9  and  S_10
REMARK    5  A    between atoms: S_10  and  N_13
REMARK    6  A    between atoms: N_13  and  C_14
REMARK                            x       y       z     vdW  Elec       q    Type
REMARK                         _______ _______ _______ _____ _____    ______ ____
ROOT
ATOM      1  C   UNL     1       1.990   6.936  20.516  0.00  0.00    +0.000 A 
ATOM      2  C   UNL     1       2.257   7.046  19.151  0.00  0.00    +0.000 A 
ATOM      3  C   UNL     1       2.389   5.895  18.373  0.00  0.00    +0.000 A 
ATOM      4  C   UNL     1       2.309   4.636  18.977  0.00  0.00    +0.000 A 
ATOM      5  C   UNL     1       2.028   4.520  20.344  0.00  0.00    +0.000 A 
ATOM      6  C   UNL     1       1.866   5.683  21.112  0.00  0.00    +0.000 A 
ENDROOT
BRANCH   4   7
ATOM      7  S   UNL     1       2.498   3.180  17.968  0.00  0.00    +0.000 S 
ATOM      8  O   UNL     1       2.070   2.045  18.751  0.00  0.00    +0.000 OA
ATOM      9  O   UNL     1       1.909   3.464  16.671  0.00  0.00    +0.000 OA
BRANCH   7  10
ATOM     10  N   UNL     1       4.158   3.022  17.783  0.00  0.00    +0.000 N 
ATOM     11  H   UNL     1       4.543   2.102  17.986  0.00  0.00    +0.000 HD
BRANCH  10  12
ATOM     12  C   UNL     1       4.998   4.159  17.777  0.00  0.00    +0.000 A 
ATOM     13  C   UNL     1       5.114   4.927  16.618  0.00  0.00    +0.000 A 
ATOM     14  C   UNL     1       5.962   6.037  16.601  0.00  0.00    +0.000 A 
ATOM     15  C   UNL     1       6.664   6.390  17.754  0.00  0.00    +0.000 A 
ATOM     16  I   UNL     1       7.907   8.055  17.732  0.00  0.00    +0.000 I 
ATOM     17  C   UNL     1       6.535   5.633  18.919  0.00  0.00    +0.000 A 
ATOM     18  C   UNL     1       5.705   4.508  18.927  0.00  0.00    +0.000 A 
ENDBRANCH  10  12
ENDBRANCH   7  10
ENDBRANCH   4   7
BRANCH   1  19
ATOM     19  N   UNL     1       1.854   8.109  21.294  0.00  0.00    +0.000 N 
ATOM     20  H   UNL     1       2.674   8.668  21.525  0.00  0.00    +0.000 HD
BRANCH  19  22
ATOM     21  C   UNL     1       0.208   9.781  19.913  0.00  0.00    +0.000 C 
ATOM     22  S   UNL     1       0.374   8.871  21.440  0.00  0.00    +0.000 S 
ATOM     23  O   UNL     1       0.540   9.838  22.506  0.00  0.00    +0.000 OA
ATOM     24  O   UNL     1      -0.665   7.867  21.495  0.00  0.00    +0.000 OA
ENDBRANCH  19  22
ENDBRANCH   1  19
TORSDOF 5
ENDMDL
