MODEL 1
REMARK VINA RESULT:      -8.2      0.000      0.000
REMARK  Name = 
REMARK  5 active torsions:
REMARK  status: ('A' for Active; 'I' for Inactive)
REMARK    1  A    between atoms: S_2  and  N_4
REMARK    2  A    between atoms: S_2  and  C_20
REMARK    3  A    between atoms: N_4  and  C_5
REMARK    4  A    between atoms: C_10  and  N_11
REMARK    5  A    between atoms: N_11  and  C_12
REMARK                            x       y       z     vdW  Elec       q    Type
REMARK                         _______ _______ _______ _____ _____    ______ ____
ROOT
ATOM      1  C   UNL     1       3.337   4.433  17.892  0.00  0.00    +0.000 A 
ATOM      2  C   UNL     1       4.027   3.789  16.865  0.00  0.00    +0.000 A 
ATOM      3  C   UNL     1       5.357   4.115  16.670  0.00  0.00    +0.000 A 
ATOM      4  N   UNL     1       6.020   5.009  17.425  0.00  0.00    +0.000 NA
ATOM      5  C   UNL     1       5.311   5.640  18.392  0.00  0.00    +0.000 A 
ATOM      6  C   UNL     1       3.963   5.414  18.674  0.00  0.00    +0.000 A 
ENDROOT
BRANCH   1   7
ATOM      7  N   UNL     1       1.936   4.156  18.053  0.00  0.00    +0.000 N 
ATOM      8  H   UNL     1       1.396   4.940  18.429  0.00  0.00    +0.000 HD
BRANCH   7  10
ATOM      9  O   UNL     1       0.308   2.207  18.534  0.00  0.00    +0.000 OA
ATOM     10  S   UNL     1       1.557   2.770  19.008  0.00  0.00    +0.000 S 
ATOM     11  O   UNL     1       2.775   1.981  18.916  0.00  0.00    +0.000 OA
BRANCH  10  12
ATOM     12  C   UNL     1       1.375   3.476  20.726  0.00  0.00    +0.000 C 
ATOM     13  F   UNL     1       2.590   3.741  21.298  0.00  0.00    +0.000 F 
ATOM     14  F   UNL     1       0.672   4.641  20.745  0.00  0.00    +0.000 F 
ATOM     15  F   UNL     1       0.736   2.614  21.567  0.00  0.00    +0.000 F 
ENDBRANCH  10  12
ENDBRANCH   7  10
ENDBRANCH   1   7
BRANCH   6  16
ATOM     16  N   UNL     1       3.239   6.166  19.625  0.00  0.00    +0.000 N 
ATOM     17  H   UNL     1       3.512   5.986  20.587  0.00  0.00    +0.000 HD
BRANCH  16  18
ATOM     18  C   UNL     1       2.430   7.295  19.400  0.00  0.00    +0.000 A 
ATOM     19  C   UNL     1       2.421   7.941  18.153  0.00  0.00    +0.000 A 
ATOM     20  C   UNL     1       1.705   9.122  17.954  0.00  0.00    +0.000 A 
ATOM     21  C   UNL     1       0.990   9.669  19.008  0.00  0.00    +0.000 A 
ATOM     22  F   UNL     1       0.324  10.816  18.805  0.00  0.00    +0.000 F 
ATOM     23  C   UNL     1       0.975   9.042  20.251  0.00  0.00    +0.000 A 
ATOM     24 BR   UNL     1       0.013   9.800  21.693  0.00  0.00    +0.000 Br
ATOM     25  C   UNL     1       1.690   7.856  20.451  0.00  0.00    +0.000 A 
ENDBRANCH  16  18
ENDBRANCH   6  16
TORSDOF 5
ENDMDL
MODEL 2
REMARK VINA RESULT:      -8.0      3.697      4.506
REMARK  Name = 
REMARK  5 active torsions:
REMARK  status: ('A' for Active; 'I' for Inactive)
REMARK    1  A    between atoms: S_2  and  N_4
REMARK    2  A    between atoms: S_2  and  C_20
REMARK    3  A    between atoms: N_4  and  C_5
REMARK    4  A    between atoms: C_10  and  N_11
REMARK    5  A    between atoms: N_11  and  C_12
REMARK                            x       y       z     vdW  Elec       q    Type
REMARK                         _______ _______ _______ _____ _____    ______ ____
ROOT
ATOM      1  C   UNL     1       4.124   4.408  17.680  0.00  0.00    +0.000 A 
ATOM      2  C   UNL     1       3.892   3.087  17.296  0.00  0.00    +0.000 A 
ATOM      3  C   UNL     1       2.603   2.598  17.394  0.00  0.00    +0.000 A 
ATOM      4  N   UNL     1       1.561   3.330  17.827  0.00  0.00    +0.000 NA
ATOM      5  C   UNL     1       1.828   4.598  18.222  0.00  0.00    +0.000 A 
ATOM      6  C   UNL     1       3.086   5.200  18.192  0.00  0.00    +0.000 A 
ENDROOT
BRANCH   1   7
ATOM      7  N   UNL     1       5.473   4.901  17.654  0.00  0.00    +0.000 N 
ATOM      8  H   UNL     1       5.746   5.417  18.494  0.00  0.00    +0.000 HD
BRANCH   7  10
ATOM      9  O   UNL     1       4.739   6.717  15.968  0.00  0.00    +0.000 OA
ATOM     10  S   UNL     1       5.879   5.884  16.295  0.00  0.00    +0.000 S 
ATOM     11  O   UNL     1       7.122   6.510  16.718  0.00  0.00    +0.000 OA
BRANCH  10  12
ATOM     12  C   UNL     1       6.214   4.633  14.952  0.00  0.00    +0.000 C 
ATOM     13  F   UNL     1       6.531   3.405  15.467  0.00  0.00    +0.000 F 
ATOM     14  F   UNL     1       5.146   4.446  14.128  0.00  0.00    +0.000 F 
ATOM     15  F   UNL     1       7.263   4.999  14.162  0.00  0.00    +0.000 F 
ENDBRANCH  10  12
ENDBRANCH   7  10
ENDBRANCH   1   7
BRANCH   6  16
ATOM     16  N   UNL     1       3.336   6.491  18.707  0.00  0.00    +0.000 N 
ATOM     17  H   UNL     1       4.321   6.739  18.739  0.00  0.00    +0.000 HD
BRANCH  16  18
ATOM     18  C   UNL     1       2.416   7.538  18.898  0.00  0.00    +0.000 A 
ATOM     19  C   UNL     1       2.077   8.404  17.846  0.00  0.00    +0.000 A 
ATOM     20  C   UNL     1       1.250   9.508  18.054  0.00  0.00    +0.000 A 
ATOM     21  C   UNL     1       0.754   9.757  19.324  0.00  0.00    +0.000 A 
ATOM     22  F   UNL     1      -0.022  10.835  19.511  0.00  0.00    +0.000 F 
ATOM     23  C   UNL     1       1.069   8.908  20.383  0.00  0.00    +0.000 A 
ATOM     24 BR   UNL     1       0.406   9.259  22.120  0.00  0.00    +0.000 Br
ATOM     25  C   UNL     1       1.895   7.798  20.174  0.00  0.00    +0.000 A 
ENDBRANCH  16  18
ENDBRANCH   6  16
TORSDOF 5
ENDMDL
MODEL 3
REMARK VINA RESULT:      -7.9      3.244      4.162
REMARK  Name = 
REMARK  5 active torsions:
REMARK  status: ('A' for Active; 'I' for Inactive)
REMARK    1  A    between atoms: S_2  and  N_4
REMARK    2  A    between atoms: S_2  and  C_20
REMARK    3  A    between atoms: N_4  and  C_5
REMARK    4  A    between atoms: C_10  and  N_11
REMARK    5  A    between atoms: N_11  and  C_12
REMARK                            x       y       z     vdW  Elec       q    Type
REMARK                         _______ _______ _______ _____ _____    ______ ____
ROOT
ATOM      1  C   UNL     1       3.675   3.839  19.118  0.00  0.00    +0.000 A 
ATOM      2  C   UNL     1       3.392   2.519  18.767  0.00  0.00    +0.000 A 
ATOM      3  C   UNL     1       2.073   2.105  18.802  0.00  0.00    +0.000 A 
ATOM      4  N   UNL     1       1.051   2.910  19.144  0.00  0.00    +0.000 NA
ATOM      5  C   UNL     1       1.365   4.176  19.510  0.00  0.00    +0.000 A 
ATOM      6  C   UNL     1       2.655   4.706  19.536  0.00  0.00    +0.000 A 
ENDROOT
BRANCH   1   7
ATOM      7  N   UNL     1       5.050   4.257  19.158  0.00  0.00    +0.000 N 
ATOM      8  H   UNL     1       5.267   4.908  19.917  0.00  0.00    +0.000 HD
BRANCH   7  10
ATOM      9  O   UNL     1       5.512   3.982  16.630  0.00  0.00    +0.000 OA
ATOM     10  S   UNL     1       5.659   4.949  17.700  0.00  0.00    +0.000 S 
ATOM     11  O   UNL     1       4.939   6.211  17.625  0.00  0.00    +0.000 OA
BRANCH  10  12
ATOM     12  C   UNL     1       7.457   5.257  18.095  0.00  0.00    +0.000 C 
ATOM     13  F   UNL     1       7.924   6.392  17.490  0.00  0.00    +0.000 F 
ATOM     14  F   UNL     1       7.684   5.404  19.429  0.00  0.00    +0.000 F 
ATOM     15  F   UNL     1       8.256   4.238  17.667  0.00  0.00    +0.000 F 
ENDBRANCH  10  12
ENDBRANCH   7  10
ENDBRANCH   1   7
BRANCH   6  16
ATOM     16  N   UNL     1       2.947   6.001  20.020  0.00  0.00    +0.000 N 
ATOM     17  H   UNL     1       3.897   6.108  20.364  0.00  0.00    +0.000 HD
BRANCH  16  18
ATOM     18  C   UNL     1       2.211   7.183  19.823  0.00  0.00    +0.000 A 
ATOM     19  C   UNL     1       2.236   7.854  18.589  0.00  0.00    +0.000 A 
ATOM     20  C   UNL     1       1.597   9.082  18.419  0.00  0.00    +0.000 A 
ATOM     21  C   UNL     1       0.925   9.653  19.488  0.00  0.00    +0.000 A 
ATOM     22  F   UNL     1       0.333  10.845  19.313  0.00  0.00    +0.000 F 
ATOM     23  C   UNL     1       0.877   9.003  20.720  0.00  0.00    +0.000 A 
ATOM     24 BR   UNL     1      -0.025   9.793  22.183  0.00  0.00    +0.000 Br
ATOM     25  C   UNL     1       1.516   7.770  20.890  0.00  0.00    +0.000 A 
ENDBRANCH  16  18
ENDBRANCH   6  16
TORSDOF 5
ENDMDL
MODEL 4
REMARK VINA RESULT:      -7.9      3.436      4.312
REMARK  Name = 
REMARK  5 active torsions:
REMARK  status: ('A' for Active; 'I' for Inactive)
REMARK    1  A    between atoms: S_2  and  N_4
REMARK    2  A    between atoms: S_2  and  C_20
REMARK    3  A    between atoms: N_4  and  C_5
REMARK    4  A    between atoms: C_10  and  N_11
REMARK    5  A    between atoms: N_11  and  C_12
REMARK                            x       y       z     vdW  Elec       q    Type
REMARK                         _______ _______ _______ _____ _____    ______ ____
ROOT
ATOM      1  C   UNL     1       3.954   4.278  18.335  0.00  0.00    +0.000 A 
ATOM      2  C   UNL     1       3.844   3.030  17.721  0.00  0.00    +0.000 A 
ATOM      3  C   UNL     1       2.592   2.446  17.655  0.00  0.00    +0.000 A 
ATOM      4  N   UNL     1       1.477   3.021  18.140  0.00  0.00    +0.000 NA
ATOM      5  C   UNL     1       1.626   4.218  18.759  0.00  0.00    +0.000 A 
ATOM      6  C   UNL     1       2.834   4.899  18.908  0.00  0.00    +0.000 A 
ENDROOT
BRANCH   1   7
ATOM      7  N   UNL     1       5.261   4.858  18.477  0.00  0.00    +0.000 N 
ATOM      8  H   UNL     1       5.375   5.432  19.316  0.00  0.00    +0.000 HD
BRANCH   7  10
ATOM      9  O   UNL     1       4.660   6.158  16.326  0.00  0.00    +0.000 OA
ATOM     10  S   UNL     1       5.806   5.796  17.136  0.00  0.00    +0.000 S 
ATOM     11  O   UNL     1       6.585   6.842  17.779  0.00  0.00    +0.000 OA
BRANCH  10  12
ATOM     12  C   UNL     1       6.936   4.620  16.227  0.00  0.00    +0.000 C 
ATOM     13  F   UNL     1       6.264   3.517  15.775  0.00  0.00    +0.000 F 
ATOM     14  F   UNL     1       7.525   5.192  15.140  0.00  0.00    +0.000 F 
ATOM     15  F   UNL     1       7.941   4.158  17.024  0.00  0.00    +0.000 F 
ENDBRANCH  10  12
ENDBRANCH   7  10
ENDBRANCH   1   7
BRANCH   6  16
ATOM     16  N   UNL     1       2.958   6.095  19.648  0.00  0.00    +0.000 N 
ATOM     17  H   UNL     1       3.788   6.133  20.234  0.00  0.00    +0.000 HD
BRANCH  16  18
ATOM     18  C   UNL     1       2.262   7.303  19.461  0.00  0.00    +0.000 A 
ATOM     19  C   UNL     1       2.300   7.975  18.228  0.00  0.00    +0.000 A 
ATOM     20  C   UNL     1       1.703   9.226  18.066  0.00  0.00    +0.000 A 
ATOM     21  C   UNL     1       1.062   9.818  19.143  0.00  0.00    +0.000 A 
ATOM     22  F   UNL     1       0.511  11.030  18.977  0.00  0.00    +0.000 F 
ATOM     23  C   UNL     1       1.003   9.167  20.374  0.00  0.00    +0.000 A 
ATOM     24 BR   UNL     1       0.143   9.985  21.847  0.00  0.00    +0.000 Br
ATOM     25  C   UNL     1       1.599   7.911  20.536  0.00  0.00    +0.000 A 
ENDBRANCH  16  18
ENDBRANCH   6  16
TORSDOF 5
ENDMDL
MODEL 5
REMARK VINA RESULT:      -7.9      3.194      4.093
REMARK  Name = 
REMARK  5 active torsions:
REMARK  status: ('A' for Active; 'I' for Inactive)
REMARK    1  A    between atoms: S_2  and  N_4
REMARK    2  A    between atoms: S_2  and  C_20
REMARK    3  A    between atoms: N_4  and  C_5
REMARK    4  A    between atoms: C_10  and  N_11
REMARK    5  A    between atoms: N_11  and  C_12
REMARK                            x       y       z     vdW  Elec       q    Type
REMARK                         _______ _______ _______ _____ _____    ______ ____
ROOT
ATOM      1  C   UNL     1       3.043   4.197  18.294  0.00  0.00    +0.000 A 
ATOM      2  C   UNL     1       2.725   2.914  17.846  0.00  0.00    +0.000 A 
ATOM      3  C   UNL     1       1.646   2.272  18.426  0.00  0.00    +0.000 A 
ATOM      4  N   UNL     1       0.884   2.821  19.389  0.00  0.00    +0.000 NA
ATOM      5  C   UNL     1       1.241   4.054  19.823  0.00  0.00    +0.000 A 
ATOM      6  C   UNL     1       2.317   4.796  19.334  0.00  0.00    +0.000 A 
ENDROOT
BRANCH   1   7
ATOM      7  N   UNL     1       4.207   4.841  17.752  0.00  0.00    +0.000 N 
ATOM      8  H   UNL     1       4.418   4.579  16.786  0.00  0.00    +0.000 HD
BRANCH   7  10
ATOM      9  O   UNL     1       5.795   5.770  19.567  0.00  0.00    +0.000 OA
ATOM     10  S   UNL     1       5.658   4.645  18.664  0.00  0.00    +0.000 S 
ATOM     11  O   UNL     1       5.508   3.305  19.210  0.00  0.00    +0.000 OA
BRANCH  10  12
ATOM     12  C   UNL     1       6.987   4.659  17.354  0.00  0.00    +0.000 C 
ATOM     13  F   UNL     1       7.208   5.919  16.867  0.00  0.00    +0.000 F 
ATOM     14  F   UNL     1       8.185   4.203  17.814  0.00  0.00    +0.000 F 
ATOM     15  F   UNL     1       6.656   3.886  16.281  0.00  0.00    +0.000 F 
ENDBRANCH  10  12
ENDBRANCH   7  10
ENDBRANCH   1   7
BRANCH   6  16
ATOM     16  N   UNL     1       2.713   6.034  19.886  0.00  0.00    +0.000 N 
ATOM     17  H   UNL     1       3.663   6.039  20.248  0.00  0.00    +0.000 HD
BRANCH  16  18
ATOM     18  C   UNL     1       2.089   7.286  19.737  0.00  0.00    +0.000 A 
ATOM     19  C   UNL     1       2.199   8.010  18.538  0.00  0.00    +0.000 A 
ATOM     20  C   UNL     1       1.675   9.298  18.420  0.00  0.00    +0.000 A 
ATOM     21  C   UNL     1       1.034   9.874  19.506  0.00  0.00    +0.000 A 
ATOM     22  F   UNL     1       0.555  11.121  19.381  0.00  0.00    +0.000 F 
ATOM     23  C   UNL     1       0.905   9.172  20.702  0.00  0.00    +0.000 A 
ATOM     24 BR   UNL     1       0.046   9.968  22.188  0.00  0.00    +0.000 Br
ATOM     25  C   UNL     1       1.427   7.880  20.821  0.00  0.00    +0.000 A 
ENDBRANCH  16  18
ENDBRANCH   6  16
TORSDOF 5
ENDMDL
MODEL 6
REMARK VINA RESULT:      -7.9      1.246      1.617
REMARK  Name = 
REMARK  5 active torsions:
REMARK  status: ('A' for Active; 'I' for Inactive)
REMARK    1  A    between atoms: S_2  and  N_4
REMARK    2  A    between atoms: S_2  and  C_20
REMARK    3  A    between atoms: N_4  and  C_5
REMARK    4  A    between atoms: C_10  and  N_11
REMARK    5  A    between atoms: N_11  and  C_12
REMARK                            x       y       z     vdW  Elec       q    Type
REMARK                         _______ _______ _______ _____ _____    ______ ____
ROOT
ATOM      1  C   UNL     1       4.092   4.729  17.128  0.00  0.00    +0.000 A 
ATOM      2  C   UNL     1       4.896   4.432  16.026  0.00  0.00    +0.000 A 
ATOM      3  C   UNL     1       5.951   5.279  15.744  0.00  0.00    +0.000 A 
ATOM      4  N   UNL     1       6.251   6.365  16.480  0.00  0.00    +0.000 NA
ATOM      5  C   UNL     1       5.430   6.642  17.523  0.00  0.00    +0.000 A 
ATOM      6  C   UNL     1       4.324   5.879  17.897  0.00  0.00    +0.000 A 
ENDROOT
BRANCH   1   7
ATOM      7  N   UNL     1       2.948   3.898  17.384  0.00  0.00    +0.000 N 
ATOM      8  H   UNL     1       2.095   4.418  17.602  0.00  0.00    +0.000 HD
BRANCH   7  10
ATOM      9  O   UNL     1       3.434   1.435  17.994  0.00  0.00    +0.000 OA
ATOM     10  S   UNL     1       3.154   2.712  18.619  0.00  0.00    +0.000 S 
ATOM     11  O   UNL     1       4.157   3.321  19.478  0.00  0.00    +0.000 OA
BRANCH  10  12
ATOM     12  C   UNL     1       1.496   2.700  19.476  0.00  0.00    +0.000 C 
ATOM     13  F   UNL     1       0.550   2.034  18.745  0.00  0.00    +0.000 F 
ATOM     14  F   UNL     1       1.539   2.100  20.697  0.00  0.00    +0.000 F 
ATOM     15  F   UNL     1       1.013   3.960  19.672  0.00  0.00    +0.000 F 
ENDBRANCH  10  12
ENDBRANCH   7  10
ENDBRANCH   1   7
BRANCH   6  16
ATOM     16  N   UNL     1       3.439   6.260  18.930  0.00  0.00    +0.000 N 
ATOM     17  H   UNL     1       3.626   5.808  19.821  0.00  0.00    +0.000 HD
BRANCH  16  18
ATOM     18  C   UNL     1       2.558   7.357  18.951  0.00  0.00    +0.000 A 
ATOM     19  C   UNL     1       2.398   8.178  17.823  0.00  0.00    +0.000 A 
ATOM     20  C   UNL     1       1.611   9.329  17.871  0.00  0.00    +0.000 A 
ATOM     21  C   UNL     1       0.975   9.669  19.055  0.00  0.00    +0.000 A 
ATOM     22  F   UNL     1       0.238  10.790  19.089  0.00  0.00    +0.000 F 
ATOM     23  C   UNL     1       1.110   8.866  20.184  0.00  0.00    +0.000 A 
ATOM     24 BR   UNL     1       0.256   9.342  21.804  0.00  0.00    +0.000 Br
ATOM     25  C   UNL     1       1.898   7.710  20.137  0.00  0.00    +0.000 A 
ENDBRANCH  16  18
ENDBRANCH   6  16
TORSDOF 5
ENDMDL
MODEL 7
REMARK VINA RESULT:      -7.8      3.411      4.323
REMARK  Name = 
REMARK  5 active torsions:
REMARK  status: ('A' for Active; 'I' for Inactive)
REMARK    1  A    between atoms: S_2  and  N_4
REMARK    2  A    between atoms: S_2  and  C_20
REMARK    3  A    between atoms: N_4  and  C_5
REMARK    4  A    between atoms: C_10  and  N_11
REMARK    5  A    between atoms: N_11  and  C_12
REMARK                            x       y       z     vdW  Elec       q    Type
REMARK                         _______ _______ _______ _____ _____    ______ ____
ROOT
ATOM      1  C   UNL     1       4.145   4.329  17.571  0.00  0.00    +0.000 A 
ATOM      2  C   UNL     1       4.044   2.981  17.227  0.00  0.00    +0.000 A 
ATOM      3  C   UNL     1       3.162   2.191  17.940  0.00  0.00    +0.000 A 
ATOM      4  N   UNL     1       2.389   2.656  18.939  0.00  0.00    +0.000 NA
ATOM      5  C   UNL     1       2.536   3.962  19.269  0.00  0.00    +0.000 A 
ATOM      6  C   UNL     1       3.405   4.855  18.640  0.00  0.00    +0.000 A 
ENDROOT
BRANCH   1   7
ATOM      7  N   UNL     1       5.115   5.139  16.887  0.00  0.00    +0.000 N 
ATOM      8  H   UNL     1       5.148   4.987  15.876  0.00  0.00    +0.000 HD
BRANCH   7  10
ATOM      9  O   UNL     1       6.711   4.340  18.755  0.00  0.00    +0.000 OA
ATOM     10  S   UNL     1       6.731   5.020  17.476  0.00  0.00    +0.000 S 
ATOM     11  O   UNL     1       7.431   4.412  16.355  0.00  0.00    +0.000 OA
BRANCH  10  12
ATOM     12  C   UNL     1       7.247   6.804  17.663  0.00  0.00    +0.000 C 
ATOM     13  F   UNL     1       6.167   7.644  17.713  0.00  0.00    +0.000 F 
ATOM     14  F   UNL     1       7.968   7.027  18.797  0.00  0.00    +0.000 F 
ATOM     15  F   UNL     1       8.013   7.227  16.618  0.00  0.00    +0.000 F 
ENDBRANCH  10  12
ENDBRANCH   7  10
ENDBRANCH   1   7
BRANCH   6  16
ATOM     16  N   UNL     1       3.599   6.182  19.083  0.00  0.00    +0.000 N 
ATOM     17  H   UNL     1       4.573   6.428  19.233  0.00  0.00    +0.000 HD
BRANCH  16  18
ATOM     18  C   UNL     1       2.677   7.244  19.060  0.00  0.00    +0.000 A 
ATOM     19  C   UNL     1       2.523   8.044  17.916  0.00  0.00    +0.000 A 
ATOM     20  C   UNL     1       1.691   9.164  17.921  0.00  0.00    +0.000 A 
ATOM     21  C   UNL     1       1.003   9.494  19.078  0.00  0.00    +0.000 A 
ATOM     22  F   UNL     1       0.223  10.586  19.073  0.00  0.00    +0.000 F 
ATOM     23  C   UNL     1       1.131   8.711  20.223  0.00  0.00    +0.000 A 
ATOM     24 BR   UNL     1       0.205   9.175  21.807  0.00  0.00    +0.000 Br
ATOM     25  C   UNL     1       1.963   7.586  20.218  0.00  0.00    +0.000 A 
ENDBRANCH  16  18
ENDBRANCH   6  16
TORSDOF 5
ENDMDL
MODEL 8
REMARK VINA RESULT:      -7.8      1.513      1.822
REMARK  Name = 
REMARK  5 active torsions:
REMARK  status: ('A' for Active; 'I' for Inactive)
REMARK    1  A    between atoms: S_2  and  N_4
REMARK    2  A    between atoms: S_2  and  C_20
REMARK    3  A    between atoms: N_4  and  C_5
REMARK    4  A    between atoms: C_10  and  N_11
REMARK    5  A    between atoms: N_11  and  C_12
REMARK                            x       y       z     vdW  Elec       q    Type
REMARK                         _______ _______ _______ _____ _____    ______ ____
ROOT
ATOM      1  C   UNL     1       4.519   5.459  19.150  0.00  0.00    +0.000 A 
ATOM      2  C   UNL     1       5.846   5.027  19.146  0.00  0.00    +0.000 A 
ATOM      3  C   UNL     1       6.692   5.534  18.177  0.00  0.00    +0.000 A 
ATOM      4  N   UNL     1       6.308   6.428  17.248  0.00  0.00    +0.000 NA
ATOM      5  C   UNL     1       5.004   6.801  17.261  0.00  0.00    +0.000 A 
ATOM      6  C   UNL     1       4.050   6.347  18.171  0.00  0.00    +0.000 A 
ENDROOT
BRANCH   1   7
ATOM      7  N   UNL     1       3.614   4.880  20.104  0.00  0.00    +0.000 N 
ATOM      8  H   UNL     1       4.018   4.748  21.035  0.00  0.00    +0.000 HD
BRANCH   7  10
ATOM      9  O   UNL     1       2.778   3.354  18.194  0.00  0.00    +0.000 OA
ATOM     10  S   UNL     1       2.901   3.380  19.638  0.00  0.00    +0.000 S 
ATOM     11  O   UNL     1       3.755   2.406  20.298  0.00  0.00    +0.000 OA
BRANCH  10  12
ATOM     12  C   UNL     1       1.228   3.432  20.462  0.00  0.00    +0.000 C 
ATOM     13  F   UNL     1       0.281   2.764  19.733  0.00  0.00    +0.000 F 
ATOM     14  F   UNL     1       1.235   2.869  21.702  0.00  0.00    +0.000 F 
ATOM     15  F   UNL     1       0.769   4.707  20.609  0.00  0.00    +0.000 F 
ENDBRANCH  10  12
ENDBRANCH   7  10
ENDBRANCH   1   7
BRANCH   6  16
ATOM     16  N   UNL     1       2.681   6.685  18.085  0.00  0.00    +0.000 N 
ATOM     17  H   UNL     1       2.080   5.908  17.822  0.00  0.00    +0.000 HD
BRANCH  16  18
ATOM     18  C   UNL     1       2.042   7.836  18.580  0.00  0.00    +0.000 A 
ATOM     19  C   UNL     1       1.874   8.974  17.774  0.00  0.00    +0.000 A 
ATOM     20  C   UNL     1       1.341  10.155  18.289  0.00  0.00    +0.000 A 
ATOM     21  C   UNL     1       0.970  10.208  19.624  0.00  0.00    +0.000 A 
ATOM     22  F   UNL     1       0.478  11.358  20.109  0.00  0.00    +0.000 F 
ATOM     23  C   UNL     1       1.118   9.090  20.442  0.00  0.00    +0.000 A 
ATOM     24 BR   UNL     1       0.629   9.171  22.268  0.00  0.00    +0.000 Br
ATOM     25  C   UNL     1       1.651   7.904  19.925  0.00  0.00    +0.000 A 
ENDBRANCH  16  18
ENDBRANCH   6  16
TORSDOF 5
ENDMDL
MODEL 9
REMARK VINA RESULT:      -7.8      1.621      1.951
REMARK  Name = 
REMARK  5 active torsions:
REMARK  status: ('A' for Active; 'I' for Inactive)
REMARK    1  A    between atoms: S_2  and  N_4
REMARK    2  A    between atoms: S_2  and  C_20
REMARK    3  A    between atoms: N_4  and  C_5
REMARK    4  A    between atoms: C_10  and  N_11
REMARK    5  A    between atoms: N_11  and  C_12
REMARK                            x       y       z     vdW  Elec       q    Type
REMARK                         _______ _______ _______ _____ _____    ______ ____
ROOT
ATOM      1  C   UNL     1       5.117   5.401  18.633  0.00  0.00    +0.000 A 
ATOM      2  C   UNL     1       6.445   5.145  18.291  0.00  0.00    +0.000 A 
ATOM      3  C   UNL     1       6.943   5.724  17.138  0.00  0.00    +0.000 A 
ATOM      4  N   UNL     1       6.219   6.527  16.337  0.00  0.00    +0.000 NA
ATOM      5  C   UNL     1       4.924   6.728  16.682  0.00  0.00    +0.000 A 
ATOM      6  C   UNL     1       4.300   6.186  17.806  0.00  0.00    +0.000 A 
ENDROOT
BRANCH   1   7
ATOM      7  N   UNL     1       4.569   4.744  19.787  0.00  0.00    +0.000 N 
ATOM      8  H   UNL     1       5.216   4.678  20.577  0.00  0.00    +0.000 HD
BRANCH   7  10
ATOM      9  O   UNL     1       3.647   3.019  18.098  0.00  0.00    +0.000 OA
ATOM     10  S   UNL     1       3.935   3.164  19.511  0.00  0.00    +0.000 S 
ATOM     11  O   UNL     1       4.939   2.310  20.126  0.00  0.00    +0.000 OA
BRANCH  10  12
ATOM     12  C   UNL     1       2.370   3.150  20.529  0.00  0.00    +0.000 C 
ATOM     13  F   UNL     1       1.571   4.225  20.248  0.00  0.00    +0.000 F 
ATOM     14  F   UNL     1       1.616   2.037  20.319  0.00  0.00    +0.000 F 
ATOM     15  F   UNL     1       2.630   3.205  21.866  0.00  0.00    +0.000 F 
ENDBRANCH  10  12
ENDBRANCH   7  10
ENDBRANCH   1   7
BRANCH   6  16
ATOM     16  N   UNL     1       2.921   6.341  18.071  0.00  0.00    +0.000 N 
ATOM     17  H   UNL     1       2.414   5.463  18.142  0.00  0.00    +0.000 HD
BRANCH  16  18
ATOM     18  C   UNL     1       2.251   7.494  18.519  0.00  0.00    +0.000 A 
ATOM     19  C   UNL     1       1.977   8.557  17.644  0.00  0.00    +0.000 A 
ATOM     20  C   UNL     1       1.412   9.747  18.103  0.00  0.00    +0.000 A 
ATOM     21  C   UNL     1       1.115   9.882  19.451  0.00  0.00    +0.000 A 
ATOM     22  F   UNL     1       0.591  11.041  19.880  0.00  0.00    +0.000 F 
ATOM     23  C   UNL     1       1.369   8.839  20.338  0.00  0.00    +0.000 A 
ATOM     24 BR   UNL     1       0.980   9.033  22.179  0.00  0.00    +0.000 Br
ATOM     25  C   UNL     1       1.934   7.644  19.877  0.00  0.00    +0.000 A 
ENDBRANCH  16  18
ENDBRANCH   6  16
TORSDOF 5
ENDMDL
