MODEL 1
REMARK VINA RESULT:      -7.5      0.000      0.000
REMARK  Name = 
REMARK  9 active torsions:
REMARK  status: ('A' for Active; 'I' for Inactive)
REMARK    1  A    between atoms: C_1  and  O_2
REMARK    2  A    between atoms: O_2  and  C_3
REMARK    3  A    between atoms: C_3  and  C_5
REMARK    4  A    between atoms: C_5  and  C_6
REMARK    5  A    between atoms: C_6  and  C_8
REMARK    6  A    between atoms: C_8  and  P_9
REMARK    7  A    between atoms: P_9  and  C_10
REMARK    8  A    between atoms: P_9  and  C_16
REMARK    9  A    between atoms: P_9  and  C_22
REMARK                            x       y       z     vdW  Elec       q    Type
REMARK                         _______ _______ _______ _____ _____    ______ ____
ROOT
ATOM      1  P   UNL     1       3.745   5.623  18.495  0.00  0.00    +0.000 P 
ENDROOT
BRANCH   1   2
ATOM      2  C   UNL     1       3.406   4.398  19.756  0.00  0.00    +0.000 A 
ATOM      3  C   UNL     1       4.064   3.159  19.731  0.00  0.00    +0.000 A 
ATOM      4  C   UNL     1       3.723   2.145  20.633  0.00  0.00    +0.000 A 
ATOM      5  C   UNL     1       2.725   2.360  21.579  0.00  0.00    +0.000 A 
ATOM      6  C   UNL     1       2.075   3.589  21.628  0.00  0.00    +0.000 A 
ATOM      7  C   UNL     1       2.411   4.597  20.721  0.00  0.00    +0.000 A 
ENDBRANCH   1   2
BRANCH   1   8
ATOM      8  C   UNL     1       5.473   6.081  18.486  0.00  0.00    +0.000 A 
ATOM      9  C   UNL     1       6.387   5.455  19.343  0.00  0.00    +0.000 A 
ATOM     10  C   UNL     1       7.732   5.834  19.363  0.00  0.00    +0.000 A 
ATOM     11  C   UNL     1       8.186   6.840  18.513  0.00  0.00    +0.000 A 
ATOM     12  C   UNL     1       7.298   7.453  17.636  0.00  0.00    +0.000 A 
ATOM     13  C   UNL     1       5.952   7.074  17.619  0.00  0.00    +0.000 A 
ENDBRANCH   1   8
BRANCH   1  14
ATOM     14  C   UNL     1       2.746   7.097  18.647  0.00  0.00    +0.000 A 
ATOM     15  C   UNL     1       2.113   7.443  19.852  0.00  0.00    +0.000 A 
ATOM     16  C   UNL     1       1.431   8.651  19.995  0.00  0.00    +0.000 A 
ATOM     17  C   UNL     1       1.343   9.527  18.921  0.00  0.00    +0.000 A 
ATOM     18  C   UNL     1       1.927   9.187  17.704  0.00  0.00    +0.000 A 
ATOM     19  C   UNL     1       2.616   7.977  17.566  0.00  0.00    +0.000 A 
ENDBRANCH   1  14
BRANCH   1  20
ATOM     20  C   UNL     1       3.371   4.797  16.915  0.00  0.00    +0.000 C 
BRANCH  20  21
ATOM     21  C   UNL     1       4.576   4.195  16.231  0.00  0.00    +0.000 C 
ATOM     22  O   UNL     1       5.114   3.162  16.623  0.00  0.00    +0.000 OA
BRANCH  21  23
ATOM     23  C   UNL     1       5.086   4.879  14.999  0.00  0.00    +0.000 C 
BRANCH  23  24
ATOM     24  C   UNL     1       6.482   4.449  14.684  0.00  0.00    +0.000 C 
ATOM     25  O   UNL     1       7.485   4.932  15.191  0.00  0.00    +0.000 OA
BRANCH  24  27
ATOM     26  C   UNL     1       6.460   3.841  12.425  0.00  0.00    +0.000 C 
ATOM     27  O   UNL     1       6.455   3.423  13.790  0.00  0.00    +0.000 OA
ENDBRANCH  24  27
ENDBRANCH  23  24
ENDBRANCH  21  23
ENDBRANCH  20  21
ENDBRANCH   1  20
TORSDOF 8
ENDMDL
MODEL 2
REMARK VINA RESULT:      -7.4      0.188      4.599
REMARK  Name = 
REMARK  9 active torsions:
REMARK  status: ('A' for Active; 'I' for Inactive)
REMARK    1  A    between atoms: C_1  and  O_2
REMARK    2  A    between atoms: O_2  and  C_3
REMARK    3  A    between atoms: C_3  and  C_5
REMARK    4  A    between atoms: C_5  and  C_6
REMARK    5  A    between atoms: C_6  and  C_8
REMARK    6  A    between atoms: C_8  and  P_9
REMARK    7  A    between atoms: P_9  and  C_10
REMARK    8  A    between atoms: P_9  and  C_16
REMARK    9  A    between atoms: P_9  and  C_22
REMARK                            x       y       z     vdW  Elec       q    Type
REMARK                         _______ _______ _______ _____ _____    ______ ____
ROOT
ATOM      1  P   UNL     1       3.845   5.617  18.453  0.00  0.00    +0.000 P 
ENDROOT
BRANCH   1   2
ATOM      2  C   UNL     1       5.587   6.031  18.422  0.00  0.00    +0.000 A 
ATOM      3  C   UNL     1       6.473   5.418  19.323  0.00  0.00    +0.000 A 
ATOM      4  C   UNL     1       7.812   5.818  19.397  0.00  0.00    +0.000 A 
ATOM      5  C   UNL     1       8.285   6.828  18.566  0.00  0.00    +0.000 A 
ATOM      6  C   UNL     1       7.424   7.433  17.656  0.00  0.00    +0.000 A 
ATOM      7  C   UNL     1       6.086   7.039  17.590  0.00  0.00    +0.000 A 
ENDBRANCH   1   2
BRANCH   1   8
ATOM      8  C   UNL     1       2.836   7.077  18.653  0.00  0.00    +0.000 A 
ATOM      9  C   UNL     1       2.229   7.368  19.883  0.00  0.00    +0.000 A 
ATOM     10  C   UNL     1       1.410   8.491  20.034  0.00  0.00    +0.000 A 
ATOM     11  C   UNL     1       1.196   9.349  18.958  0.00  0.00    +0.000 A 
ATOM     12  C   UNL     1       1.814   9.090  17.739  0.00  0.00    +0.000 A 
ATOM     13  C   UNL     1       2.630   7.966  17.588  0.00  0.00    +0.000 A 
ENDBRANCH   1   8
BRANCH   1  14
ATOM     14  C   UNL     1       3.418   4.427  19.717  0.00  0.00    +0.000 A 
ATOM     15  C   UNL     1       2.428   4.690  20.677  0.00  0.00    +0.000 A 
ATOM     16  C   UNL     1       2.021   3.715  21.588  0.00  0.00    +0.000 A 
ATOM     17  C   UNL     1       2.620   2.462  21.574  0.00  0.00    +0.000 A 
ATOM     18  C   UNL     1       3.634   2.193  20.659  0.00  0.00    +0.000 A 
ATOM     19  C   UNL     1       4.036   3.170  19.743  0.00  0.00    +0.000 A 
ENDBRANCH   1  14
BRANCH   1  20
ATOM     20  C   UNL     1       3.494   4.908  16.811  0.00  0.00    +0.000 C 
BRANCH  20  21
ATOM     21  C   UNL     1       4.701   4.319  16.120  0.00  0.00    +0.000 C 
ATOM     22  O   UNL     1       5.251   3.290  16.507  0.00  0.00    +0.000 OA
BRANCH  21  23
ATOM     23  C   UNL     1       5.199   5.012  14.888  0.00  0.00    +0.000 C 
BRANCH  23  24
ATOM     24  C   UNL     1       6.562   4.526  14.511  0.00  0.00    +0.000 C 
ATOM     25  O   UNL     1       7.599   4.891  15.049  0.00  0.00    +0.000 OA
BRANCH  24  27
ATOM     26  C   UNL     1       6.941   4.043  12.254  0.00  0.00    +0.000 C 
ATOM     27  O   UNL     1       6.460   3.597  13.521  0.00  0.00    +0.000 OA
ENDBRANCH  24  27
ENDBRANCH  23  24
ENDBRANCH  21  23
ENDBRANCH  20  21
ENDBRANCH   1  20
TORSDOF 8
ENDMDL
MODEL 3
REMARK VINA RESULT:      -7.4      0.270      1.336
REMARK  Name = 
REMARK  9 active torsions:
REMARK  status: ('A' for Active; 'I' for Inactive)
REMARK    1  A    between atoms: C_1  and  O_2
REMARK    2  A    between atoms: O_2  and  C_3
REMARK    3  A    between atoms: C_3  and  C_5
REMARK    4  A    between atoms: C_5  and  C_6
REMARK    5  A    between atoms: C_6  and  C_8
REMARK    6  A    between atoms: C_8  and  P_9
REMARK    7  A    between atoms: P_9  and  C_10
REMARK    8  A    between atoms: P_9  and  C_16
REMARK    9  A    between atoms: P_9  and  C_22
REMARK                            x       y       z     vdW  Elec       q    Type
REMARK                         _______ _______ _______ _____ _____    ______ ____
ROOT
ATOM      1  P   UNL     1       3.810   5.543  18.412  0.00  0.00    +0.000 P 
ENDROOT
BRANCH   1   2
ATOM      2  C   UNL     1       3.419   4.244  19.581  0.00  0.00    +0.000 A 
ATOM      3  C   UNL     1       2.426   4.446  20.553  0.00  0.00    +0.000 A 
ATOM      4  C   UNL     1       2.192   3.491  21.549  0.00  0.00    +0.000 A 
ATOM      5  C   UNL     1       2.942   2.320  21.583  0.00  0.00    +0.000 A 
ATOM      6  C   UNL     1       3.918   2.097  20.617  0.00  0.00    +0.000 A 
ATOM      7  C   UNL     1       4.156   3.055  19.628  0.00  0.00    +0.000 A 
ENDBRANCH   1   2
BRANCH   1   8
ATOM      8  C   UNL     1       5.531   6.012  18.517  0.00  0.00    +0.000 A 
ATOM      9  C   UNL     1       6.055   7.013  17.688  0.00  0.00    +0.000 A 
ATOM     10  C   UNL     1       7.408   7.358  17.742  0.00  0.00    +0.000 A 
ATOM     11  C   UNL     1       8.257   6.714  18.638  0.00  0.00    +0.000 A 
ATOM     12  C   UNL     1       7.748   5.738  19.488  0.00  0.00    +0.000 A 
ATOM     13  C   UNL     1       6.395   5.392  19.431  0.00  0.00    +0.000 A 
ENDBRANCH   1   8
BRANCH   1  14
ATOM     14  C   UNL     1       2.791   6.999  18.600  0.00  0.00    +0.000 A 
ATOM     15  C   UNL     1       2.186   7.329  19.823  0.00  0.00    +0.000 A 
ATOM     16  C   UNL     1       1.488   8.525  19.992  0.00  0.00    +0.000 A 
ATOM     17  C   UNL     1       1.355   9.404  18.925  0.00  0.00    +0.000 A 
ATOM     18  C   UNL     1       1.908   9.078  17.689  0.00  0.00    +0.000 A 
ATOM     19  C   UNL     1       2.613   7.881  17.526  0.00  0.00    +0.000 A 
ENDBRANCH   1  14
BRANCH   1  20
ATOM     20  C   UNL     1       3.523   4.809  16.769  0.00  0.00    +0.000 C 
BRANCH  20  21
ATOM     21  C   UNL     1       4.782   4.380  16.055  0.00  0.00    +0.000 C 
ATOM     22  O   UNL     1       5.419   3.378  16.377  0.00  0.00    +0.000 OA
BRANCH  21  23
ATOM     23  C   UNL     1       5.225   5.198  14.881  0.00  0.00    +0.000 C 
BRANCH  23  24
ATOM     24  C   UNL     1       6.537   4.715  14.352  0.00  0.00    +0.000 C 
ATOM     25  O   UNL     1       7.625   5.155  14.696  0.00  0.00    +0.000 OA
BRANCH  24  27
ATOM     26  C   UNL     1       6.945   3.890  12.201  0.00  0.00    +0.000 C 
ATOM     27  O   UNL     1       6.330   3.695  13.473  0.00  0.00    +0.000 OA
ENDBRANCH  24  27
ENDBRANCH  23  24
ENDBRANCH  21  23
ENDBRANCH  20  21
ENDBRANCH   1  20
TORSDOF 8
ENDMDL
MODEL 4
REMARK VINA RESULT:      -7.3      0.257      1.334
REMARK  Name = 
REMARK  9 active torsions:
REMARK  status: ('A' for Active; 'I' for Inactive)
REMARK    1  A    between atoms: C_1  and  O_2
REMARK    2  A    between atoms: O_2  and  C_3
REMARK    3  A    between atoms: C_3  and  C_5
REMARK    4  A    between atoms: C_5  and  C_6
REMARK    5  A    between atoms: C_6  and  C_8
REMARK    6  A    between atoms: C_8  and  P_9
REMARK    7  A    between atoms: P_9  and  C_10
REMARK    8  A    between atoms: P_9  and  C_16
REMARK    9  A    between atoms: P_9  and  C_22
REMARK                            x       y       z     vdW  Elec       q    Type
REMARK                         _______ _______ _______ _____ _____    ______ ____
ROOT
ATOM      1  P   UNL     1       3.842   5.650  18.508  0.00  0.00    +0.000 P 
ENDROOT
BRANCH   1   2
ATOM      2  C   UNL     1       3.439   4.429  19.754  0.00  0.00    +0.000 A 
ATOM      3  C   UNL     1       4.021   3.152  19.703  0.00  0.00    +0.000 A 
ATOM      4  C   UNL     1       3.626   2.147  20.594  0.00  0.00    +0.000 A 
ATOM      5  C   UNL     1       2.652   2.408  21.552  0.00  0.00    +0.000 A 
ATOM      6  C   UNL     1       2.078   3.673  21.627  0.00  0.00    +0.000 A 
ATOM      7  C   UNL     1       2.467   4.673  20.731  0.00  0.00    +0.000 A 
ENDBRANCH   1   2
BRANCH   1   8
ATOM      8  C   UNL     1       5.575   6.085  18.563  0.00  0.00    +0.000 A 
ATOM      9  C   UNL     1       6.090   7.090  17.734  0.00  0.00    +0.000 A 
ATOM     10  C   UNL     1       7.451   7.409  17.749  0.00  0.00    +0.000 A 
ATOM     11  C   UNL     1       8.317   6.733  18.606  0.00  0.00    +0.000 A 
ATOM     12  C   UNL     1       7.817   5.752  19.456  0.00  0.00    +0.000 A 
ATOM     13  C   UNL     1       6.456   5.432  19.437  0.00  0.00    +0.000 A 
ENDBRANCH   1   8
BRANCH   1  14
ATOM     14  C   UNL     1       2.858   7.138  18.625  0.00  0.00    +0.000 A 
ATOM     15  C   UNL     1       2.695   8.006  17.534  0.00  0.00    +0.000 A 
ATOM     16  C   UNL     1       1.834   9.102  17.598  0.00  0.00    +0.000 A 
ATOM     17  C   UNL     1       1.141   9.369  18.772  0.00  0.00    +0.000 A 
ATOM     18  C   UNL     1       1.321   8.547  19.881  0.00  0.00    +0.000 A 
ATOM     19  C   UNL     1       2.179   7.445  19.811  0.00  0.00    +0.000 A 
ENDBRANCH   1  14
BRANCH   1  20
ATOM     20  C   UNL     1       3.516   4.831  16.913  0.00  0.00    +0.000 C 
BRANCH  20  21
ATOM     21  C   UNL     1       4.760   4.419  16.163  0.00  0.00    +0.000 C 
ATOM     22  O   UNL     1       5.414   3.421  16.460  0.00  0.00    +0.000 OA
BRANCH  21  23
ATOM     23  C   UNL     1       5.165   5.252  14.985  0.00  0.00    +0.000 C 
BRANCH  23  24
ATOM     24  C   UNL     1       6.429   4.739  14.373  0.00  0.00    +0.000 C 
ATOM     25  O   UNL     1       7.549   5.138  14.664  0.00  0.00    +0.000 OA
BRANCH  24  27
ATOM     26  C   UNL     1       6.780   3.891  12.222  0.00  0.00    +0.000 C 
ATOM     27  O   UNL     1       6.140   3.746  13.488  0.00  0.00    +0.000 OA
ENDBRANCH  24  27
ENDBRANCH  23  24
ENDBRANCH  21  23
ENDBRANCH  20  21
ENDBRANCH   1  20
TORSDOF 8
ENDMDL
MODEL 5
REMARK VINA RESULT:      -7.3      1.604      4.834
REMARK  Name = 
REMARK  9 active torsions:
REMARK  status: ('A' for Active; 'I' for Inactive)
REMARK    1  A    between atoms: C_1  and  O_2
REMARK    2  A    between atoms: O_2  and  C_3
REMARK    3  A    between atoms: C_3  and  C_5
REMARK    4  A    between atoms: C_5  and  C_6
REMARK    5  A    between atoms: C_6  and  C_8
REMARK    6  A    between atoms: C_8  and  P_9
REMARK    7  A    between atoms: P_9  and  C_10
REMARK    8  A    between atoms: P_9  and  C_16
REMARK    9  A    between atoms: P_9  and  C_22
REMARK                            x       y       z     vdW  Elec       q    Type
REMARK                         _______ _______ _______ _____ _____    ______ ____
ROOT
ATOM      1  P   UNL     1       3.493   5.827  18.629  0.00  0.00    +0.000 P 
ENDROOT
BRANCH   1   2
ATOM      2  C   UNL     1       4.233   5.572  17.019  0.00  0.00    +0.000 A 
ATOM      3  C   UNL     1       4.425   4.270  16.530  0.00  0.00    +0.000 A 
ATOM      4  C   UNL     1       5.112   4.048  15.331  0.00  0.00    +0.000 A 
ATOM      5  C   UNL     1       5.608   5.124  14.602  0.00  0.00    +0.000 A 
ATOM      6  C   UNL     1       5.411   6.421  15.064  0.00  0.00    +0.000 A 
ATOM      7  C   UNL     1       4.733   6.641  16.266  0.00  0.00    +0.000 A 
ENDBRANCH   1   2
BRANCH   1   8
ATOM      8  C   UNL     1       2.479   4.434  19.104  0.00  0.00    +0.000 A 
ATOM      9  C   UNL     1       2.471   3.969  20.426  0.00  0.00    +0.000 A 
ATOM     10  C   UNL     1       1.707   2.858  20.794  0.00  0.00    +0.000 A 
ATOM     11  C   UNL     1       0.926   2.202  19.845  0.00  0.00    +0.000 A 
ATOM     12  C   UNL     1       0.901   2.668  18.534  0.00  0.00    +0.000 A 
ATOM     13  C   UNL     1       1.668   3.777  18.167  0.00  0.00    +0.000 A 
ENDBRANCH   1   8
BRANCH   1  14
ATOM     14  C   UNL     1       2.523   7.325  18.739  0.00  0.00    +0.000 A 
ATOM     15  C   UNL     1       1.876   7.704  19.925  0.00  0.00    +0.000 A 
ATOM     16  C   UNL     1       1.218   8.929  20.036  0.00  0.00    +0.000 A 
ATOM     17  C   UNL     1       1.168   9.788  18.947  0.00  0.00    +0.000 A 
ATOM     18  C   UNL     1       1.765   9.414  17.746  0.00  0.00    +0.000 A 
ATOM     19  C   UNL     1       2.430   8.189  17.640  0.00  0.00    +0.000 A 
ENDBRANCH   1  14
BRANCH   1  20
ATOM     20  C   UNL     1       4.895   5.927  19.789  0.00  0.00    +0.000 C 
BRANCH  20  21
ATOM     21  C   UNL     1       5.993   4.926  19.519  0.00  0.00    +0.000 C 
ATOM     22  O   UNL     1       5.766   3.759  19.206  0.00  0.00    +0.000 OA
BRANCH  21  23
ATOM     23  C   UNL     1       7.408   5.414  19.598  0.00  0.00    +0.000 C 
BRANCH  23  24
ATOM     24  C   UNL     1       7.824   6.064  18.318  0.00  0.00    +0.000 C 
ATOM     25  O   UNL     1       7.788   5.520  17.223  0.00  0.00    +0.000 OA
BRANCH  24  27
ATOM     26  C   UNL     1       7.755   8.282  17.577  0.00  0.00    +0.000 C 
ATOM     27  O   UNL     1       8.203   7.349  18.559  0.00  0.00    +0.000 OA
ENDBRANCH  24  27
ENDBRANCH  23  24
ENDBRANCH  21  23
ENDBRANCH  20  21
ENDBRANCH   1  20
TORSDOF 8
ENDMDL
MODEL 6
REMARK VINA RESULT:      -7.3      0.370      4.770
REMARK  Name = 
REMARK  9 active torsions:
REMARK  status: ('A' for Active; 'I' for Inactive)
REMARK    1  A    between atoms: C_1  and  O_2
REMARK    2  A    between atoms: O_2  and  C_3
REMARK    3  A    between atoms: C_3  and  C_5
REMARK    4  A    between atoms: C_5  and  C_6
REMARK    5  A    between atoms: C_6  and  C_8
REMARK    6  A    between atoms: C_8  and  P_9
REMARK    7  A    between atoms: P_9  and  C_10
REMARK    8  A    between atoms: P_9  and  C_16
REMARK    9  A    between atoms: P_9  and  C_22
REMARK                            x       y       z     vdW  Elec       q    Type
REMARK                         _______ _______ _______ _____ _____    ______ ____
ROOT
ATOM      1  P   UNL     1       3.789   5.694  18.469  0.00  0.00    +0.000 P 
ENDROOT
BRANCH   1   2
ATOM      2  C   UNL     1       5.515   6.163  18.553  0.00  0.00    +0.000 A 
ATOM      3  C   UNL     1       6.003   7.201  17.744  0.00  0.00    +0.000 A 
ATOM      4  C   UNL     1       7.370   7.499  17.706  0.00  0.00    +0.000 A 
ATOM      5  C   UNL     1       8.265   6.770  18.481  0.00  0.00    +0.000 A 
ATOM      6  C   UNL     1       7.795   5.749  19.301  0.00  0.00    +0.000 A 
ATOM      7  C   UNL     1       6.431   5.447  19.332  0.00  0.00    +0.000 A 
ENDBRANCH   1   2
BRANCH   1   8
ATOM      8  C   UNL     1       2.721   7.103  18.729  0.00  0.00    +0.000 A 
ATOM      9  C   UNL     1       2.403   7.968  17.674  0.00  0.00    +0.000 A 
ATOM     10  C   UNL     1       1.597   9.091  17.881  0.00  0.00    +0.000 A 
ATOM     11  C   UNL     1       1.084   9.358  19.148  0.00  0.00    +0.000 A 
ATOM     12  C   UNL     1       1.366   8.494  20.200  0.00  0.00    +0.000 A 
ATOM     13  C   UNL     1       2.175   7.373  19.992  0.00  0.00    +0.000 A 
ENDBRANCH   1   8
BRANCH   1  14
ATOM     14  C   UNL     1       3.346   4.400  19.619  0.00  0.00    +0.000 A 
ATOM     15  C   UNL     1       4.060   3.193  19.688  0.00  0.00    +0.000 A 
ATOM     16  C   UNL     1       3.781   2.236  20.665  0.00  0.00    +0.000 A 
ATOM     17  C   UNL     1       2.757   2.457  21.576  0.00  0.00    +0.000 A 
ATOM     18  C   UNL     1       2.006   3.627  21.500  0.00  0.00    +0.000 A 
ATOM     19  C   UNL     1       2.293   4.587  20.524  0.00  0.00    +0.000 A 
ENDBRANCH   1  14
BRANCH   1  20
ATOM     20  C   UNL     1       3.537   5.102  16.764  0.00  0.00    +0.000 C 
BRANCH  20  21
ATOM     21  C   UNL     1       4.754   4.451  16.149  0.00  0.00    +0.000 C 
ATOM     22  O   UNL     1       5.212   3.385  16.554  0.00  0.00    +0.000 OA
BRANCH  21  23
ATOM     23  C   UNL     1       5.379   5.130  14.969  0.00  0.00    +0.000 C 
BRANCH  23  24
ATOM     24  C   UNL     1       6.812   4.732  14.816  0.00  0.00    +0.000 C 
ATOM     25  O   UNL     1       7.605   4.636  15.743  0.00  0.00    +0.000 OA
BRANCH  24  27
ATOM     26  C   UNL     1       6.131   3.576  12.899  0.00  0.00    +0.000 C 
ATOM     27  O   UNL     1       7.074   4.457  13.509  0.00  0.00    +0.000 OA
ENDBRANCH  24  27
ENDBRANCH  23  24
ENDBRANCH  21  23
ENDBRANCH  20  21
ENDBRANCH   1  20
TORSDOF 8
ENDMDL
MODEL 7
REMARK VINA RESULT:      -7.3      0.375      1.645
REMARK  Name = 
REMARK  9 active torsions:
REMARK  status: ('A' for Active; 'I' for Inactive)
REMARK    1  A    between atoms: C_1  and  O_2
REMARK    2  A    between atoms: O_2  and  C_3
REMARK    3  A    between atoms: C_3  and  C_5
REMARK    4  A    between atoms: C_5  and  C_6
REMARK    5  A    between atoms: C_6  and  C_8
REMARK    6  A    between atoms: C_8  and  P_9
REMARK    7  A    between atoms: P_9  and  C_10
REMARK    8  A    between atoms: P_9  and  C_16
REMARK    9  A    between atoms: P_9  and  C_22
REMARK                            x       y       z     vdW  Elec       q    Type
REMARK                         _______ _______ _______ _____ _____    ______ ____
ROOT
ATOM      1  P   UNL     1       3.803   5.688  18.424  0.00  0.00    +0.000 P 
ENDROOT
BRANCH   1   2
ATOM      2  C   UNL     1       3.374   4.385  19.574  0.00  0.00    +0.000 A 
ATOM      3  C   UNL     1       2.375   4.596  20.538  0.00  0.00    +0.000 A 
ATOM      4  C   UNL     1       2.112   3.635  21.521  0.00  0.00    +0.000 A 
ATOM      5  C   UNL     1       2.837   2.449  21.549  0.00  0.00    +0.000 A 
ATOM      6  C   UNL     1       3.818   2.217  20.590  0.00  0.00    +0.000 A 
ATOM      7  C   UNL     1       4.086   3.181  19.615  0.00  0.00    +0.000 A 
ENDBRANCH   1   2
BRANCH   1   8
ATOM      8  C   UNL     1       5.539   6.101  18.531  0.00  0.00    +0.000 A 
ATOM      9  C   UNL     1       6.077   7.148  17.771  0.00  0.00    +0.000 A 
ATOM     10  C   UNL     1       7.440   7.451  17.825  0.00  0.00    +0.000 A 
ATOM     11  C   UNL     1       8.286   6.717  18.653  0.00  0.00    +0.000 A 
ATOM     12  C   UNL     1       7.764   5.692  19.436  0.00  0.00    +0.000 A 
ATOM     13  C   UNL     1       6.400   5.389  19.378  0.00  0.00    +0.000 A 
ENDBRANCH   1   8
BRANCH   1  14
ATOM     14  C   UNL     1       2.832   7.173  18.636  0.00  0.00    +0.000 A 
ATOM     15  C   UNL     1       2.597   8.063  17.576  0.00  0.00    +0.000 A 
ATOM     16  C   UNL     1       1.744   9.158  17.719  0.00  0.00    +0.000 A 
ATOM     17  C   UNL     1       1.131   9.401  18.942  0.00  0.00    +0.000 A 
ATOM     18  C   UNL     1       1.383   8.557  20.020  0.00  0.00    +0.000 A 
ATOM     19  C   UNL     1       2.233   7.457  19.870  0.00  0.00    +0.000 A 
ENDBRANCH   1  14
BRANCH   1  20
ATOM     20  C   UNL     1       3.490   4.989  16.771  0.00  0.00    +0.000 C 
BRANCH  20  21
ATOM     21  C   UNL     1       4.717   4.427  16.094  0.00  0.00    +0.000 C 
ATOM     22  O   UNL     1       5.175   3.318  16.364  0.00  0.00    +0.000 OA
BRANCH  21  23
ATOM     23  C   UNL     1       5.355   5.254  15.020  0.00  0.00    +0.000 C 
BRANCH  23  24
ATOM     24  C   UNL     1       6.772   4.837  14.790  0.00  0.00    +0.000 C 
ATOM     25  O   UNL     1       7.587   4.639  15.680  0.00  0.00    +0.000 OA
BRANCH  24  27
ATOM     26  C   UNL     1       6.293   3.570  12.882  0.00  0.00    +0.000 C 
ATOM     27  O   UNL     1       6.990   4.675  13.456  0.00  0.00    +0.000 OA
ENDBRANCH  24  27
ENDBRANCH  23  24
ENDBRANCH  21  23
ENDBRANCH  20  21
ENDBRANCH   1  20
TORSDOF 8
ENDMDL
MODEL 8
REMARK VINA RESULT:      -7.2      0.362      4.678
REMARK  Name = 
REMARK  9 active torsions:
REMARK  status: ('A' for Active; 'I' for Inactive)
REMARK    1  A    between atoms: C_1  and  O_2
REMARK    2  A    between atoms: O_2  and  C_3
REMARK    3  A    between atoms: C_3  and  C_5
REMARK    4  A    between atoms: C_5  and  C_6
REMARK    5  A    between atoms: C_6  and  C_8
REMARK    6  A    between atoms: C_8  and  P_9
REMARK    7  A    between atoms: P_9  and  C_10
REMARK    8  A    between atoms: P_9  and  C_16
REMARK    9  A    between atoms: P_9  and  C_22
REMARK                            x       y       z     vdW  Elec       q    Type
REMARK                         _______ _______ _______ _____ _____    ______ ____
ROOT
ATOM      1  P   UNL     1       3.883   5.638  18.393  0.00  0.00    +0.000 P 
ENDROOT
BRANCH   1   2
ATOM      2  C   UNL     1       2.814   7.064  18.557  0.00  0.00    +0.000 A 
ATOM      3  C   UNL     1       2.673   7.966  17.490  0.00  0.00    +0.000 A 
ATOM      4  C   UNL     1       1.941   9.149  17.641  0.00  0.00    +0.000 A 
ATOM      5  C   UNL     1       1.332   9.442  18.857  0.00  0.00    +0.000 A 
ATOM      6  C   UNL     1       1.447   8.550  19.919  0.00  0.00    +0.000 A 
ATOM      7  C   UNL     1       2.186   7.374  19.769  0.00  0.00    +0.000 A 
ENDBRANCH   1   2
BRANCH   1   8
ATOM      8  C   UNL     1       3.507   4.401  19.627  0.00  0.00    +0.000 A 
ATOM      9  C   UNL     1       4.167   3.165  19.630  0.00  0.00    +0.000 A 
ATOM     10  C   UNL     1       3.852   2.182  20.572  0.00  0.00    +0.000 A 
ATOM     11  C   UNL     1       2.877   2.428  21.537  0.00  0.00    +0.000 A 
ATOM     12  C   UNL     1       2.233   3.660  21.566  0.00  0.00    +0.000 A 
ATOM     13  C   UNL     1       2.548   4.641  20.621  0.00  0.00    +0.000 A 
ENDBRANCH   1   8
BRANCH   1  14
ATOM     14  C   UNL     1       5.623   6.040  18.472  0.00  0.00    +0.000 A 
ATOM     15  C   UNL     1       6.183   7.066  17.695  0.00  0.00    +0.000 A 
ATOM     16  C   UNL     1       7.516   7.449  17.847  0.00  0.00    +0.000 A 
ATOM     17  C   UNL     1       8.325   6.789  18.761  0.00  0.00    +0.000 A 
ATOM     18  C   UNL     1       7.804   5.739  19.512  0.00  0.00    +0.000 A 
ATOM     19  C   UNL     1       6.465   5.362  19.363  0.00  0.00    +0.000 A 
ENDBRANCH   1  14
BRANCH   1  20
ATOM     20  C   UNL     1       3.497   4.937  16.756  0.00  0.00    +0.000 C 
BRANCH  20  21
ATOM     21  C   UNL     1       4.689   4.353  16.036  0.00  0.00    +0.000 C 
ATOM     22  O   UNL     1       5.144   3.241  16.298  0.00  0.00    +0.000 OA
BRANCH  21  23
ATOM     23  C   UNL     1       5.294   5.163  14.930  0.00  0.00    +0.000 C 
BRANCH  23  24
ATOM     24  C   UNL     1       6.732   4.807  14.727  0.00  0.00    +0.000 C 
ATOM     25  O   UNL     1       7.547   4.680  15.631  0.00  0.00    +0.000 OA
BRANCH  24  27
ATOM     26  C   UNL     1       6.228   3.534  12.830  0.00  0.00    +0.000 C 
ATOM     27  O   UNL     1       6.972   4.609  13.402  0.00  0.00    +0.000 OA
ENDBRANCH  24  27
ENDBRANCH  23  24
ENDBRANCH  21  23
ENDBRANCH  20  21
ENDBRANCH   1  20
TORSDOF 8
ENDMDL
MODEL 9
REMARK VINA RESULT:      -7.2      0.547      1.238
REMARK  Name = 
REMARK  9 active torsions:
REMARK  status: ('A' for Active; 'I' for Inactive)
REMARK    1  A    between atoms: C_1  and  O_2
REMARK    2  A    between atoms: O_2  and  C_3
REMARK    3  A    between atoms: C_3  and  C_5
REMARK    4  A    between atoms: C_5  and  C_6
REMARK    5  A    between atoms: C_6  and  C_8
REMARK    6  A    between atoms: C_8  and  P_9
REMARK    7  A    between atoms: P_9  and  C_10
REMARK    8  A    between atoms: P_9  and  C_16
REMARK    9  A    between atoms: P_9  and  C_22
REMARK                            x       y       z     vdW  Elec       q    Type
REMARK                         _______ _______ _______ _____ _____    ______ ____
ROOT
ATOM      1  P   UNL     1       3.865   5.584  18.467  0.00  0.00    +0.000 P 
ENDROOT
BRANCH   1   2
ATOM      2  C   UNL     1       3.511   4.352  19.717  0.00  0.00    +0.000 A 
ATOM      3  C   UNL     1       4.153   3.104  19.679  0.00  0.00    +0.000 A 
ATOM      4  C   UNL     1       3.799   2.087  20.573  0.00  0.00    +0.000 A 
ATOM      5  C   UNL     1       2.806   2.306  21.521  0.00  0.00    +0.000 A 
ATOM      6  C   UNL     1       2.172   3.543  21.583  0.00  0.00    +0.000 A 
ATOM      7  C   UNL     1       2.520   4.554  20.684  0.00  0.00    +0.000 A 
ENDBRANCH   1   2
BRANCH   1   8
ATOM      8  C   UNL     1       5.579   6.086  18.520  0.00  0.00    +0.000 A 
ATOM      9  C   UNL     1       6.048   7.127  17.706  0.00  0.00    +0.000 A 
ATOM     10  C   UNL     1       7.395   7.500  17.719  0.00  0.00    +0.000 A 
ATOM     11  C   UNL     1       8.293   6.844  18.559  0.00  0.00    +0.000 A 
ATOM     12  C   UNL     1       7.838   5.828  19.393  0.00  0.00    +0.000 A 
ATOM     13  C   UNL     1       6.491   5.455  19.377  0.00  0.00    +0.000 A 
ENDBRANCH   1   8
BRANCH   1  14
ATOM     14  C   UNL     1       2.823   7.031  18.579  0.00  0.00    +0.000 A 
ATOM     15  C   UNL     1       2.181   7.393  19.774  0.00  0.00    +0.000 A 
ATOM     16  C   UNL     1       1.464   8.584  19.885  0.00  0.00    +0.000 A 
ATOM     17  C   UNL     1       1.349   9.426  18.786  0.00  0.00    +0.000 A 
ATOM     18  C   UNL     1       1.940   9.068  17.578  0.00  0.00    +0.000 A 
ATOM     19  C   UNL     1       2.664   7.876  17.472  0.00  0.00    +0.000 A 
ENDBRANCH   1  14
BRANCH   1  20
ATOM     20  C   UNL     1       3.571   4.747  16.875  0.00  0.00    +0.000 C 
BRANCH  20  21
ATOM     21  C   UNL     1       4.831   4.353  16.141  0.00  0.00    +0.000 C 
ATOM     22  O   UNL     1       5.497   3.366  16.447  0.00  0.00    +0.000 OA
BRANCH  21  23
ATOM     23  C   UNL     1       5.237   5.191  14.967  0.00  0.00    +0.000 C 
BRANCH  23  24
ATOM     24  C   UNL     1       6.307   4.517  14.170  0.00  0.00    +0.000 C 
ATOM     25  O   UNL     1       6.130   3.526  13.474  0.00  0.00    +0.000 OA
BRANCH  24  27
ATOM     26  C   UNL     1       8.132   5.484  13.072  0.00  0.00    +0.000 C 
ATOM     27  O   UNL     1       7.478   5.197  14.307  0.00  0.00    +0.000 OA
ENDBRANCH  24  27
ENDBRANCH  23  24
ENDBRANCH  21  23
ENDBRANCH  20  21
ENDBRANCH   1  20
TORSDOF 8
ENDMDL
