MODEL 1
REMARK VINA RESULT:      -8.6      0.000      0.000
REMARK  Name = 
REMARK  9 active torsions:
REMARK  status: ('A' for Active; 'I' for Inactive)
REMARK    1  A    between atoms: C_2  and  O_3
REMARK    2  A    between atoms: C_2  and  C_4
REMARK    3  A    between atoms: C_4  and  N_5
REMARK    4  A    between atoms: N_5  and  C_6
REMARK    5  A    between atoms: N_5  and  S_20
REMARK    6  A    between atoms: C_6  and  C_7
REMARK    7  A    between atoms: C_10  and  O_11
REMARK    8  A    between atoms: O_11  and  C_12
REMARK    9  A    between atoms: S_20  and  C_23
REMARK                            x       y       z     vdW  Elec       q    Type
REMARK                         _______ _______ _______ _____ _____    ______ ____
ROOT
ATOM      1  N   UNL     1       3.431   4.698  19.037  0.00  0.00    +0.000 NA
ENDROOT
BRANCH   1   2
ATOM      2  S   UNL     1       5.129   4.377  19.047  0.00  0.00    +0.000 S 
ATOM      3  O   UNL     1       5.787   5.478  19.719  0.00  0.00    +0.000 OA
ATOM      4  O   UNL     1       5.266   3.014  19.512  0.00  0.00    +0.000 OA
BRANCH   2   5
ATOM      5  C   UNL     1       5.740   4.416  17.378  0.00  0.00    +0.000 A 
ATOM      6  C   UNL     1       7.071   4.653  17.045  0.00  0.00    +0.000 A 
ATOM      7  C   UNL     1       7.432   4.714  15.691  0.00  0.00    +0.000 A 
ATOM      8  C   UNL     1       6.485   4.494  14.690  0.00  0.00    +0.000 A 
ATOM      9 CL   UNL     1       6.942   4.588  13.032  0.00  0.00    +0.000 Cl
ATOM     10  C   UNL     1       5.165   4.200  15.021  0.00  0.00    +0.000 A 
ATOM     11  C   UNL     1       4.792   4.168  16.365  0.00  0.00    +0.000 A 
ENDBRANCH   2   5
ENDBRANCH   1   2
BRANCH   1  12
ATOM     12  C   UNL     1       2.575   3.480  19.243  0.00  0.00    +0.000 C 
BRANCH  12  14
ATOM     13  O   UNL     1       0.595   2.357  18.451  0.00  0.00    +0.000 OA
ATOM     14  C   UNL     1       1.388   3.281  18.335  0.00  0.00    +0.000 C 
BRANCH  14  15
ATOM     15  O   UNL     1       1.256   4.221  17.371  0.00  0.00    +0.000 OA
ATOM     16  H   UNL     1       1.877   4.982  17.463  0.00  0.00    +0.000 HD
ENDBRANCH  14  15
ENDBRANCH  12  14
ENDBRANCH   1  12
BRANCH   1  17
ATOM     17  C   UNL     1       3.110   5.743  20.072  0.00  0.00    +0.000 C 
BRANCH  17  18
ATOM     18  C   UNL     1       2.360   6.967  19.593  0.00  0.00    +0.000 A 
ATOM     19  C   UNL     1       1.602   7.736  20.493  0.00  0.00    +0.000 A 
ATOM     20  C   UNL     1       1.056   8.960  20.096  0.00  0.00    +0.000 A 
ATOM     21  C   UNL     1       1.235   9.410  18.788  0.00  0.00    +0.000 A 
ATOM     22  C   UNL     1       1.875   8.588  17.855  0.00  0.00    +0.000 A 
ATOM     23  C   UNL     1       2.470   7.393  18.264  0.00  0.00    +0.000 A 
BRANCH  21  24
ATOM     24  O   UNL     1       0.720  10.652  18.494  0.00  0.00    +0.000 OA
BRANCH  24  25
ATOM     25  C   UNL     1      -0.643  10.813  18.366  0.00  0.00    +0.000 A 
ATOM     26  C   UNL     1      -1.209  11.834  19.132  0.00  0.00    +0.000 A 
ATOM     27  C   UNL     1      -2.586  12.058  19.097  0.00  0.00    +0.000 A 
ATOM     28  C   UNL     1      -3.402  11.264  18.293  0.00  0.00    +0.000 A 
ATOM     29  C   UNL     1      -2.838  10.268  17.497  0.00  0.00    +0.000 A 
ATOM     30  C   UNL     1      -1.458  10.064  17.510  0.00  0.00    +0.000 A 
ENDBRANCH  24  25
ENDBRANCH  21  24
ENDBRANCH  17  18
ENDBRANCH   1  17
TORSDOF 9
ENDMDL
MODEL 2
REMARK VINA RESULT:      -8.5      0.260      1.420
REMARK  Name = 
REMARK  9 active torsions:
REMARK  status: ('A' for Active; 'I' for Inactive)
REMARK    1  A    between atoms: C_2  and  O_3
REMARK    2  A    between atoms: C_2  and  C_4
REMARK    3  A    between atoms: C_4  and  N_5
REMARK    4  A    between atoms: N_5  and  C_6
REMARK    5  A    between atoms: N_5  and  S_20
REMARK    6  A    between atoms: C_6  and  C_7
REMARK    7  A    between atoms: C_10  and  O_11
REMARK    8  A    between atoms: O_11  and  C_12
REMARK    9  A    between atoms: S_20  and  C_23
REMARK                            x       y       z     vdW  Elec       q    Type
REMARK                         _______ _______ _______ _____ _____    ______ ____
ROOT
ATOM      1  N   UNL     1       3.280   4.696  19.065  0.00  0.00    +0.000 NA
ENDROOT
BRANCH   1   2
ATOM      2  S   UNL     1       4.991   4.458  19.129  0.00  0.00    +0.000 S 
ATOM      3  O   UNL     1       5.579   5.619  19.765  0.00  0.00    +0.000 OA
ATOM      4  O   UNL     1       5.180   3.125  19.659  0.00  0.00    +0.000 OA
BRANCH   2   5
ATOM      5  C   UNL     1       5.642   4.452  17.475  0.00  0.00    +0.000 A 
ATOM      6  C   UNL     1       6.987   4.641  17.171  0.00  0.00    +0.000 A 
ATOM      7  C   UNL     1       7.382   4.670  15.825  0.00  0.00    +0.000 A 
ATOM      8  C   UNL     1       6.452   4.465  14.804  0.00  0.00    +0.000 A 
ATOM      9 CL   UNL     1       6.951   4.519  13.157  0.00  0.00    +0.000 Cl
ATOM     10  C   UNL     1       5.116   4.218  15.108  0.00  0.00    +0.000 A 
ATOM     11  C   UNL     1       4.711   4.219  16.443  0.00  0.00    +0.000 A 
ENDBRANCH   2   5
ENDBRANCH   1   2
BRANCH   1  12
ATOM     12  C   UNL     1       2.479   3.431  19.194  0.00  0.00    +0.000 C 
BRANCH  12  14
ATOM     13  O   UNL     1       1.073   3.967  17.311  0.00  0.00    +0.000 OA
ATOM     14  C   UNL     1       1.388   3.172  18.186  0.00  0.00    +0.000 C 
BRANCH  14  15
ATOM     15  O   UNL     1       0.777   1.972  18.317  0.00  0.00    +0.000 OA
ATOM     16  H   UNL     1       0.820   1.408  17.509  0.00  0.00    +0.000 HD
ENDBRANCH  14  15
ENDBRANCH  12  14
ENDBRANCH   1  12
BRANCH   1  17
ATOM     17  C   UNL     1       2.869   5.685  20.122  0.00  0.00    +0.000 C 
BRANCH  17  18
ATOM     18  C   UNL     1       2.400   7.040  19.640  0.00  0.00    +0.000 A 
ATOM     19  C   UNL     1       2.632   7.444  18.313  0.00  0.00    +0.000 A 
ATOM     20  C   UNL     1       2.049   8.611  17.813  0.00  0.00    +0.000 A 
ATOM     21  C   UNL     1       1.256   9.403  18.644  0.00  0.00    +0.000 A 
ATOM     22  C   UNL     1       1.130   9.076  19.998  0.00  0.00    +0.000 A 
ATOM     23  C   UNL     1       1.663   7.881  20.483  0.00  0.00    +0.000 A 
BRANCH  21  24
ATOM     24  O   UNL     1       0.668  10.502  18.060  0.00  0.00    +0.000 OA
BRANCH  24  25
ATOM     25  C   UNL     1      -0.699  10.663  18.130  0.00  0.00    +0.000 A 
ATOM     26  C   UNL     1      -1.455   9.757  17.382  0.00  0.00    +0.000 A 
ATOM     27  C   UNL     1      -2.847   9.854  17.360  0.00  0.00    +0.000 A 
ATOM     28  C   UNL     1      -3.489  10.855  18.088  0.00  0.00    +0.000 A 
ATOM     29  C   UNL     1      -2.742  11.738  18.866  0.00  0.00    +0.000 A 
ATOM     30  C   UNL     1      -1.352  11.621  18.912  0.00  0.00    +0.000 A 
ENDBRANCH  24  25
ENDBRANCH  21  24
ENDBRANCH  17  18
ENDBRANCH   1  17
TORSDOF 9
ENDMDL
MODEL 3
REMARK VINA RESULT:      -8.4      1.925      2.331
REMARK  Name = 
REMARK  9 active torsions:
REMARK  status: ('A' for Active; 'I' for Inactive)
REMARK    1  A    between atoms: C_2  and  O_3
REMARK    2  A    between atoms: C_2  and  C_4
REMARK    3  A    between atoms: C_4  and  N_5
REMARK    4  A    between atoms: N_5  and  C_6
REMARK    5  A    between atoms: N_5  and  S_20
REMARK    6  A    between atoms: C_6  and  C_7
REMARK    7  A    between atoms: C_10  and  O_11
REMARK    8  A    between atoms: O_11  and  C_12
REMARK    9  A    between atoms: S_20  and  C_23
REMARK                            x       y       z     vdW  Elec       q    Type
REMARK                         _______ _______ _______ _____ _____    ______ ____
ROOT
ATOM      1  N   UNL     1       2.884   4.749  18.303  0.00  0.00    +0.000 NA
ENDROOT
BRANCH   1   2
ATOM      2  S   UNL     1       4.447   4.013  18.256  0.00  0.00    +0.000 S 
ATOM      3  O   UNL     1       4.672   3.363  19.531  0.00  0.00    +0.000 OA
ATOM      4  O   UNL     1       4.495   3.277  17.011  0.00  0.00    +0.000 OA
BRANCH   2   5
ATOM      5  C   UNL     1       5.688   5.282  18.154  0.00  0.00    +0.000 A 
ATOM      6  C   UNL     1       6.858   5.285  18.908  0.00  0.00    +0.000 A 
ATOM      7  C   UNL     1       7.743   6.365  18.785  0.00  0.00    +0.000 A 
ATOM      8  C   UNL     1       7.483   7.401  17.886  0.00  0.00    +0.000 A 
ATOM      9 CL   UNL     1       8.573   8.729  17.758  0.00  0.00    +0.000 Cl
ATOM     10  C   UNL     1       6.343   7.372  17.088  0.00  0.00    +0.000 A 
ATOM     11  C   UNL     1       5.442   6.316  17.228  0.00  0.00    +0.000 A 
ENDBRANCH   2   5
ENDBRANCH   1   2
BRANCH   1  12
ATOM     12  C   UNL     1       1.745   3.779  18.165  0.00  0.00    +0.000 C 
BRANCH  12  14
ATOM     13  O   UNL     1       1.099   2.628  20.182  0.00  0.00    +0.000 OA
ATOM     14  C   UNL     1       1.689   2.606  19.110  0.00  0.00    +0.000 C 
BRANCH  14  15
ATOM     15  O   UNL     1       2.343   1.504  18.676  0.00  0.00    +0.000 OA
ATOM     16  H   UNL     1       2.660   0.913  19.399  0.00  0.00    +0.000 HD
ENDBRANCH  14  15
ENDBRANCH  12  14
ENDBRANCH   1  12
BRANCH   1  17
ATOM     17  C   UNL     1       2.741   5.547  19.572  0.00  0.00    +0.000 C 
BRANCH  17  18
ATOM     18  C   UNL     1       2.266   6.976  19.426  0.00  0.00    +0.000 A 
ATOM     19  C   UNL     1       2.368   7.638  18.190  0.00  0.00    +0.000 A 
ATOM     20  C   UNL     1       1.772   8.888  18.002  0.00  0.00    +0.000 A 
ATOM     21  C   UNL     1       1.096   9.502  19.057  0.00  0.00    +0.000 A 
ATOM     22  C   UNL     1       1.104   8.908  20.323  0.00  0.00    +0.000 A 
ATOM     23  C   UNL     1       1.650   7.635  20.497  0.00  0.00    +0.000 A 
BRANCH  21  24
ATOM     24  O   UNL     1       0.484  10.702  18.774  0.00  0.00    +0.000 OA
BRANCH  24  25
ATOM     25  C   UNL     1      -0.846  10.720  18.411  0.00  0.00    +0.000 A 
ATOM     26  C   UNL     1      -1.633  11.687  19.040  0.00  0.00    +0.000 A 
ATOM     27  C   UNL     1      -2.999  11.768  18.765  0.00  0.00    +0.000 A 
ATOM     28  C   UNL     1      -3.582  10.885  17.858  0.00  0.00    +0.000 A 
ATOM     29  C   UNL     1      -2.795   9.942  17.199  0.00  0.00    +0.000 A 
ATOM     30  C   UNL     1      -1.424   9.882  17.451  0.00  0.00    +0.000 A 
ENDBRANCH  24  25
ENDBRANCH  21  24
ENDBRANCH  17  18
ENDBRANCH   1  17
TORSDOF 9
ENDMDL
MODEL 4
REMARK VINA RESULT:      -8.3      0.873      1.809
REMARK  Name = 
REMARK  9 active torsions:
REMARK  status: ('A' for Active; 'I' for Inactive)
REMARK    1  A    between atoms: C_2  and  O_3
REMARK    2  A    between atoms: C_2  and  C_4
REMARK    3  A    between atoms: C_4  and  N_5
REMARK    4  A    between atoms: N_5  and  C_6
REMARK    5  A    between atoms: N_5  and  S_20
REMARK    6  A    between atoms: C_6  and  C_7
REMARK    7  A    between atoms: C_10  and  O_11
REMARK    8  A    between atoms: O_11  and  C_12
REMARK    9  A    between atoms: S_20  and  C_23
REMARK                            x       y       z     vdW  Elec       q    Type
REMARK                         _______ _______ _______ _____ _____    ______ ____
ROOT
ATOM      1  N   UNL     1       3.135   4.713  18.900  0.00  0.00    +0.000 NA
ENDROOT
BRANCH   1   2
ATOM      2  S   UNL     1       4.838   4.425  18.973  0.00  0.00    +0.000 S 
ATOM      3  O   UNL     1       5.441   5.506  19.725  0.00  0.00    +0.000 OA
ATOM      4  O   UNL     1       4.983   3.044  19.379  0.00  0.00    +0.000 OA
BRANCH   2   5
ATOM      5  C   UNL     1       5.522   4.556  17.337  0.00  0.00    +0.000 A 
ATOM      6  C   UNL     1       5.103   3.783  16.257  0.00  0.00    +0.000 A 
ATOM      7  C   UNL     1       5.750   3.933  15.022  0.00  0.00    +0.000 A 
ATOM      8  C   UNL     1       6.768   4.876  14.861  0.00  0.00    +0.000 A 
ATOM      9 CL   UNL     1       7.563   5.036  13.341  0.00  0.00    +0.000 Cl
ATOM     10  C   UNL     1       7.149   5.690  15.923  0.00  0.00    +0.000 A 
ATOM     11  C   UNL     1       6.531   5.524  17.163  0.00  0.00    +0.000 A 
ENDBRANCH   2   5
ENDBRANCH   1   2
BRANCH   1  12
ATOM     12  C   UNL     1       2.300   3.463  18.912  0.00  0.00    +0.000 C 
BRANCH  12  14
ATOM     13  O   UNL     1       2.292   2.540  21.138  0.00  0.00    +0.000 OA
ATOM     14  C   UNL     1       1.667   3.041  20.213  0.00  0.00    +0.000 C 
BRANCH  14  15
ATOM     15  O   UNL     1       0.336   3.270  20.289  0.00  0.00    +0.000 OA
ATOM     16  H   UNL     1       0.003   3.932  19.637  0.00  0.00    +0.000 HD
ENDBRANCH  14  15
ENDBRANCH  12  14
ENDBRANCH   1  12
BRANCH   1  17
ATOM     17  C   UNL     1       2.730   5.623  20.029  0.00  0.00    +0.000 C 
BRANCH  17  18
ATOM     18  C   UNL     1       2.285   7.019  19.651  0.00  0.00    +0.000 A 
ATOM     19  C   UNL     1       2.516   7.514  18.355  0.00  0.00    +0.000 A 
ATOM     20  C   UNL     1       1.954   8.726  17.947  0.00  0.00    +0.000 A 
ATOM     21  C   UNL     1       1.183   9.470  18.840  0.00  0.00    +0.000 A 
ATOM     22  C   UNL     1       1.059   9.047  20.166  0.00  0.00    +0.000 A 
ATOM     23  C   UNL     1       1.571   7.810  20.559  0.00  0.00    +0.000 A 
BRANCH  21  24
ATOM     24  O   UNL     1       0.613  10.621  18.342  0.00  0.00    +0.000 OA
BRANCH  24  25
ATOM     25  C   UNL     1      -0.759  10.733  18.285  0.00  0.00    +0.000 A 
ATOM     26  C   UNL     1      -1.404   9.859  17.408  0.00  0.00    +0.000 A 
ATOM     27  C   UNL     1      -2.791   9.914  17.254  0.00  0.00    +0.000 A 
ATOM     28  C   UNL     1      -3.537  10.841  17.979  0.00  0.00    +0.000 A 
ATOM     29  C   UNL     1      -2.903  11.690  18.884  0.00  0.00    +0.000 A 
ATOM     30  C   UNL     1      -1.521  11.614  19.060  0.00  0.00    +0.000 A 
ENDBRANCH  24  25
ENDBRANCH  21  24
ENDBRANCH  17  18
ENDBRANCH   1  17
TORSDOF 9
ENDMDL
MODEL 5
REMARK VINA RESULT:      -8.2      0.991      1.653
REMARK  Name = 
REMARK  9 active torsions:
REMARK  status: ('A' for Active; 'I' for Inactive)
REMARK    1  A    between atoms: C_2  and  O_3
REMARK    2  A    between atoms: C_2  and  C_4
REMARK    3  A    between atoms: C_4  and  N_5
REMARK    4  A    between atoms: N_5  and  C_6
REMARK    5  A    between atoms: N_5  and  S_20
REMARK    6  A    between atoms: C_6  and  C_7
REMARK    7  A    between atoms: C_10  and  O_11
REMARK    8  A    between atoms: O_11  and  C_12
REMARK    9  A    between atoms: S_20  and  C_23
REMARK                            x       y       z     vdW  Elec       q    Type
REMARK                         _______ _______ _______ _____ _____    ______ ____
ROOT
ATOM      1  N   UNL     1       2.949   4.642  18.334  0.00  0.00    +0.000 NA
ENDROOT
BRANCH   1   2
ATOM      2  S   UNL     1       4.374   3.671  18.210  0.00  0.00    +0.000 S 
ATOM      3  O   UNL     1       5.235   3.999  19.328  0.00  0.00    +0.000 OA
ATOM      4  O   UNL     1       3.908   2.321  17.981  0.00  0.00    +0.000 OA
BRANCH   2   5
ATOM      5  C   UNL     1       5.285   4.155  16.761  0.00  0.00    +0.000 A 
ATOM      6  C   UNL     1       4.765   4.121  15.471  0.00  0.00    +0.000 A 
ATOM      7  C   UNL     1       5.591   4.476  14.395  0.00  0.00    +0.000 A 
ATOM      8  C   UNL     1       6.903   4.902  14.614  0.00  0.00    +0.000 A 
ATOM      9 CL   UNL     1       7.910   5.319  13.281  0.00  0.00    +0.000 Cl
ATOM     10  C   UNL     1       7.407   4.992  15.908  0.00  0.00    +0.000 A 
ATOM     11  C   UNL     1       6.601   4.612  16.981  0.00  0.00    +0.000 A 
ENDBRANCH   2   5
ENDBRANCH   1   2
BRANCH   1  12
ATOM     12  C   UNL     1       1.675   3.851  18.433  0.00  0.00    +0.000 C 
BRANCH  12  14
ATOM     13  O   UNL     1       1.620   2.326  20.299  0.00  0.00    +0.000 OA
ATOM     14  C   UNL     1       1.237   3.373  19.794  0.00  0.00    +0.000 C 
BRANCH  14  15
ATOM     15  O   UNL     1       0.381   4.205  20.431  0.00  0.00    +0.000 OA
ATOM     16  H   UNL     1      -0.410   3.754  20.813  0.00  0.00    +0.000 HD
ENDBRANCH  14  15
ENDBRANCH  12  14
ENDBRANCH   1  12
BRANCH   1  17
ATOM     17  C   UNL     1       3.077   5.576  19.508  0.00  0.00    +0.000 C 
BRANCH  17  18
ATOM     18  C   UNL     1       2.557   6.984  19.315  0.00  0.00    +0.000 A 
ATOM     19  C   UNL     1       2.747   7.653  18.093  0.00  0.00    +0.000 A 
ATOM     20  C   UNL     1       2.118   8.876  17.848  0.00  0.00    +0.000 A 
ATOM     21  C   UNL     1       1.322   9.459  18.834  0.00  0.00    +0.000 A 
ATOM     22  C   UNL     1       1.236   8.863  20.096  0.00  0.00    +0.000 A 
ATOM     23  C   UNL     1       1.816   7.613  20.322  0.00  0.00    +0.000 A 
BRANCH  21  24
ATOM     24  O   UNL     1       0.688  10.632  18.492  0.00  0.00    +0.000 OA
BRANCH  24  25
ATOM     25  C   UNL     1      -0.672  10.635  18.274  0.00  0.00    +0.000 A 
ATOM     26  C   UNL     1      -1.394  11.619  18.952  0.00  0.00    +0.000 A 
ATOM     27  C   UNL     1      -2.783  11.687  18.822  0.00  0.00    +0.000 A 
ATOM     28  C   UNL     1      -3.454  10.772  18.012  0.00  0.00    +0.000 A 
ATOM     29  C   UNL     1      -2.735   9.811  17.304  0.00  0.00    +0.000 A 
ATOM     30  C   UNL     1      -1.344   9.763  17.410  0.00  0.00    +0.000 A 
ENDBRANCH  24  25
ENDBRANCH  21  24
ENDBRANCH  17  18
ENDBRANCH   1  17
TORSDOF 9
ENDMDL
MODEL 6
REMARK VINA RESULT:      -8.1      0.671      1.193
REMARK  Name = 
REMARK  9 active torsions:
REMARK  status: ('A' for Active; 'I' for Inactive)
REMARK    1  A    between atoms: C_2  and  O_3
REMARK    2  A    between atoms: C_2  and  C_4
REMARK    3  A    between atoms: C_4  and  N_5
REMARK    4  A    between atoms: N_5  and  C_6
REMARK    5  A    between atoms: N_5  and  S_20
REMARK    6  A    between atoms: C_6  and  C_7
REMARK    7  A    between atoms: C_10  and  O_11
REMARK    8  A    between atoms: O_11  and  C_12
REMARK    9  A    between atoms: S_20  and  C_23
REMARK                            x       y       z     vdW  Elec       q    Type
REMARK                         _______ _______ _______ _____ _____    ______ ____
ROOT
ATOM      1  N   UNL     1       3.019   4.785  19.099  0.00  0.00    +0.000 NA
ENDROOT
BRANCH   1   2
ATOM      2  S   UNL     1       4.736   4.608  19.003  0.00  0.00    +0.000 S 
ATOM      3  O   UNL     1       5.339   5.751  19.657  0.00  0.00    +0.000 OA
ATOM      4  O   UNL     1       5.013   3.255  19.434  0.00  0.00    +0.000 OA
BRANCH   2   5
ATOM      5  C   UNL     1       5.241   4.722  17.303  0.00  0.00    +0.000 A 
ATOM      6  C   UNL     1       5.158   5.888  16.546  0.00  0.00    +0.000 A 
ATOM      7  C   UNL     1       5.536   5.850  15.196  0.00  0.00    +0.000 A 
ATOM      8  C   UNL     1       6.035   4.676  14.628  0.00  0.00    +0.000 A 
ATOM      9 CL   UNL     1       6.481   4.642  12.965  0.00  0.00    +0.000 Cl
ATOM     10  C   UNL     1       6.173   3.525  15.398  0.00  0.00    +0.000 A 
ATOM     11  C   UNL     1       5.770   3.546  16.733  0.00  0.00    +0.000 A 
ENDBRANCH   2   5
ENDBRANCH   1   2
BRANCH   1  12
ATOM     12  C   UNL     1       2.278   3.491  19.282  0.00  0.00    +0.000 C 
BRANCH  12  14
ATOM     13  O   UNL     1       0.340   2.274  18.525  0.00  0.00    +0.000 OA
ATOM     14  C   UNL     1       1.140   3.182  18.342  0.00  0.00    +0.000 C 
BRANCH  14  15
ATOM     15  O   UNL     1       1.061   4.002  17.269  0.00  0.00    +0.000 OA
ATOM     16  H   UNL     1       1.208   4.955  17.478  0.00  0.00    +0.000 HD
ENDBRANCH  14  15
ENDBRANCH  12  14
ENDBRANCH   1  12
BRANCH   1  17
ATOM     17  C   UNL     1       2.672   5.747  20.204  0.00  0.00    +0.000 C 
BRANCH  17  18
ATOM     18  C   UNL     1       2.202   7.123  19.784  0.00  0.00    +0.000 A 
ATOM     19  C   UNL     1       2.398   7.572  18.467  0.00  0.00    +0.000 A 
ATOM     20  C   UNL     1       1.811   8.762  18.027  0.00  0.00    +0.000 A 
ATOM     21  C   UNL     1       1.051   9.529  18.909  0.00  0.00    +0.000 A 
ATOM     22  C   UNL     1       0.961   9.154  20.253  0.00  0.00    +0.000 A 
ATOM     23  C   UNL     1       1.498   7.938  20.679  0.00  0.00    +0.000 A 
BRANCH  21  24
ATOM     24  O   UNL     1       0.456  10.654  18.383  0.00  0.00    +0.000 OA
BRANCH  24  25
ATOM     25  C   UNL     1      -0.906  10.668  18.168  0.00  0.00    +0.000 A 
ATOM     26  C   UNL     1      -1.621  11.641  18.869  0.00  0.00    +0.000 A 
ATOM     27  C   UNL     1      -3.009  11.720  18.745  0.00  0.00    +0.000 A 
ATOM     28  C   UNL     1      -3.687  10.826  17.917  0.00  0.00    +0.000 A 
ATOM     29  C   UNL     1      -2.975   9.877  17.185  0.00  0.00    +0.000 A 
ATOM     30  C   UNL     1      -1.584   9.819  17.287  0.00  0.00    +0.000 A 
ENDBRANCH  24  25
ENDBRANCH  21  24
ENDBRANCH  17  18
ENDBRANCH   1  17
TORSDOF 9
ENDMDL
MODEL 7
REMARK VINA RESULT:      -8.0      1.770      2.325
REMARK  Name = 
REMARK  9 active torsions:
REMARK  status: ('A' for Active; 'I' for Inactive)
REMARK    1  A    between atoms: C_2  and  O_3
REMARK    2  A    between atoms: C_2  and  C_4
REMARK    3  A    between atoms: C_4  and  N_5
REMARK    4  A    between atoms: N_5  and  C_6
REMARK    5  A    between atoms: N_5  and  S_20
REMARK    6  A    between atoms: C_6  and  C_7
REMARK    7  A    between atoms: C_10  and  O_11
REMARK    8  A    between atoms: O_11  and  C_12
REMARK    9  A    between atoms: S_20  and  C_23
REMARK                            x       y       z     vdW  Elec       q    Type
REMARK                         _______ _______ _______ _____ _____    ______ ____
ROOT
ATOM      1  N   UNL     1       3.070   4.548  18.850  0.00  0.00    +0.000 NA
ENDROOT
BRANCH   1   2
ATOM      2  S   UNL     1       4.659   3.987  18.465  0.00  0.00    +0.000 S 
ATOM      3  O   UNL     1       5.191   3.318  19.634  0.00  0.00    +0.000 OA
ATOM      4  O   UNL     1       4.536   3.309  17.193  0.00  0.00    +0.000 OA
BRANCH   2   5
ATOM      5  C   UNL     1       5.724   5.386  18.202  0.00  0.00    +0.000 A 
ATOM      6  C   UNL     1       5.481   6.379  17.258  0.00  0.00    +0.000 A 
ATOM      7  C   UNL     1       6.418   7.411  17.099  0.00  0.00    +0.000 A 
ATOM      8  C   UNL     1       7.555   7.472  17.908  0.00  0.00    +0.000 A 
ATOM      9 CL   UNL     1       8.703   8.737  17.691  0.00  0.00    +0.000 Cl
ATOM     10  C   UNL     1       7.771   6.512  18.893  0.00  0.00    +0.000 A 
ATOM     11  C   UNL     1       6.859   5.466  19.034  0.00  0.00    +0.000 A 
ENDBRANCH   2   5
ENDBRANCH   1   2
BRANCH   1  12
ATOM     12  C   UNL     1       2.159   3.483  19.393  0.00  0.00    +0.000 C 
BRANCH  12  14
ATOM     13  O   UNL     1       0.227   2.146  18.857  0.00  0.00    +0.000 OA
ATOM     14  C   UNL     1       0.966   3.077  18.566  0.00  0.00    +0.000 C 
BRANCH  14  15
ATOM     15  O   UNL     1       0.762   3.836  17.464  0.00  0.00    +0.000 OA
ATOM     16  H   UNL     1       0.593   3.316  16.643  0.00  0.00    +0.000 HD
ENDBRANCH  14  15
ENDBRANCH  12  14
ENDBRANCH   1  12
BRANCH   1  17
ATOM     17  C   UNL     1       3.163   5.699  19.815  0.00  0.00    +0.000 C 
BRANCH  17  18
ATOM     18  C   UNL     1       2.398   6.954  19.453  0.00  0.00    +0.000 A 
ATOM     19  C   UNL     1       1.730   7.693  20.444  0.00  0.00    +0.000 A 
ATOM     20  C   UNL     1       1.174   8.940  20.148  0.00  0.00    +0.000 A 
ATOM     21  C   UNL     1       1.253   9.445  18.850  0.00  0.00    +0.000 A 
ATOM     22  C   UNL     1       1.801   8.658  17.833  0.00  0.00    +0.000 A 
ATOM     23  C   UNL     1       2.406   7.437  18.139  0.00  0.00    +0.000 A 
BRANCH  21  24
ATOM     24  O   UNL     1       0.738  10.706  18.653  0.00  0.00    +0.000 OA
BRANCH  24  25
ATOM     25  C   UNL     1      -0.627  10.880  18.567  0.00  0.00    +0.000 A 
ATOM     26  C   UNL     1      -1.290  10.042  17.668  0.00  0.00    +0.000 A 
ATOM     27  C   UNL     1      -2.669  10.159  17.484  0.00  0.00    +0.000 A 
ATOM     28  C   UNL     1      -3.390  11.113  18.200  0.00  0.00    +0.000 A 
ATOM     29  C   UNL     1      -2.740  11.927  19.126  0.00  0.00    +0.000 A 
ATOM     30  C   UNL     1      -1.366  11.788  19.332  0.00  0.00    +0.000 A 
ENDBRANCH  24  25
ENDBRANCH  21  24
ENDBRANCH  17  18
ENDBRANCH   1  17
TORSDOF 9
ENDMDL
MODEL 8
REMARK VINA RESULT:      -8.0      1.824      2.190
REMARK  Name = 
REMARK  9 active torsions:
REMARK  status: ('A' for Active; 'I' for Inactive)
REMARK    1  A    between atoms: C_2  and  O_3
REMARK    2  A    between atoms: C_2  and  C_4
REMARK    3  A    between atoms: C_4  and  N_5
REMARK    4  A    between atoms: N_5  and  C_6
REMARK    5  A    between atoms: N_5  and  S_20
REMARK    6  A    between atoms: C_6  and  C_7
REMARK    7  A    between atoms: C_10  and  O_11
REMARK    8  A    between atoms: O_11  and  C_12
REMARK    9  A    between atoms: S_20  and  C_23
REMARK                            x       y       z     vdW  Elec       q    Type
REMARK                         _______ _______ _______ _____ _____    ______ ____
ROOT
ATOM      1  N   UNL     1       3.000   4.486  19.153  0.00  0.00    +0.000 NA
ENDROOT
BRANCH   1   2
ATOM      2  S   UNL     1       4.507   3.911  18.533  0.00  0.00    +0.000 S 
ATOM      3  O   UNL     1       5.165   3.162  19.584  0.00  0.00    +0.000 OA
ATOM      4  O   UNL     1       4.198   3.310  17.253  0.00  0.00    +0.000 OA
BRANCH   2   5
ATOM      5  C   UNL     1       5.572   5.297  18.209  0.00  0.00    +0.000 A 
ATOM      6  C   UNL     1       5.325   6.253  17.229  0.00  0.00    +0.000 A 
ATOM      7  C   UNL     1       6.262   7.276  17.024  0.00  0.00    +0.000 A 
ATOM      8  C   UNL     1       7.404   7.366  17.823  0.00  0.00    +0.000 A 
ATOM      9 CL   UNL     1       8.553   8.620  17.549  0.00  0.00    +0.000 Cl
ATOM     10  C   UNL     1       7.625   6.445  18.843  0.00  0.00    +0.000 A 
ATOM     11  C   UNL     1       6.713   5.406  19.031  0.00  0.00    +0.000 A 
ENDBRANCH   2   5
ENDBRANCH   1   2
BRANCH   1  12
ATOM     12  C   UNL     1       2.250   3.478  19.977  0.00  0.00    +0.000 C 
BRANCH  12  14
ATOM     13  O   UNL     1       1.448   1.828  18.413  0.00  0.00    +0.000 OA
ATOM     14  C   UNL     1       1.199   2.639  19.295  0.00  0.00    +0.000 C 
BRANCH  14  15
ATOM     15  O   UNL     1      -0.061   2.846  19.743  0.00  0.00    +0.000 OA
ATOM     16  H   UNL     1      -0.306   2.296  20.524  0.00  0.00    +0.000 HD
ENDBRANCH  14  15
ENDBRANCH  12  14
ENDBRANCH   1  12
BRANCH   1  17
ATOM     17  C   UNL     1       3.229   5.744  19.947  0.00  0.00    +0.000 C 
BRANCH  17  18
ATOM     18  C   UNL     1       2.422   6.959  19.545  0.00  0.00    +0.000 A 
ATOM     19  C   UNL     1       1.684   7.674  20.504  0.00  0.00    +0.000 A 
ATOM     20  C   UNL     1       1.084   8.892  20.176  0.00  0.00    +0.000 A 
ATOM     21  C   UNL     1       1.189   9.391  18.877  0.00  0.00    +0.000 A 
ATOM     22  C   UNL     1       1.809   8.622  17.888  0.00  0.00    +0.000 A 
ATOM     23  C   UNL     1       2.458   7.433  18.228  0.00  0.00    +0.000 A 
BRANCH  21  24
ATOM     24  O   UNL     1       0.624  10.626  18.650  0.00  0.00    +0.000 OA
BRANCH  24  25
ATOM     25  C   UNL     1      -0.726  10.721  18.391  0.00  0.00    +0.000 A 
ATOM     26  C   UNL     1      -1.413  11.706  19.105  0.00  0.00    +0.000 A 
ATOM     27  C   UNL     1      -2.790  11.864  18.937  0.00  0.00    +0.000 A 
ATOM     28  C   UNL     1      -3.485  11.038  18.055  0.00  0.00    +0.000 A 
ATOM     29  C   UNL     1      -2.799  10.078  17.313  0.00  0.00    +0.000 A 
ATOM     30  C   UNL     1      -1.418   9.942  17.457  0.00  0.00    +0.000 A 
ENDBRANCH  24  25
ENDBRANCH  21  24
ENDBRANCH  17  18
ENDBRANCH   1  17
TORSDOF 9
ENDMDL
MODEL 9
REMARK VINA RESULT:      -8.0      1.602      2.332
REMARK  Name = 
REMARK  9 active torsions:
REMARK  status: ('A' for Active; 'I' for Inactive)
REMARK    1  A    between atoms: C_2  and  O_3
REMARK    2  A    between atoms: C_2  and  C_4
REMARK    3  A    between atoms: C_4  and  N_5
REMARK    4  A    between atoms: N_5  and  C_6
REMARK    5  A    between atoms: N_5  and  S_20
REMARK    6  A    between atoms: C_6  and  C_7
REMARK    7  A    between atoms: C_10  and  O_11
REMARK    8  A    between atoms: O_11  and  C_12
REMARK    9  A    between atoms: S_20  and  C_23
REMARK                            x       y       z     vdW  Elec       q    Type
REMARK                         _______ _______ _______ _____ _____    ______ ____
ROOT
ATOM      1  N   UNL     1       3.406   4.812  19.045  0.00  0.00    +0.000 NA
ENDROOT
BRANCH   1   2
ATOM      2  S   UNL     1       5.076   4.369  19.038  0.00  0.00    +0.000 S 
ATOM      3  O   UNL     1       5.815   5.405  19.729  0.00  0.00    +0.000 OA
ATOM      4  O   UNL     1       5.115   2.990  19.475  0.00  0.00    +0.000 OA
BRANCH   2   5
ATOM      5  C   UNL     1       5.681   4.398  17.367  0.00  0.00    +0.000 A 
ATOM      6  C   UNL     1       6.995   4.703  17.024  0.00  0.00    +0.000 A 
ATOM      7  C   UNL     1       7.351   4.749  15.668  0.00  0.00    +0.000 A 
ATOM      8  C   UNL     1       6.416   4.447  14.675  0.00  0.00    +0.000 A 
ATOM      9 CL   UNL     1       6.864   4.522  13.014  0.00  0.00    +0.000 Cl
ATOM     10  C   UNL     1       5.116   4.085  15.018  0.00  0.00    +0.000 A 
ATOM     11  C   UNL     1       4.748   4.068  16.364  0.00  0.00    +0.000 A 
ENDBRANCH   2   5
ENDBRANCH   1   2
BRANCH   1  12
ATOM     12  C   UNL     1       2.468   3.668  19.309  0.00  0.00    +0.000 C 
BRANCH  12  14
ATOM     13  O   UNL     1       0.598   2.456  18.391  0.00  0.00    +0.000 OA
ATOM     14  C   UNL     1       1.360   3.410  18.320  0.00  0.00    +0.000 C 
BRANCH  14  15
ATOM     15  O   UNL     1       1.264   4.333  17.334  0.00  0.00    +0.000 OA
ATOM     16  H   UNL     1       0.431   4.275  16.809  0.00  0.00    +0.000 HD
ENDBRANCH  14  15
ENDBRANCH  12  14
ENDBRANCH   1  12
BRANCH   1  17
ATOM     17  C   UNL     1       3.181   5.914  20.046  0.00  0.00    +0.000 C 
BRANCH  17  18
ATOM     18  C   UNL     1       2.389   7.113  19.570  0.00  0.00    +0.000 A 
ATOM     19  C   UNL     1       1.596   7.846  20.471  0.00  0.00    +0.000 A 
ATOM     20  C   UNL     1       1.007   9.051  20.081  0.00  0.00    +0.000 A 
ATOM     21  C   UNL     1       1.179   9.519  18.777  0.00  0.00    +0.000 A 
ATOM     22  C   UNL     1       1.857   8.730  17.842  0.00  0.00    +0.000 A 
ATOM     23  C   UNL     1       2.493   7.555  18.246  0.00  0.00    +0.000 A 
BRANCH  21  24
ATOM     24  O   UNL     1       0.620  10.743  18.490  0.00  0.00    +0.000 OA
BRANCH  24  25
ATOM     25  C   UNL     1       1.224  11.894  18.948  0.00  0.00    +0.000 A 
ATOM     26  C   UNL     1       2.311  12.349  18.198  0.00  0.00    +0.000 A 
ATOM     27  C   UNL     1       3.011  13.489  18.596  0.00  0.00    +0.000 A 
ATOM     28  C   UNL     1       2.626  14.180  19.744  0.00  0.00    +0.000 A 
ATOM     29  C   UNL     1       1.519  13.752  20.475  0.00  0.00    +0.000 A 
ATOM     30  C   UNL     1       0.801  12.630  20.060  0.00  0.00    +0.000 A 
ENDBRANCH  24  25
ENDBRANCH  21  24
ENDBRANCH  17  18
ENDBRANCH   1  17
TORSDOF 9
ENDMDL
