MODEL 1
REMARK VINA RESULT:      -7.4      0.000      0.000
REMARK  Name = 
REMARK  10 active torsions:
REMARK  status: ('A' for Active; 'I' for Inactive)
REMARK    1  A    between atoms: C_1  and  C_2
REMARK    2  A    between atoms: C_2  and  C_3
REMARK    3  A    between atoms: C_3  and  C_4
REMARK    4  A    between atoms: C_3  and  S_5
REMARK    5  A    between atoms: S_5  and  C_6
REMARK    6  A    between atoms: C_8  and  O_9
REMARK    7  A    between atoms: C_10  and  C_11
REMARK    8  A    between atoms: C_12  and  C_13
REMARK    9  A    between atoms: C_13  and  C_14
REMARK   10  A    between atoms: C_13  and  C_15
REMARK                            x       y       z     vdW  Elec       q    Type
REMARK                         _______ _______ _______ _____ _____    ______ ____
ROOT
ATOM      1  C   UNL     1       5.690   4.795  15.363  0.00  0.00    +0.000 A 
ATOM      2  N   UNL     1       6.856   4.350  15.836  0.00  0.00    +0.000 NA
ATOM      3  C   UNL     1       7.024   4.519  17.149  0.00  0.00    +0.000 A 
ATOM      4  C   UNL     1       6.114   5.071  18.028  0.00  0.00    +0.000 A 
ATOM      5  C   UNL     1       6.420   5.209  19.485  0.00  0.00    +0.000 C 
ATOM      6  C   UNL     1       4.945   5.528  17.430  0.00  0.00    +0.000 A 
ATOM      7  N   UNL     1       4.738   5.391  16.098  0.00  0.00    +0.000 NA
ENDROOT
BRANCH   3   8
ATOM      8  O   UNL     1       8.233   4.073  17.582  0.00  0.00    +0.000 OA
ATOM      9  H   UNL     1       8.802   4.818  17.316  0.00  0.00    +0.000 HD
ENDBRANCH   3   8
BRANCH   6  10
ATOM     10  C   UNL     1       3.812   6.174  18.231  0.00  0.00    +0.000 C 
ATOM     11  C   UNL     1       3.089   7.277  17.437  0.00  0.00    +0.000 C 
BRANCH  10  12
ATOM     12  C   UNL     1       2.808   5.176  18.781  0.00  0.00    +0.000 A 
ATOM     13  C   UNL     1       2.197   5.401  20.020  0.00  0.00    +0.000 A 
ATOM     14  F   UNL     1       2.513   6.493  20.733  0.00  0.00    +0.000 F 
ATOM     15  C   UNL     1       1.253   4.521  20.549  0.00  0.00    +0.000 A 
ATOM     16  C   UNL     1       0.894   3.379  19.836  0.00  0.00    +0.000 A 
ATOM     17  C   UNL     1       1.482   3.136  18.597  0.00  0.00    +0.000 A 
ATOM     18  C   UNL     1       2.425   4.028  18.082  0.00  0.00    +0.000 A 
ATOM     19  F   UNL     1       2.943   3.757  16.879  0.00  0.00    +0.000 F 
ENDBRANCH  10  12
ENDBRANCH   6  10
BRANCH   1  20
ATOM     20  S   UNL     1       5.319   4.504  13.655  0.00  0.00    +0.000 S 
BRANCH  20  21
ATOM     21  C   UNL     1       6.988   3.997  13.069  0.00  0.00    +0.000 C 
ATOM     22  C   UNL     1       7.728   5.266  12.637  0.00  0.00    +0.000 C 
BRANCH  21  24
ATOM     23  C   UNL     1       5.448   2.517  11.655  0.00  0.00    +0.000 C 
ATOM     24  C   UNL     1       6.876   2.972  11.925  0.00  0.00    +0.000 C 
ENDBRANCH  21  24
ENDBRANCH  20  21
ENDBRANCH   1  20
TORSDOF 6
ENDMDL
MODEL 2
REMARK VINA RESULT:      -7.1      0.492      1.775
REMARK  Name = 
REMARK  10 active torsions:
REMARK  status: ('A' for Active; 'I' for Inactive)
REMARK    1  A    between atoms: C_1  and  C_2
REMARK    2  A    between atoms: C_2  and  C_3
REMARK    3  A    between atoms: C_3  and  C_4
REMARK    4  A    between atoms: C_3  and  S_5
REMARK    5  A    between atoms: S_5  and  C_6
REMARK    6  A    between atoms: C_8  and  O_9
REMARK    7  A    between atoms: C_10  and  C_11
REMARK    8  A    between atoms: C_12  and  C_13
REMARK    9  A    between atoms: C_13  and  C_14
REMARK   10  A    between atoms: C_13  and  C_15
REMARK                            x       y       z     vdW  Elec       q    Type
REMARK                         _______ _______ _______ _____ _____    ______ ____
ROOT
ATOM      1  C   UNL     1       5.618   5.216  15.580  0.00  0.00    +0.000 A 
ATOM      2  N   UNL     1       6.741   4.672  16.055  0.00  0.00    +0.000 NA
ATOM      3  C   UNL     1       6.802   4.597  17.386  0.00  0.00    +0.000 A 
ATOM      4  C   UNL     1       5.825   4.996  18.276  0.00  0.00    +0.000 A 
ATOM      5  C   UNL     1       6.011   4.863  19.753  0.00  0.00    +0.000 C 
ATOM      6  C   UNL     1       4.710   5.575  17.680  0.00  0.00    +0.000 A 
ATOM      7  N   UNL     1       4.612   5.686  16.333  0.00  0.00    +0.000 NA
ENDROOT
BRANCH   3   8
ATOM      8  O   UNL     1       7.970   4.059  17.825  0.00  0.00    +0.000 OA
ATOM      9  H   UNL     1       8.384   3.816  16.976  0.00  0.00    +0.000 HD
ENDBRANCH   3   8
BRANCH   6  10
ATOM     10  C   UNL     1       3.518   6.085  18.492  0.00  0.00    +0.000 C 
ATOM     11  C   UNL     1       2.745   7.199  17.763  0.00  0.00    +0.000 C 
BRANCH  10  12
ATOM     12  C   UNL     1       2.566   4.986  18.934  0.00  0.00    +0.000 A 
ATOM     13  C   UNL     1       2.249   3.937  18.064  0.00  0.00    +0.000 A 
ATOM     14  F   UNL     1       2.773   3.911  16.829  0.00  0.00    +0.000 F 
ATOM     15  C   UNL     1       1.398   2.897  18.439  0.00  0.00    +0.000 A 
ATOM     16  C   UNL     1       0.839   2.886  19.715  0.00  0.00    +0.000 A 
ATOM     17  C   UNL     1       1.144   3.915  20.602  0.00  0.00    +0.000 A 
ATOM     18  C   UNL     1       1.999   4.947  20.211  0.00  0.00    +0.000 A 
ATOM     19  F   UNL     1       2.275   5.900  21.109  0.00  0.00    +0.000 F 
ENDBRANCH  10  12
ENDBRANCH   6  10
BRANCH   1  20
ATOM     20  S   UNL     1       5.388   5.246  13.823  0.00  0.00    +0.000 S 
BRANCH  20  21
ATOM     21  C   UNL     1       6.840   4.238  13.313  0.00  0.00    +0.000 C 
ATOM     22  C   UNL     1       7.902   5.202  12.779  0.00  0.00    +0.000 C 
BRANCH  21  24
ATOM     23  C   UNL     1       4.966   3.267  11.862  0.00  0.00    +0.000 C 
ATOM     24  C   UNL     1       6.432   3.184  12.267  0.00  0.00    +0.000 C 
ENDBRANCH  21  24
ENDBRANCH  20  21
ENDBRANCH   1  20
TORSDOF 6
ENDMDL
MODEL 3
REMARK VINA RESULT:      -7.0      1.492      2.223
REMARK  Name = 
REMARK  10 active torsions:
REMARK  status: ('A' for Active; 'I' for Inactive)
REMARK    1  A    between atoms: C_1  and  C_2
REMARK    2  A    between atoms: C_2  and  C_3
REMARK    3  A    between atoms: C_3  and  C_4
REMARK    4  A    between atoms: C_3  and  S_5
REMARK    5  A    between atoms: S_5  and  C_6
REMARK    6  A    between atoms: C_8  and  O_9
REMARK    7  A    between atoms: C_10  and  C_11
REMARK    8  A    between atoms: C_12  and  C_13
REMARK    9  A    between atoms: C_13  and  C_14
REMARK   10  A    between atoms: C_13  and  C_15
REMARK                            x       y       z     vdW  Elec       q    Type
REMARK                         _______ _______ _______ _____ _____    ______ ____
ROOT
ATOM      1  C   UNL     1       6.553   4.850  15.399  0.00  0.00    +0.000 A 
ATOM      2  N   UNL     1       7.517   4.745  16.317  0.00  0.00    +0.000 NA
ATOM      3  C   UNL     1       7.080   4.531  17.559  0.00  0.00    +0.000 A 
ATOM      4  C   UNL     1       5.765   4.388  17.953  0.00  0.00    +0.000 A 
ATOM      5  C   UNL     1       5.398   4.152  19.383  0.00  0.00    +0.000 C 
ATOM      6  C   UNL     1       4.840   4.543  16.927  0.00  0.00    +0.000 A 
ATOM      7  N   UNL     1       5.238   4.777  15.652  0.00  0.00    +0.000 NA
ENDROOT
BRANCH   3   8
ATOM      8  O   UNL     1       8.093   4.453  18.463  0.00  0.00    +0.000 OA
ATOM      9  H   UNL     1       8.523   3.626  18.175  0.00  0.00    +0.000 HD
ENDBRANCH   3   8
BRANCH   6  10
ATOM     10  C   UNL     1       3.332   4.425  17.157  0.00  0.00    +0.000 C 
ATOM     11  C   UNL     1       2.879   2.965  17.339  0.00  0.00    +0.000 C 
BRANCH  10  12
ATOM     12  C   UNL     1       2.821   5.281  18.303  0.00  0.00    +0.000 A 
ATOM     13  C   UNL     1       2.884   6.677  18.223  0.00  0.00    +0.000 A 
ATOM     14  F   UNL     1       3.414   7.261  17.138  0.00  0.00    +0.000 F 
ATOM     15  C   UNL     1       2.405   7.498  19.244  0.00  0.00    +0.000 A 
ATOM     16  C   UNL     1       1.841   6.930  20.384  0.00  0.00    +0.000 A 
ATOM     17  C   UNL     1       1.761   5.543  20.485  0.00  0.00    +0.000 A 
ATOM     18  C   UNL     1       2.244   4.736  19.454  0.00  0.00    +0.000 A 
ATOM     19  F   UNL     1       2.123   3.410  19.593  0.00  0.00    +0.000 F 
ENDBRANCH  10  12
ENDBRANCH   6  10
BRANCH   1  20
ATOM     20  S   UNL     1       7.036   5.010  13.701  0.00  0.00    +0.000 S 
BRANCH  20  21
ATOM     21  C   UNL     1       6.212   3.515  13.014  0.00  0.00    +0.000 C 
ATOM     22  C   UNL     1       7.063   3.020  11.842  0.00  0.00    +0.000 C 
BRANCH  21  24
ATOM     23  C   UNL     1       4.338   3.124  11.313  0.00  0.00    +0.000 C 
ATOM     24  C   UNL     1       4.767   3.835  12.590  0.00  0.00    +0.000 C 
ENDBRANCH  21  24
ENDBRANCH  20  21
ENDBRANCH   1  20
TORSDOF 6
ENDMDL
MODEL 4
REMARK VINA RESULT:      -6.9      1.515      2.301
REMARK  Name = 
REMARK  10 active torsions:
REMARK  status: ('A' for Active; 'I' for Inactive)
REMARK    1  A    between atoms: C_1  and  C_2
REMARK    2  A    between atoms: C_2  and  C_3
REMARK    3  A    between atoms: C_3  and  C_4
REMARK    4  A    between atoms: C_3  and  S_5
REMARK    5  A    between atoms: S_5  and  C_6
REMARK    6  A    between atoms: C_8  and  O_9
REMARK    7  A    between atoms: C_10  and  C_11
REMARK    8  A    between atoms: C_12  and  C_13
REMARK    9  A    between atoms: C_13  and  C_14
REMARK   10  A    between atoms: C_13  and  C_15
REMARK                            x       y       z     vdW  Elec       q    Type
REMARK                         _______ _______ _______ _____ _____    ______ ____
ROOT
ATOM      1  C   UNL     1       6.542   4.683  15.105  0.00  0.00    +0.000 A 
ATOM      2  N   UNL     1       7.551   4.653  15.978  0.00  0.00    +0.000 NA
ATOM      3  C   UNL     1       7.182   4.487  17.250  0.00  0.00    +0.000 A 
ATOM      4  C   UNL     1       5.893   4.322  17.715  0.00  0.00    +0.000 A 
ATOM      5  C   UNL     1       5.604   4.145  19.171  0.00  0.00    +0.000 C 
ATOM      6  C   UNL     1       4.915   4.398  16.729  0.00  0.00    +0.000 A 
ATOM      7  N   UNL     1       5.243   4.581  15.427  0.00  0.00    +0.000 NA
ENDROOT
BRANCH   3   8
ATOM      8  O   UNL     1       8.239   4.485  18.104  0.00  0.00    +0.000 OA
ATOM      9  H   UNL     1       8.798   5.172  17.696  0.00  0.00    +0.000 HD
ENDBRANCH   3   8
BRANCH   6  10
ATOM     10  C   UNL     1       3.424   4.244  17.040  0.00  0.00    +0.000 C 
ATOM     11  C   UNL     1       3.041   2.789  17.367  0.00  0.00    +0.000 C 
BRANCH  10  12
ATOM     12  C   UNL     1       2.929   5.177  18.131  0.00  0.00    +0.000 A 
ATOM     13  C   UNL     1       2.347   4.656  19.293  0.00  0.00    +0.000 A 
ATOM     14  F   UNL     1       2.209   3.330  19.434  0.00  0.00    +0.000 F 
ATOM     15  C   UNL     1       1.901   5.478  20.328  0.00  0.00    +0.000 A 
ATOM     16  C   UNL     1       2.033   6.861  20.221  0.00  0.00    +0.000 A 
ATOM     17  C   UNL     1       2.616   7.404  19.078  0.00  0.00    +0.000 A 
ATOM     18  C   UNL     1       3.058   6.566  18.052  0.00  0.00    +0.000 A 
ATOM     19  F   UNL     1       3.629   7.139  16.986  0.00  0.00    +0.000 F 
ENDBRANCH  10  12
ENDBRANCH   6  10
BRANCH   1  20
ATOM     20  S   UNL     1       6.936   4.774  13.380  0.00  0.00    +0.000 S 
BRANCH  20  21
ATOM     21  C   UNL     1       5.890   3.393  12.761  0.00  0.00    +0.000 C 
ATOM     22  C   UNL     1       6.764   2.530  11.847  0.00  0.00    +0.000 C 
BRANCH  21  24
ATOM     23  C   UNL     1       3.998   2.922  11.100  0.00  0.00    +0.000 C 
ATOM     24  C   UNL     1       4.646   3.936  12.032  0.00  0.00    +0.000 C 
ENDBRANCH  21  24
ENDBRANCH  20  21
ENDBRANCH   1  20
TORSDOF 6
ENDMDL
MODEL 5
REMARK VINA RESULT:      -6.8      1.213      1.263
REMARK  Name = 
REMARK  10 active torsions:
REMARK  status: ('A' for Active; 'I' for Inactive)
REMARK    1  A    between atoms: C_1  and  C_2
REMARK    2  A    between atoms: C_2  and  C_3
REMARK    3  A    between atoms: C_3  and  C_4
REMARK    4  A    between atoms: C_3  and  S_5
REMARK    5  A    between atoms: S_5  and  C_6
REMARK    6  A    between atoms: C_8  and  O_9
REMARK    7  A    between atoms: C_10  and  C_11
REMARK    8  A    between atoms: C_12  and  C_13
REMARK    9  A    between atoms: C_13  and  C_14
REMARK   10  A    between atoms: C_13  and  C_15
REMARK                            x       y       z     vdW  Elec       q    Type
REMARK                         _______ _______ _______ _____ _____    ______ ____
ROOT
ATOM      1  C   UNL     1       5.629   4.623  15.491  0.00  0.00    +0.000 A 
ATOM      2  N   UNL     1       6.906   4.382  15.799  0.00  0.00    +0.000 NA
ATOM      3  C   UNL     1       7.199   4.512  17.094  0.00  0.00    +0.000 A 
ATOM      4  C   UNL     1       6.317   4.835  18.107  0.00  0.00    +0.000 A 
ATOM      5  C   UNL     1       6.767   4.953  19.527  0.00  0.00    +0.000 C 
ATOM      6  C   UNL     1       5.021   5.094  17.675  0.00  0.00    +0.000 A 
ATOM      7  N   UNL     1       4.682   4.990  16.367  0.00  0.00    +0.000 NA
ENDROOT
BRANCH   3   8
ATOM      8  O   UNL     1       8.512   4.280  17.358  0.00  0.00    +0.000 OA
ATOM      9  H   UNL     1       8.435   3.686  18.128  0.00  0.00    +0.000 HD
ENDBRANCH   3   8
BRANCH   6  10
ATOM     10  C   UNL     1       3.896   5.472  18.641  0.00  0.00    +0.000 C 
ATOM     11  C   UNL     1       3.191   6.779  18.236  0.00  0.00    +0.000 C 
BRANCH  10  12
ATOM     12  C   UNL     1       2.875   4.367  18.851  0.00  0.00    +0.000 A 
ATOM     13  C   UNL     1       3.130   3.336  19.762  0.00  0.00    +0.000 A 
ATOM     14  F   UNL     1       4.288   3.313  20.439  0.00  0.00    +0.000 F 
ATOM     15  C   UNL     1       2.209   2.315  20.000  0.00  0.00    +0.000 A 
ATOM     16  C   UNL     1       0.992   2.308  19.322  0.00  0.00    +0.000 A 
ATOM     17  C   UNL     1       0.711   3.327  18.415  0.00  0.00    +0.000 A 
ATOM     18  C   UNL     1       1.644   4.341  18.189  0.00  0.00    +0.000 A 
ATOM     19  F   UNL     1       1.314   5.307  17.323  0.00  0.00    +0.000 F 
ENDBRANCH  10  12
ENDBRANCH   6  10
BRANCH   1  20
ATOM     20  S   UNL     1       5.113   4.355  13.817  0.00  0.00    +0.000 S 
BRANCH  20  21
ATOM     21  C   UNL     1       6.714   3.809  13.093  0.00  0.00    +0.000 C 
ATOM     22  C   UNL     1       7.466   5.065  12.644  0.00  0.00    +0.000 C 
BRANCH  21  24
ATOM     23  C   UNL     1       5.028   2.751  11.482  0.00  0.00    +0.000 C 
ATOM     24  C   UNL     1       6.480   2.825  11.933  0.00  0.00    +0.000 C 
ENDBRANCH  21  24
ENDBRANCH  20  21
ENDBRANCH   1  20
TORSDOF 6
ENDMDL
MODEL 6
REMARK VINA RESULT:      -6.7      3.788      6.565
REMARK  Name = 
REMARK  10 active torsions:
REMARK  status: ('A' for Active; 'I' for Inactive)
REMARK    1  A    between atoms: C_1  and  C_2
REMARK    2  A    between atoms: C_2  and  C_3
REMARK    3  A    between atoms: C_3  and  C_4
REMARK    4  A    between atoms: C_3  and  S_5
REMARK    5  A    between atoms: S_5  and  C_6
REMARK    6  A    between atoms: C_8  and  O_9
REMARK    7  A    between atoms: C_10  and  C_11
REMARK    8  A    between atoms: C_12  and  C_13
REMARK    9  A    between atoms: C_13  and  C_14
REMARK   10  A    between atoms: C_13  and  C_15
REMARK                            x       y       z     vdW  Elec       q    Type
REMARK                         _______ _______ _______ _____ _____    ______ ____
ROOT
ATOM      1  C   UNL     1       2.161   6.268  19.913  0.00  0.00    +0.000 A 
ATOM      2  N   UNL     1       1.364   5.387  20.522  0.00  0.00    +0.000 NA
ATOM      3  C   UNL     1       1.652   4.109  20.267  0.00  0.00    +0.000 A 
ATOM      4  C   UNL     1       2.683   3.642  19.477  0.00  0.00    +0.000 A 
ATOM      5  C   UNL     1       2.904   2.179  19.265  0.00  0.00    +0.000 C 
ATOM      6  C   UNL     1       3.435   4.640  18.868  0.00  0.00    +0.000 A 
ATOM      7  N   UNL     1       3.169   5.951  19.085  0.00  0.00    +0.000 NA
ENDROOT
BRANCH   3   8
ATOM      8  O   UNL     1       0.802   3.249  20.889  0.00  0.00    +0.000 OA
ATOM      9  H   UNL     1       0.544   3.783  21.662  0.00  0.00    +0.000 HD
ENDBRANCH   3   8
BRANCH   6  10
ATOM     10  C   UNL     1       4.620   4.330  17.951  0.00  0.00    +0.000 C 
ATOM     11  C   UNL     1       4.181   4.023  16.508  0.00  0.00    +0.000 C 
BRANCH  10  12
ATOM     12  C   UNL     1       5.693   5.406  17.957  0.00  0.00    +0.000 A 
ATOM     13  C   UNL     1       6.716   5.376  18.911  0.00  0.00    +0.000 A 
ATOM     14  F   UNL     1       6.739   4.405  19.836  0.00  0.00    +0.000 F 
ATOM     15  C   UNL     1       7.731   6.332  18.936  0.00  0.00    +0.000 A 
ATOM     16  C   UNL     1       7.745   7.354  17.989  0.00  0.00    +0.000 A 
ATOM     17  C   UNL     1       6.742   7.402  17.024  0.00  0.00    +0.000 A 
ATOM     18  C   UNL     1       5.734   6.436  17.013  0.00  0.00    +0.000 A 
ATOM     19  F   UNL     1       4.806   6.517  16.051  0.00  0.00    +0.000 F 
ENDBRANCH  10  12
ENDBRANCH   6  10
BRANCH   1  20
ATOM     20  S   UNL     1       1.939   7.986  20.286  0.00  0.00    +0.000 S 
BRANCH  20  21
ATOM     21  C   UNL     1       1.442   8.593  18.622  0.00  0.00    +0.000 C 
ATOM     22  C   UNL     1       2.687   8.561  17.732  0.00  0.00    +0.000 C 
BRANCH  21  24
ATOM     23  C   UNL     1      -0.577  10.094  18.141  0.00  0.00    +0.000 C 
ATOM     24  C   UNL     1       0.830  10.003  18.716  0.00  0.00    +0.000 C 
ENDBRANCH  21  24
ENDBRANCH  20  21
ENDBRANCH   1  20
TORSDOF 6
ENDMDL
MODEL 7
REMARK VINA RESULT:      -6.7      3.836      7.354
REMARK  Name = 
REMARK  10 active torsions:
REMARK  status: ('A' for Active; 'I' for Inactive)
REMARK    1  A    between atoms: C_1  and  C_2
REMARK    2  A    between atoms: C_2  and  C_3
REMARK    3  A    between atoms: C_3  and  C_4
REMARK    4  A    between atoms: C_3  and  S_5
REMARK    5  A    between atoms: S_5  and  C_6
REMARK    6  A    between atoms: C_8  and  O_9
REMARK    7  A    between atoms: C_10  and  C_11
REMARK    8  A    between atoms: C_12  and  C_13
REMARK    9  A    between atoms: C_13  and  C_14
REMARK   10  A    between atoms: C_13  and  C_15
REMARK                            x       y       z     vdW  Elec       q    Type
REMARK                         _______ _______ _______ _____ _____    ______ ____
ROOT
ATOM      1  C   UNL     1       2.320   6.734  19.687  0.00  0.00    +0.000 A 
ATOM      2  N   UNL     1       1.666   5.935  20.533  0.00  0.00    +0.000 NA
ATOM      3  C   UNL     1       2.127   4.684  20.585  0.00  0.00    +0.000 A 
ATOM      4  C   UNL     1       3.201   4.175  19.883  0.00  0.00    +0.000 A 
ATOM      5  C   UNL     1       3.623   2.749  20.026  0.00  0.00    +0.000 C 
ATOM      6  C   UNL     1       3.794   5.081  19.010  0.00  0.00    +0.000 A 
ATOM      7  N   UNL     1       3.350   6.357  18.913  0.00  0.00    +0.000 NA
ENDROOT
BRANCH   3   8
ATOM      8  O   UNL     1       1.418   3.902  21.441  0.00  0.00    +0.000 OA
ATOM      9  H   UNL     1       2.143   3.493  21.949  0.00  0.00    +0.000 HD
ENDBRANCH   3   8
BRANCH   6  10
ATOM     10  C   UNL     1       4.997   4.712  18.139  0.00  0.00    +0.000 C 
ATOM     11  C   UNL     1       4.582   4.264  16.726  0.00  0.00    +0.000 C 
BRANCH  10  12
ATOM     12  C   UNL     1       6.049   5.805  18.057  0.00  0.00    +0.000 A 
ATOM     13  C   UNL     1       7.127   5.815  18.949  0.00  0.00    +0.000 A 
ATOM     14  F   UNL     1       7.221   4.867  19.893  0.00  0.00    +0.000 F 
ATOM     15  C   UNL     1       8.124   6.788  18.892  0.00  0.00    +0.000 A 
ATOM     16  C   UNL     1       8.064   7.787  17.922  0.00  0.00    +0.000 A 
ATOM     17  C   UNL     1       7.005   7.795  17.017  0.00  0.00    +0.000 A 
ATOM     18  C   UNL     1       6.016   6.813  17.088  0.00  0.00    +0.000 A 
ATOM     19  F   UNL     1       5.032   6.855  16.181  0.00  0.00    +0.000 F 
ENDBRANCH  10  12
ENDBRANCH   6  10
BRANCH   1  20
ATOM     20  S   UNL     1       1.865   8.446  19.638  0.00  0.00    +0.000 S 
BRANCH  20  21
ATOM     21  C   UNL     1       0.625   8.465  20.998  0.00  0.00    +0.000 C 
ATOM     22  C   UNL     1      -0.556   9.319  20.530  0.00  0.00    +0.000 C 
BRANCH  21  24
ATOM     23  C   UNL     1       0.224   9.493  23.309  0.00  0.00    +0.000 C 
ATOM     24  C   UNL     1       1.251   9.001  22.299  0.00  0.00    +0.000 C 
ENDBRANCH  21  24
ENDBRANCH  20  21
ENDBRANCH   1  20
TORSDOF 6
ENDMDL
MODEL 8
REMARK VINA RESULT:      -6.7      1.052      1.206
REMARK  Name = 
REMARK  10 active torsions:
REMARK  status: ('A' for Active; 'I' for Inactive)
REMARK    1  A    between atoms: C_1  and  C_2
REMARK    2  A    between atoms: C_2  and  C_3
REMARK    3  A    between atoms: C_3  and  C_4
REMARK    4  A    between atoms: C_3  and  S_5
REMARK    5  A    between atoms: S_5  and  C_6
REMARK    6  A    between atoms: C_8  and  O_9
REMARK    7  A    between atoms: C_10  and  C_11
REMARK    8  A    between atoms: C_12  and  C_13
REMARK    9  A    between atoms: C_13  and  C_14
REMARK   10  A    between atoms: C_13  and  C_15
REMARK                            x       y       z     vdW  Elec       q    Type
REMARK                         _______ _______ _______ _____ _____    ______ ____
ROOT
ATOM      1  C   UNL     1       6.827   5.169  15.464  0.00  0.00    +0.000 A 
ATOM      2  N   UNL     1       7.770   4.574  16.198  0.00  0.00    +0.000 NA
ATOM      3  C   UNL     1       7.559   4.615  17.515  0.00  0.00    +0.000 A 
ATOM      4  C   UNL     1       6.471   5.177  18.154  0.00  0.00    +0.000 A 
ATOM      5  C   UNL     1       6.346   5.162  19.644  0.00  0.00    +0.000 C 
ATOM      6  C   UNL     1       5.562   5.793  17.301  0.00  0.00    +0.000 A 
ATOM      7  N   UNL     1       5.745   5.790  15.959  0.00  0.00    +0.000 NA
ENDROOT
BRANCH   3   8
ATOM      8  O   UNL     1       8.554   4.019  18.223  0.00  0.00    +0.000 OA
ATOM      9  H   UNL     1       8.064   3.742  19.019  0.00  0.00    +0.000 HD
ENDBRANCH   3   8
BRANCH   6  10
ATOM     10  C   UNL     1       4.292   6.477  17.813  0.00  0.00    +0.000 C 
ATOM     11  C   UNL     1       3.651   7.390  16.752  0.00  0.00    +0.000 C 
BRANCH  10  12
ATOM     12  C   UNL     1       3.260   5.510  18.368  0.00  0.00    +0.000 A 
ATOM     13  C   UNL     1       2.582   5.808  19.555  0.00  0.00    +0.000 A 
ATOM     14  F   UNL     1       2.857   6.943  20.215  0.00  0.00    +0.000 F 
ATOM     15  C   UNL     1       1.612   4.958  20.085  0.00  0.00    +0.000 A 
ATOM     16  C   UNL     1       1.293   3.772  19.426  0.00  0.00    +0.000 A 
ATOM     17  C   UNL     1       1.950   3.456  18.238  0.00  0.00    +0.000 A 
ATOM     18  C   UNL     1       2.917   4.319  17.721  0.00  0.00    +0.000 A 
ATOM     19  F   UNL     1       3.502   3.977  16.567  0.00  0.00    +0.000 F 
ENDBRANCH  10  12
ENDBRANCH   6  10
BRANCH   1  20
ATOM     20  S   UNL     1       6.953   5.058  13.700  0.00  0.00    +0.000 S 
BRANCH  20  21
ATOM     21  C   UNL     1       5.507   3.971  13.364  0.00  0.00    +0.000 C 
ATOM     22  C   UNL     1       5.452   2.924  14.479  0.00  0.00    +0.000 C 
BRANCH  21  24
ATOM     23  C   UNL     1       4.274   3.111  11.290  0.00  0.00    +0.000 C 
ATOM     24  C   UNL     1       5.620   3.330  11.968  0.00  0.00    +0.000 C 
ENDBRANCH  21  24
ENDBRANCH  20  21
ENDBRANCH   1  20
TORSDOF 6
ENDMDL
MODEL 9
REMARK VINA RESULT:      -6.6      3.826      7.392
REMARK  Name = 
REMARK  10 active torsions:
REMARK  status: ('A' for Active; 'I' for Inactive)
REMARK    1  A    between atoms: C_1  and  C_2
REMARK    2  A    between atoms: C_2  and  C_3
REMARK    3  A    between atoms: C_3  and  C_4
REMARK    4  A    between atoms: C_3  and  S_5
REMARK    5  A    between atoms: S_5  and  C_6
REMARK    6  A    between atoms: C_8  and  O_9
REMARK    7  A    between atoms: C_10  and  C_11
REMARK    8  A    between atoms: C_12  and  C_13
REMARK    9  A    between atoms: C_13  and  C_14
REMARK   10  A    between atoms: C_13  and  C_15
REMARK                            x       y       z     vdW  Elec       q    Type
REMARK                         _______ _______ _______ _____ _____    ______ ____
ROOT
ATOM      1  C   UNL     1       2.362   6.812  19.594  0.00  0.00    +0.000 A 
ATOM      2  N   UNL     1       1.710   6.026  20.454  0.00  0.00    +0.000 NA
ATOM      3  C   UNL     1       2.170   4.776  20.524  0.00  0.00    +0.000 A 
ATOM      4  C   UNL     1       3.241   4.255  19.826  0.00  0.00    +0.000 A 
ATOM      5  C   UNL     1       3.663   2.830  19.988  0.00  0.00    +0.000 C 
ATOM      6  C   UNL     1       3.833   5.147  18.938  0.00  0.00    +0.000 A 
ATOM      7  N   UNL     1       3.389   6.422  18.822  0.00  0.00    +0.000 NA
ENDROOT
BRANCH   3   8
ATOM      8  O   UNL     1       1.462   4.007  21.393  0.00  0.00    +0.000 OA
ATOM      9  H   UNL     1       2.189   3.597  21.898  0.00  0.00    +0.000 HD
ENDBRANCH   3   8
BRANCH   6  10
ATOM     10  C   UNL     1       5.033   4.764  18.068  0.00  0.00    +0.000 C 
ATOM     11  C   UNL     1       4.618   4.365  16.640  0.00  0.00    +0.000 C 
BRANCH  10  12
ATOM     12  C   UNL     1       6.117   5.826  18.024  0.00  0.00    +0.000 A 
ATOM     13  C   UNL     1       6.055   6.858  17.080  0.00  0.00    +0.000 A 
ATOM     14  F   UNL     1       5.045   6.897  16.199  0.00  0.00    +0.000 F 
ATOM     15  C   UNL     1       7.019   7.864  17.021  0.00  0.00    +0.000 A 
ATOM     16  C   UNL     1       8.081   7.861  17.923  0.00  0.00    +0.000 A 
ATOM     17  C   UNL     1       8.161   6.850  18.878  0.00  0.00    +0.000 A 
ATOM     18  C   UNL     1       7.188   5.850  18.922  0.00  0.00    +0.000 A 
ATOM     19  F   UNL     1       7.302   4.914  19.872  0.00  0.00    +0.000 F 
ENDBRANCH  10  12
ENDBRANCH   6  10
BRANCH   1  20
ATOM     20  S   UNL     1       1.908   8.523  19.521  0.00  0.00    +0.000 S 
BRANCH  20  21
ATOM     21  C   UNL     1       0.644   8.555  20.857  0.00  0.00    +0.000 C 
ATOM     22  C   UNL     1      -0.484   9.483  20.400  0.00  0.00    +0.000 C 
BRANCH  21  24
ATOM     23  C   UNL     1       0.244   9.482  23.210  0.00  0.00    +0.000 C 
ATOM     24  C   UNL     1       1.269   9.011  22.188  0.00  0.00    +0.000 C 
ENDBRANCH  21  24
ENDBRANCH  20  21
ENDBRANCH   1  20
TORSDOF 6
ENDMDL
