MODEL 1
REMARK VINA RESULT:      -7.7      0.000      0.000
REMARK  Name = 
REMARK  5 active torsions:
REMARK  status: ('A' for Active; 'I' for Inactive)
REMARK    1  A    between atoms: C_1  and  C_2
REMARK    2  A    between atoms: N_4  and  C_5
REMARK    3  A    between atoms: N_9  and  C_10
REMARK    4  A    between atoms: C_10  and  C_11
REMARK    5  A    between atoms: N_13  and  C_14
REMARK                            x       y       z     vdW  Elec       q    Type
REMARK                         _______ _______ _______ _____ _____    ______ ____
ROOT
ATOM      1  C   UNL     1       6.476   4.997  15.732  0.00  0.00    +0.000 A 
ATOM      2  C   UNL     1       7.183   4.493  16.756  0.00  0.00    +0.000 A 
ATOM      3  C   UNL     1       7.001   4.975  18.101  0.00  0.00    +0.000 A 
ATOM      4  C   UNL     1       6.008   5.830  18.374  0.00  0.00    +0.000 A 
ATOM      5  N   UNL     1       5.235   6.369  17.362  0.00  0.00    +0.000 N 
ATOM      6  C   UNL     1       5.530   6.144  16.015  0.00  0.00    +0.000 A 
ATOM      7  O   UNL     1       5.033   6.774  15.083  0.00  0.00    +0.000 OA
ENDROOT
BRANCH   1  11
ATOM      8  C   UNL     1       7.203   4.189  12.146  0.00  0.00    +0.000 C 
ATOM      9  C   UNL     1       7.384   4.922  13.447  0.00  0.00    +0.000 C 
ATOM     10  O   UNL     1       8.271   5.760  13.583  0.00  0.00    +0.000 OA
ATOM     11  N   UNL     1       6.501   4.518  14.434  0.00  0.00    +0.000 N 
ATOM     12  H   UNL     1       6.008   3.637  14.298  0.00  0.00    +0.000 HD
ENDBRANCH   1  11
BRANCH   5  13
ATOM     13  C   UNL     1       4.074   7.192  17.728  0.00  0.00    +0.000 C 
BRANCH  13  14
ATOM     14  C   UNL     1       3.127   6.477  18.685  0.00  0.00    +0.000 C 
ATOM     15  O   UNL     1       2.628   7.030  19.664  0.00  0.00    +0.000 OA
ATOM     16  N   UNL     1       2.954   5.146  18.387  0.00  0.00    +0.000 N 
ATOM     17  H   UNL     1       3.325   4.838  17.493  0.00  0.00    +0.000 HD
BRANCH  16  18
ATOM     18  C   UNL     1       2.012   4.282  19.085  0.00  0.00    +0.000 C 
ATOM     19  C   UNL     1       1.428   3.225  18.140  0.00  0.00    +0.000 C 
ATOM     20  C   UNL     1       2.500   2.253  17.645  0.00  0.00    +0.000 C 
ATOM     21  C   UNL     1       3.285   1.620  18.793  0.00  0.00    +0.000 C 
ATOM     22  C   UNL     1       3.801   2.637  19.809  0.00  0.00    +0.000 C 
ATOM     23  C   UNL     1       2.704   3.598  20.268  0.00  0.00    +0.000 C 
ENDBRANCH  16  18
ENDBRANCH  13  14
ENDBRANCH   5  13
TORSDOF 4
ENDMDL
MODEL 2
REMARK VINA RESULT:      -7.4      0.776      1.262
REMARK  Name = 
REMARK  5 active torsions:
REMARK  status: ('A' for Active; 'I' for Inactive)
REMARK    1  A    between atoms: C_1  and  C_2
REMARK    2  A    between atoms: N_4  and  C_5
REMARK    3  A    between atoms: N_9  and  C_10
REMARK    4  A    between atoms: C_10  and  C_11
REMARK    5  A    between atoms: N_13  and  C_14
REMARK                            x       y       z     vdW  Elec       q    Type
REMARK                         _______ _______ _______ _____ _____    ______ ____
ROOT
ATOM      1  C   UNL     1       6.646   4.926  15.852  0.00  0.00    +0.000 A 
ATOM      2  C   UNL     1       7.466   4.460  16.807  0.00  0.00    +0.000 A 
ATOM      3  C   UNL     1       7.404   4.959  18.156  0.00  0.00    +0.000 A 
ATOM      4  C   UNL     1       6.418   5.790  18.516  0.00  0.00    +0.000 A 
ATOM      5  N   UNL     1       5.533   6.290  17.579  0.00  0.00    +0.000 N 
ATOM      6  C   UNL     1       5.699   6.051  16.213  0.00  0.00    +0.000 A 
ATOM      7  O   UNL     1       5.092   6.650  15.326  0.00  0.00    +0.000 OA
ENDROOT
BRANCH   1  11
ATOM      8  C   UNL     1       7.025   4.091  12.219  0.00  0.00    +0.000 C 
ATOM      9  C   UNL     1       7.308   4.854  13.484  0.00  0.00    +0.000 C 
ATOM     10  O   UNL     1       8.162   5.735  13.514  0.00  0.00    +0.000 OA
ATOM     11  N   UNL     1       6.556   4.426  14.564  0.00  0.00    +0.000 N 
ATOM     12  H   UNL     1       6.094   3.521  14.494  0.00  0.00    +0.000 HD
ENDBRANCH   1  11
BRANCH   5  13
ATOM     13  C   UNL     1       4.389   7.085  18.047  0.00  0.00    +0.000 C 
BRANCH  13  14
ATOM     14  C   UNL     1       3.095   6.280  18.092  0.00  0.00    +0.000 C 
ATOM     15  O   UNL     1       2.021   6.726  17.689  0.00  0.00    +0.000 OA
ATOM     16  N   UNL     1       3.237   5.051  18.691  0.00  0.00    +0.000 N 
ATOM     17  H   UNL     1       4.191   4.754  18.876  0.00  0.00    +0.000 HD
BRANCH  16  18
ATOM     18  C   UNL     1       2.175   4.058  18.750  0.00  0.00    +0.000 C 
ATOM     19  C   UNL     1       2.749   2.637  18.789  0.00  0.00    +0.000 C 
ATOM     20  C   UNL     1       3.543   2.382  20.070  0.00  0.00    +0.000 C 
ATOM     21  C   UNL     1       2.738   2.705  21.328  0.00  0.00    +0.000 C 
ATOM     22  C   UNL     1       2.069   4.078  21.283  0.00  0.00    +0.000 C 
ATOM     23  C   UNL     1       1.297   4.299  19.982  0.00  0.00    +0.000 C 
ENDBRANCH  16  18
ENDBRANCH  13  14
ENDBRANCH   5  13
TORSDOF 4
ENDMDL
MODEL 3
REMARK VINA RESULT:      -7.3      1.557      1.839
REMARK  Name = 
REMARK  5 active torsions:
REMARK  status: ('A' for Active; 'I' for Inactive)
REMARK    1  A    between atoms: C_1  and  C_2
REMARK    2  A    between atoms: N_4  and  C_5
REMARK    3  A    between atoms: N_9  and  C_10
REMARK    4  A    between atoms: C_10  and  C_11
REMARK    5  A    between atoms: N_13  and  C_14
REMARK                            x       y       z     vdW  Elec       q    Type
REMARK                         _______ _______ _______ _____ _____    ______ ____
ROOT
ATOM      1  C   UNL     1       6.871   5.469  16.131  0.00  0.00    +0.000 A 
ATOM      2  C   UNL     1       7.428   4.859  17.190  0.00  0.00    +0.000 A 
ATOM      3  C   UNL     1       6.728   4.746  18.443  0.00  0.00    +0.000 A 
ATOM      4  C   UNL     1       5.443   5.113  18.525  0.00  0.00    +0.000 A 
ATOM      5  N   UNL     1       4.811   5.730  17.461  0.00  0.00    +0.000 N 
ATOM      6  C   UNL     1       5.509   6.105  16.311  0.00  0.00    +0.000 A 
ATOM      7  O   UNL     1       5.063   6.854  15.443  0.00  0.00    +0.000 OA
ENDROOT
BRANCH   1  11
ATOM      8  C   UNL     1       7.810   5.019  12.532  0.00  0.00    +0.000 C 
ATOM      9  C   UNL     1       7.082   4.692  13.807  0.00  0.00    +0.000 C 
ATOM     10  O   UNL     1       6.248   3.793  13.846  0.00  0.00    +0.000 OA
ATOM     11  N   UNL     1       7.420   5.522  14.862  0.00  0.00    +0.000 N 
ATOM     12  H   UNL     1       7.901   6.394  14.646  0.00  0.00    +0.000 HD
ENDBRANCH   1  11
BRANCH   5  13
ATOM     13  C   UNL     1       3.367   5.986  17.555  0.00  0.00    +0.000 C 
BRANCH  13  14
ATOM     14  C   UNL     1       2.552   4.704  17.682  0.00  0.00    +0.000 C 
ATOM     15  O   UNL     1       2.319   3.967  16.725  0.00  0.00    +0.000 OA
ATOM     16  N   UNL     1       2.047   4.501  18.945  0.00  0.00    +0.000 N 
ATOM     17  H   UNL     1       2.404   5.116  19.670  0.00  0.00    +0.000 HD
BRANCH  16  18
ATOM     18  C   UNL     1       1.336   3.294  19.342  0.00  0.00    +0.000 C 
ATOM     19  C   UNL     1       2.212   2.051  19.155  0.00  0.00    +0.000 C 
ATOM     20  C   UNL     1       3.426   2.067  20.084  0.00  0.00    +0.000 C 
ATOM     21  C   UNL     1       3.035   2.275  21.548  0.00  0.00    +0.000 C 
ATOM     22  C   UNL     1       2.083   3.450  21.760  0.00  0.00    +0.000 C 
ATOM     23  C   UNL     1       0.891   3.404  20.803  0.00  0.00    +0.000 C 
ENDBRANCH  16  18
ENDBRANCH  13  14
ENDBRANCH   5  13
TORSDOF 4
ENDMDL
MODEL 4
REMARK VINA RESULT:      -7.2      1.059      1.245
REMARK  Name = 
REMARK  5 active torsions:
REMARK  status: ('A' for Active; 'I' for Inactive)
REMARK    1  A    between atoms: C_1  and  C_2
REMARK    2  A    between atoms: N_4  and  C_5
REMARK    3  A    between atoms: N_9  and  C_10
REMARK    4  A    between atoms: C_10  and  C_11
REMARK    5  A    between atoms: N_13  and  C_14
REMARK                            x       y       z     vdW  Elec       q    Type
REMARK                         _______ _______ _______ _____ _____    ______ ____
ROOT
ATOM      1  C   UNL     1       6.838   5.453  16.076  0.00  0.00    +0.000 A 
ATOM      2  C   UNL     1       7.443   4.937  17.159  0.00  0.00    +0.000 A 
ATOM      3  C   UNL     1       6.918   5.150  18.482  0.00  0.00    +0.000 A 
ATOM      4  C   UNL     1       5.727   5.739  18.641  0.00  0.00    +0.000 A 
ATOM      5  N   UNL     1       5.049   6.274  17.561  0.00  0.00    +0.000 N 
ATOM      6  C   UNL     1       5.625   6.333  16.290  0.00  0.00    +0.000 A 
ATOM      7  O   UNL     1       5.176   6.996  15.356  0.00  0.00    +0.000 OA
ENDROOT
BRANCH   1  11
ATOM      8  C   UNL     1       7.173   4.284  12.532  0.00  0.00    +0.000 C 
ATOM      9  C   UNL     1       6.587   4.300  13.918  0.00  0.00    +0.000 C 
ATOM     10  O   UNL     1       5.629   3.591  14.208  0.00  0.00    +0.000 OA
ATOM     11  N   UNL     1       7.204   5.206  14.765  0.00  0.00    +0.000 N 
ATOM     12  H   UNL     1       7.787   5.927  14.345  0.00  0.00    +0.000 HD
ENDBRANCH   1  11
BRANCH   5  13
ATOM     13  C   UNL     1       3.687   6.785  17.770  0.00  0.00    +0.000 C 
BRANCH  13  14
ATOM     14  C   UNL     1       3.048   6.245  19.045  0.00  0.00    +0.000 C 
ATOM     15  O   UNL     1       2.565   6.977  19.907  0.00  0.00    +0.000 OA
ATOM     16  N   UNL     1       3.138   4.878  19.164  0.00  0.00    +0.000 N 
ATOM     17  H   UNL     1       3.454   4.380  18.337  0.00  0.00    +0.000 HD
BRANCH  16  18
ATOM     18  C   UNL     1       2.505   4.121  20.234  0.00  0.00    +0.000 C 
ATOM     19  C   UNL     1       1.021   3.881  19.936  0.00  0.00    +0.000 C 
ATOM     20  C   UNL     1       0.825   2.990  18.709  0.00  0.00    +0.000 C 
ATOM     21  C   UNL     1       1.605   1.679  18.811  0.00  0.00    +0.000 C 
ATOM     22  C   UNL     1       3.069   1.874  19.202  0.00  0.00    +0.000 C 
ATOM     23  C   UNL     1       3.222   2.781  20.424  0.00  0.00    +0.000 C 
ENDBRANCH  16  18
ENDBRANCH  13  14
ENDBRANCH   5  13
TORSDOF 4
ENDMDL
MODEL 5
REMARK VINA RESULT:      -6.9      3.447      7.427
REMARK  Name = 
REMARK  5 active torsions:
REMARK  status: ('A' for Active; 'I' for Inactive)
REMARK    1  A    between atoms: C_1  and  C_2
REMARK    2  A    between atoms: N_4  and  C_5
REMARK    3  A    between atoms: N_9  and  C_10
REMARK    4  A    between atoms: C_10  and  C_11
REMARK    5  A    between atoms: N_13  and  C_14
REMARK                            x       y       z     vdW  Elec       q    Type
REMARK                         _______ _______ _______ _____ _____    ______ ____
ROOT
ATOM      1  C   UNL     1       0.855   9.433  19.813  0.00  0.00    +0.000 A 
ATOM      2  C   UNL     1       1.163   9.867  18.580  0.00  0.00    +0.000 A 
ATOM      3  C   UNL     1       2.069   9.136  17.733  0.00  0.00    +0.000 A 
ATOM      4  C   UNL     1       2.501   7.926  18.106  0.00  0.00    +0.000 A 
ATOM      5  N   UNL     1       2.203   7.419  19.357  0.00  0.00    +0.000 N 
ATOM      6  C   UNL     1       1.549   8.188  20.323  0.00  0.00    +0.000 A 
ATOM      7  O   UNL     1       1.464   7.881  21.511  0.00  0.00    +0.000 OA
ENDROOT
BRANCH   1  11
ATOM      8  C   UNL     1      -1.111  11.542  22.205  0.00  0.00    +0.000 C 
ATOM      9  C   UNL     1       0.114  11.122  21.441  0.00  0.00    +0.000 C 
ATOM     10  O   UNL     1       1.157  11.764  21.515  0.00  0.00    +0.000 OA
ATOM     11  N   UNL     1      -0.088  10.005  20.648  0.00  0.00    +0.000 N 
ATOM     12  H   UNL     1      -1.049   9.730  20.450  0.00  0.00    +0.000 HD
ENDBRANCH   1  11
BRANCH   5  13
ATOM     13  C   UNL     1       2.585   6.033  19.663  0.00  0.00    +0.000 C 
BRANCH  13  14
ATOM     14  C   UNL     1       3.378   5.382  18.535  0.00  0.00    +0.000 C 
ATOM     15  O   UNL     1       2.844   4.754  17.622  0.00  0.00    +0.000 OA
ATOM     16  N   UNL     1       4.740   5.503  18.685  0.00  0.00    +0.000 N 
ATOM     17  H   UNL     1       5.052   6.139  19.413  0.00  0.00    +0.000 HD
BRANCH  16  18
ATOM     18  C   UNL     1       5.701   5.065  17.684  0.00  0.00    +0.000 C 
ATOM     19  C   UNL     1       5.880   6.124  16.591  0.00  0.00    +0.000 C 
ATOM     20  C   UNL     1       6.503   7.407  17.141  0.00  0.00    +0.000 C 
ATOM     21  C   UNL     1       7.805   7.144  17.899  0.00  0.00    +0.000 C 
ATOM     22  C   UNL     1       7.689   6.025  18.932  0.00  0.00    +0.000 C 
ATOM     23  C   UNL     1       7.050   4.765  18.346  0.00  0.00    +0.000 C 
ENDBRANCH  16  18
ENDBRANCH  13  14
ENDBRANCH   5  13
TORSDOF 4
ENDMDL
MODEL 6
REMARK VINA RESULT:      -6.8      2.807      7.067
REMARK  Name = 
REMARK  5 active torsions:
REMARK  status: ('A' for Active; 'I' for Inactive)
REMARK    1  A    between atoms: C_1  and  C_2
REMARK    2  A    between atoms: N_4  and  C_5
REMARK    3  A    between atoms: N_9  and  C_10
REMARK    4  A    between atoms: C_10  and  C_11
REMARK    5  A    between atoms: N_13  and  C_14
REMARK                            x       y       z     vdW  Elec       q    Type
REMARK                         _______ _______ _______ _____ _____    ______ ____
ROOT
ATOM      1  C   UNL     1       1.542   7.878  20.167  0.00  0.00    +0.000 A 
ATOM      2  C   UNL     1       1.806   8.695  19.135  0.00  0.00    +0.000 A 
ATOM      3  C   UNL     1       2.570   8.246  18.000  0.00  0.00    +0.000 A 
ATOM      4  C   UNL     1       2.899   6.954  17.886  0.00  0.00    +0.000 A 
ATOM      5  N   UNL     1       2.638   6.061  18.909  0.00  0.00    +0.000 N 
ATOM      6  C   UNL     1       2.137   6.485  20.142  0.00  0.00    +0.000 A 
ATOM      7  O   UNL     1       2.104   5.786  21.154  0.00  0.00    +0.000 OA
ENDROOT
BRANCH   1  11
ATOM      8  C   UNL     1      -0.260   9.423  23.066  0.00  0.00    +0.000 C 
ATOM      9  C   UNL     1       0.792   9.344  21.994  0.00  0.00    +0.000 C 
ATOM     10  O   UNL     1       1.585  10.264  21.818  0.00  0.00    +0.000 OA
ATOM     11  N   UNL     1       0.724   8.185  21.240  0.00  0.00    +0.000 N 
ATOM     12  H   UNL     1      -0.132   7.635  21.290  0.00  0.00    +0.000 HD
ENDBRANCH   1  11
BRANCH   5  13
ATOM     13  C   UNL     1       2.894   4.632  18.677  0.00  0.00    +0.000 C 
BRANCH  13  14
ATOM     14  C   UNL     1       4.005   4.395  17.661  0.00  0.00    +0.000 C 
ATOM     15  O   UNL     1       3.802   3.874  16.564  0.00  0.00    +0.000 OA
ATOM     16  N   UNL     1       5.251   4.747  18.122  0.00  0.00    +0.000 N 
ATOM     17  H   UNL     1       5.272   5.269  18.993  0.00  0.00    +0.000 HD
BRANCH  16  18
ATOM     18  C   UNL     1       6.451   4.720  17.297  0.00  0.00    +0.000 C 
ATOM     19  C   UNL     1       6.522   5.951  16.387  0.00  0.00    +0.000 C 
ATOM     20  C   UNL     1       6.675   7.243  17.191  0.00  0.00    +0.000 C 
ATOM     21  C   UNL     1       7.851   7.186  18.166  0.00  0.00    +0.000 C 
ATOM     22  C   UNL     1       7.866   5.922  19.024  0.00  0.00    +0.000 C 
ATOM     23  C   UNL     1       7.697   4.655  18.185  0.00  0.00    +0.000 C 
ENDBRANCH  16  18
ENDBRANCH  13  14
ENDBRANCH   5  13
TORSDOF 4
ENDMDL
MODEL 7
REMARK VINA RESULT:      -6.7      3.435      6.388
REMARK  Name = 
REMARK  5 active torsions:
REMARK  status: ('A' for Active; 'I' for Inactive)
REMARK    1  A    between atoms: C_1  and  C_2
REMARK    2  A    between atoms: N_4  and  C_5
REMARK    3  A    between atoms: N_9  and  C_10
REMARK    4  A    between atoms: C_10  and  C_11
REMARK    5  A    between atoms: N_13  and  C_14
REMARK                            x       y       z     vdW  Elec       q    Type
REMARK                         _______ _______ _______ _____ _____    ______ ____
ROOT
ATOM      1  C   UNL     1       1.144   9.562  19.443  0.00  0.00    +0.000 A 
ATOM      2  C   UNL     1       0.924   8.957  20.622  0.00  0.00    +0.000 A 
ATOM      3  C   UNL     1       1.412   7.628  20.884  0.00  0.00    +0.000 A 
ATOM      4  C   UNL     1       2.230   7.033  20.008  0.00  0.00    +0.000 A 
ATOM      5  N   UNL     1       2.507   7.615  18.785  0.00  0.00    +0.000 N 
ATOM      6  C   UNL     1       1.858   8.778  18.363  0.00  0.00    +0.000 A 
ATOM      7  O   UNL     1       1.888   9.208  17.211  0.00  0.00    +0.000 OA
ENDROOT
BRANCH   1  11
ATOM      8  C   UNL     1      -0.497  12.798  18.508  0.00  0.00    +0.000 C 
ATOM      9  C   UNL     1      -0.421  11.308  18.701  0.00  0.00    +0.000 C 
ATOM     10  O   UNL     1      -1.401  10.595  18.510  0.00  0.00    +0.000 OA
ATOM     11  N   UNL     1       0.816  10.873  19.146  0.00  0.00    +0.000 N 
ATOM     12  H   UNL     1       1.452  11.567  19.534  0.00  0.00    +0.000 HD
ENDBRANCH   1  11
BRANCH   5  13
ATOM     13  C   UNL     1       3.517   6.988  17.921  0.00  0.00    +0.000 C 
BRANCH  13  14
ATOM     14  C   UNL     1       4.029   5.666  18.483  0.00  0.00    +0.000 C 
ATOM     15  O   UNL     1       5.118   5.560  19.045  0.00  0.00    +0.000 OA
ATOM     16  N   UNL     1       3.191   4.605  18.233  0.00  0.00    +0.000 N 
ATOM     17  H   UNL     1       2.274   4.840  17.865  0.00  0.00    +0.000 HD
BRANCH  16  18
ATOM     18  C   UNL     1       3.406   3.268  18.766  0.00  0.00    +0.000 C 
ATOM     19  C   UNL     1       3.290   3.258  20.294  0.00  0.00    +0.000 C 
ATOM     20  C   UNL     1       1.873   3.599  20.757  0.00  0.00    +0.000 C 
ATOM     21  C   UNL     1       0.816   2.712  20.099  0.00  0.00    +0.000 C 
ATOM     22  C   UNL     1       0.961   2.621  18.582  0.00  0.00    +0.000 C 
ATOM     23  C   UNL     1       2.394   2.291  18.159  0.00  0.00    +0.000 C 
ENDBRANCH  16  18
ENDBRANCH  13  14
ENDBRANCH   5  13
TORSDOF 4
ENDMDL
MODEL 8
REMARK VINA RESULT:      -6.5      4.689      7.801
REMARK  Name = 
REMARK  5 active torsions:
REMARK  status: ('A' for Active; 'I' for Inactive)
REMARK    1  A    between atoms: C_1  and  C_2
REMARK    2  A    between atoms: N_4  and  C_5
REMARK    3  A    between atoms: N_9  and  C_10
REMARK    4  A    between atoms: C_10  and  C_11
REMARK    5  A    between atoms: N_13  and  C_14
REMARK                            x       y       z     vdW  Elec       q    Type
REMARK                         _______ _______ _______ _____ _____    ______ ____
ROOT
ATOM      1  C   UNL     1       5.733   4.707  18.292  0.00  0.00    +0.000 A 
ATOM      2  C   UNL     1       5.143   5.070  17.142  0.00  0.00    +0.000 A 
ATOM      3  C   UNL     1       5.468   6.314  16.493  0.00  0.00    +0.000 A 
ATOM      4  C   UNL     1       6.481   7.059  16.950  0.00  0.00    +0.000 A 
ATOM      5  N   UNL     1       7.138   6.726  18.120  0.00  0.00    +0.000 N 
ATOM      6  C   UNL     1       6.700   5.679  18.934  0.00  0.00    +0.000 A 
ATOM      7  O   UNL     1       7.092   5.485  20.084  0.00  0.00    +0.000 OA
ENDROOT
BRANCH   1  11
ATOM      8  C   UNL     1       4.551   1.704  20.196  0.00  0.00    +0.000 C 
ATOM      9  C   UNL     1       4.470   3.113  19.676  0.00  0.00    +0.000 C 
ATOM     10  O   UNL     1       3.484   3.811  19.891  0.00  0.00    +0.000 OA
ATOM     11  N   UNL     1       5.570   3.486  18.922  0.00  0.00    +0.000 N 
ATOM     12  H   UNL     1       6.183   2.748  18.579  0.00  0.00    +0.000 HD
ENDBRANCH   1  11
BRANCH   5  13
ATOM     13  C   UNL     1       8.330   7.498  18.501  0.00  0.00    +0.000 C 
BRANCH  13  14
ATOM     14  C   UNL     1       8.235   8.962  18.088  0.00  0.00    +0.000 C 
ATOM     15  O   UNL     1       7.497   9.351  17.183  0.00  0.00    +0.000 OA
ATOM     16  N   UNL     1       9.105   9.780  18.769  0.00  0.00    +0.000 N 
ATOM     17  H   UNL     1       9.576   9.361  19.566  0.00  0.00    +0.000 HD
BRANCH  16  18
ATOM     18  C   UNL     1       9.121  11.229  18.633  0.00  0.00    +0.000 C 
ATOM     19  C   UNL     1       9.199  11.911  20.003  0.00  0.00    +0.000 C 
ATOM     20  C   UNL     1      10.518  11.609  20.714  0.00  0.00    +0.000 C 
ATOM     21  C   UNL     1      11.734  11.933  19.846  0.00  0.00    +0.000 C 
ATOM     22  C   UNL     1      11.647  11.349  18.437  0.00  0.00    +0.000 C 
ATOM     23  C   UNL     1      10.308  11.662  17.767  0.00  0.00    +0.000 C 
ENDBRANCH  16  18
ENDBRANCH  13  14
ENDBRANCH   5  13
TORSDOF 4
ENDMDL
MODEL 9
REMARK VINA RESULT:      -6.5      3.884      7.721
REMARK  Name = 
REMARK  5 active torsions:
REMARK  status: ('A' for Active; 'I' for Inactive)
REMARK    1  A    between atoms: C_1  and  C_2
REMARK    2  A    between atoms: N_4  and  C_5
REMARK    3  A    between atoms: N_9  and  C_10
REMARK    4  A    between atoms: C_10  and  C_11
REMARK    5  A    between atoms: N_13  and  C_14
REMARK                            x       y       z     vdW  Elec       q    Type
REMARK                         _______ _______ _______ _____ _____    ______ ____
ROOT
ATOM      1  C   UNL     1       0.411   9.969  20.135  0.00  0.00    +0.000 A 
ATOM      2  C   UNL     1       0.601  10.396  18.876  0.00  0.00    +0.000 A 
ATOM      3  C   UNL     1       1.469   9.691  17.969  0.00  0.00    +0.000 A 
ATOM      4  C   UNL     1       1.982   8.507  18.322  0.00  0.00    +0.000 A 
ATOM      5  N   UNL     1       1.806   8.007  19.599  0.00  0.00    +0.000 N 
ATOM      6  C   UNL     1       1.197   8.763  20.604  0.00  0.00    +0.000 A 
ATOM      7  O   UNL     1       1.219   8.472  21.799  0.00  0.00    +0.000 OA
ENDROOT
BRANCH   1  11
ATOM      8  C   UNL     1      -1.466  12.046  22.625  0.00  0.00    +0.000 C 
ATOM      9  C   UNL     1      -0.291  11.674  21.763  0.00  0.00    +0.000 C 
ATOM     10  O   UNL     1       0.707  12.387  21.712  0.00  0.00    +0.000 OA
ATOM     11  N   UNL     1      -0.488  10.513  21.035  0.00  0.00    +0.000 N 
ATOM     12  H   UNL     1      -1.442  10.167  20.941  0.00  0.00    +0.000 HD
ENDBRANCH   1  11
BRANCH   5  13
ATOM     13  C   UNL     1       2.271   6.644  19.891  0.00  0.00    +0.000 C 
BRANCH  13  14
ATOM     14  C   UNL     1       2.674   5.881  18.634  0.00  0.00    +0.000 C 
ATOM     15  O   UNL     1       1.919   5.094  18.063  0.00  0.00    +0.000 OA
ATOM     16  N   UNL     1       3.976   6.104  18.254  0.00  0.00    +0.000 N 
ATOM     17  H   UNL     1       4.457   6.858  18.735  0.00  0.00    +0.000 HD
BRANCH  16  18
ATOM     18  C   UNL     1       4.556   5.580  17.025  0.00  0.00    +0.000 C 
ATOM     19  C   UNL     1       5.440   6.629  16.342  0.00  0.00    +0.000 C 
ATOM     20  C   UNL     1       6.663   6.979  17.189  0.00  0.00    +0.000 C 
ATOM     21  C   UNL     1       7.461   5.741  17.599  0.00  0.00    +0.000 C 
ATOM     22  C   UNL     1       6.597   4.634  18.197  0.00  0.00    +0.000 C 
ATOM     23  C   UNL     1       5.378   4.323  17.327  0.00  0.00    +0.000 C 
ENDBRANCH  16  18
ENDBRANCH  13  14
ENDBRANCH   5  13
TORSDOF 4
ENDMDL
