MODEL 1
REMARK VINA RESULT:      -7.3      0.000      0.000
REMARK  Name = 
REMARK  11 active torsions:
REMARK  status: ('A' for Active; 'I' for Inactive)
REMARK    1  A    between atoms: C_1  and  O_2
REMARK    2  A    between atoms: O_2  and  C_3
REMARK    3  A    between atoms: C_3  and  C_5
REMARK    4  A    between atoms: C_5  and  C_6
REMARK    5  A    between atoms: C_6  and  N_7
REMARK    6  A    between atoms: C_6  and  C_20
REMARK    7  A    between atoms: C_8  and  C_10
REMARK    8  A    between atoms: C_13  and  O_14
REMARK    9  A    between atoms: O_14  and  C_15
REMARK   10  A    between atoms: C_17  and  O_18
REMARK   11  A    between atoms: O_18  and  C_19
REMARK                            x       y       z     vdW  Elec       q    Type
REMARK                         _______ _______ _______ _____ _____    ______ ____
ROOT
ATOM      1  N   UNL     1       3.790   5.662  18.327  0.00  0.00    +0.000 N 
ATOM      2  C   UNL     1       4.975   4.953  18.341  0.00  0.00    +0.000 C 
ATOM      3  O   UNL     1       5.507   4.525  19.355  0.00  0.00    +0.000 OA
ATOM      4  H   UNL     1       3.426   5.994  17.444  0.00  0.00    +0.000 HD
ENDROOT
BRANCH   2   5
ATOM      5  C   UNL     1       5.596   4.761  17.009  0.00  0.00    +0.000 A 
ATOM      6  C   UNL     1       4.803   4.127  16.034  0.00  0.00    +0.000 A 
ATOM      7  C   UNL     1       5.281   3.938  14.739  0.00  0.00    +0.000 A 
ATOM      8  C   UNL     1       6.548   4.393  14.385  0.00  0.00    +0.000 A 
ATOM      9  C   UNL     1       7.328   5.046  15.342  0.00  0.00    +0.000 A 
ATOM     10  C   UNL     1       6.870   5.234  16.659  0.00  0.00    +0.000 A 
BRANCH   8  11
ATOM     11  O   UNL     1       6.897   4.152  13.085  0.00  0.00    +0.000 OA
ATOM     12  C   UNL     1       6.005   3.356  12.319  0.00  0.00    +0.000 C 
ENDBRANCH   8  11
BRANCH  10  13
ATOM     13  O   UNL     1       7.748   5.953  17.426  0.00  0.00    +0.000 OA
ATOM     14  C   UNL     1       7.534   7.355  17.531  0.00  0.00    +0.000 C 
ENDBRANCH  10  13
ENDBRANCH   2   5
BRANCH   1  15
ATOM     15  C   UNL     1       2.963   5.926  19.496  0.00  0.00    +0.000 C 
BRANCH  15  16
ATOM     16  C   UNL     1       2.299   7.271  19.291  0.00  0.00    +0.000 A 
ATOM     17  C   UNL     1       2.276   8.064  18.160  0.00  0.00    +0.000 A 
ATOM     18  C   UNL     1       1.568   9.283  18.354  0.00  0.00    +0.000 A 
ATOM     19  C   UNL     1       1.080   9.394  19.635  0.00  0.00    +0.000 A 
ATOM     20  S   UNL     1       1.460   8.026  20.588  0.00  0.00    +0.000 S 
ENDBRANCH  15  16
BRANCH  15  21
ATOM     21  C   UNL     1       1.960   4.826  19.844  0.00  0.00    +0.000 C 
BRANCH  21  22
ATOM     22  C   UNL     1       1.735   3.882  18.695  0.00  0.00    +0.000 C 
ATOM     23  O   UNL     1       1.303   4.181  17.592  0.00  0.00    +0.000 OA
BRANCH  22  25
ATOM     24  C   UNL     1       2.909   1.880  18.160  0.00  0.00    +0.000 C 
ATOM     25  O   UNL     1       2.108   2.626  19.082  0.00  0.00    +0.000 OA
ENDBRANCH  22  25
ENDBRANCH  21  22
ENDBRANCH  15  21
ENDBRANCH   1  15
TORSDOF 8
ENDMDL
MODEL 2
REMARK VINA RESULT:      -6.9      1.219      1.540
REMARK  Name = 
REMARK  11 active torsions:
REMARK  status: ('A' for Active; 'I' for Inactive)
REMARK    1  A    between atoms: C_1  and  O_2
REMARK    2  A    between atoms: O_2  and  C_3
REMARK    3  A    between atoms: C_3  and  C_5
REMARK    4  A    between atoms: C_5  and  C_6
REMARK    5  A    between atoms: C_6  and  N_7
REMARK    6  A    between atoms: C_6  and  C_20
REMARK    7  A    between atoms: C_8  and  C_10
REMARK    8  A    between atoms: C_13  and  O_14
REMARK    9  A    between atoms: O_14  and  C_15
REMARK   10  A    between atoms: C_17  and  O_18
REMARK   11  A    between atoms: O_18  and  C_19
REMARK                            x       y       z     vdW  Elec       q    Type
REMARK                         _______ _______ _______ _____ _____    ______ ____
ROOT
ATOM      1  N   UNL     1       3.621   5.547  18.687  0.00  0.00    +0.000 N 
ATOM      2  C   UNL     1       4.977   5.289  18.687  0.00  0.00    +0.000 C 
ATOM      3  O   UNL     1       5.679   5.308  19.688  0.00  0.00    +0.000 OA
ATOM      4  H   UNL     1       3.116   5.526  17.810  0.00  0.00    +0.000 HD
ENDROOT
BRANCH   2   5
ATOM      5  C   UNL     1       5.553   5.004  17.352  0.00  0.00    +0.000 A 
ATOM      6  C   UNL     1       4.718   4.331  16.441  0.00  0.00    +0.000 A 
ATOM      7  C   UNL     1       5.153   4.054  15.146  0.00  0.00    +0.000 A 
ATOM      8  C   UNL     1       6.417   4.460  14.728  0.00  0.00    +0.000 A 
ATOM      9  C   UNL     1       7.239   5.151  15.621  0.00  0.00    +0.000 A 
ATOM     10  C   UNL     1       6.825   5.427  16.937  0.00  0.00    +0.000 A 
BRANCH   8  11
ATOM     11  O   UNL     1       6.722   4.135  13.436  0.00  0.00    +0.000 OA
ATOM     12  C   UNL     1       7.604   5.008  12.745  0.00  0.00    +0.000 C 
ENDBRANCH   8  11
BRANCH  10  13
ATOM     13  O   UNL     1       7.740   6.172  17.633  0.00  0.00    +0.000 OA
ATOM     14  C   UNL     1       7.639   7.588  17.546  0.00  0.00    +0.000 C 
ENDBRANCH  10  13
ENDBRANCH   2   5
BRANCH   1  15
ATOM     15  C   UNL     1       2.817   5.793  19.876  0.00  0.00    +0.000 C 
BRANCH  15  16
ATOM     16  C   UNL     1       2.204   7.169  19.738  0.00  0.00    +0.000 A 
ATOM     17  C   UNL     1       1.498   7.903  20.672  0.00  0.00    +0.000 A 
ATOM     18  C   UNL     1       1.050   9.156  20.167  0.00  0.00    +0.000 A 
ATOM     19  C   UNL     1       1.414   9.339  18.854  0.00  0.00    +0.000 A 
ATOM     20  S   UNL     1       2.307   8.015  18.244  0.00  0.00    +0.000 S 
ENDBRANCH  15  16
BRANCH  15  21
ATOM     21  C   UNL     1       1.776   4.718  20.189  0.00  0.00    +0.000 C 
BRANCH  21  22
ATOM     22  C   UNL     1       2.365   3.564  20.951  0.00  0.00    +0.000 C 
ATOM     23  O   UNL     1       2.196   3.324  22.138  0.00  0.00    +0.000 OA
BRANCH  22  25
ATOM     24  C   UNL     1       2.412   2.107  19.067  0.00  0.00    +0.000 C 
ATOM     25  O   UNL     1       3.117   2.812  20.095  0.00  0.00    +0.000 OA
ENDBRANCH  22  25
ENDBRANCH  21  22
ENDBRANCH  15  21
ENDBRANCH   1  15
TORSDOF 8
ENDMDL
MODEL 3
REMARK VINA RESULT:      -6.8      1.058      1.246
REMARK  Name = 
REMARK  11 active torsions:
REMARK  status: ('A' for Active; 'I' for Inactive)
REMARK    1  A    between atoms: C_1  and  O_2
REMARK    2  A    between atoms: O_2  and  C_3
REMARK    3  A    between atoms: C_3  and  C_5
REMARK    4  A    between atoms: C_5  and  C_6
REMARK    5  A    between atoms: C_6  and  N_7
REMARK    6  A    between atoms: C_6  and  C_20
REMARK    7  A    between atoms: C_8  and  C_10
REMARK    8  A    between atoms: C_13  and  O_14
REMARK    9  A    between atoms: O_14  and  C_15
REMARK   10  A    between atoms: C_17  and  O_18
REMARK   11  A    between atoms: O_18  and  C_19
REMARK                            x       y       z     vdW  Elec       q    Type
REMARK                         _______ _______ _______ _____ _____    ______ ____
ROOT
ATOM      1  N   UNL     1       3.514   5.801  18.586  0.00  0.00    +0.000 N 
ATOM      2  C   UNL     1       4.849   5.453  18.618  0.00  0.00    +0.000 C 
ATOM      3  O   UNL     1       5.509   5.359  19.643  0.00  0.00    +0.000 OA
ATOM      4  H   UNL     1       3.045   5.871  17.692  0.00  0.00    +0.000 HD
ENDROOT
BRANCH   2   5
ATOM      5  C   UNL     1       5.460   5.217  17.288  0.00  0.00    +0.000 A 
ATOM      6  C   UNL     1       5.122   4.010  16.649  0.00  0.00    +0.000 A 
ATOM      7  C   UNL     1       5.610   3.716  15.377  0.00  0.00    +0.000 A 
ATOM      8  C   UNL     1       6.427   4.625  14.712  0.00  0.00    +0.000 A 
ATOM      9  C   UNL     1       6.744   5.835  15.331  0.00  0.00    +0.000 A 
ATOM     10  C   UNL     1       6.274   6.146  16.621  0.00  0.00    +0.000 A 
BRANCH   8  11
ATOM     11  O   UNL     1       6.835   4.221  13.471  0.00  0.00    +0.000 OA
ATOM     12  C   UNL     1       5.923   3.431  12.721  0.00  0.00    +0.000 C 
ENDBRANCH   8  11
BRANCH  10  13
ATOM     13  O   UNL     1       6.635   7.403  17.026  0.00  0.00    +0.000 OA
ATOM     14  C   UNL     1       7.811   7.527  17.817  0.00  0.00    +0.000 C 
ENDBRANCH  10  13
ENDBRANCH   2   5
BRANCH   1  15
ATOM     15  C   UNL     1       2.681   6.022  19.760  0.00  0.00    +0.000 C 
BRANCH  15  16
ATOM     16  C   UNL     1       2.086   7.409  19.643  0.00  0.00    +0.000 A 
ATOM     17  C   UNL     1       1.401   8.142  20.594  0.00  0.00    +0.000 A 
ATOM     18  C   UNL     1       0.965   9.407  20.108  0.00  0.00    +0.000 A 
ATOM     19  C   UNL     1       1.317   9.600  18.793  0.00  0.00    +0.000 A 
ATOM     20  S   UNL     1       2.184   8.270  18.158  0.00  0.00    +0.000 S 
ENDBRANCH  15  16
BRANCH  15  21
ATOM     21  C   UNL     1       1.620   4.951  20.013  0.00  0.00    +0.000 C 
BRANCH  21  22
ATOM     22  C   UNL     1       1.762   3.781  19.078  0.00  0.00    +0.000 C 
ATOM     23  O   UNL     1       1.194   3.646  18.004  0.00  0.00    +0.000 OA
BRANCH  22  25
ATOM     24  C   UNL     1       2.555   2.675  21.032  0.00  0.00    +0.000 C 
ATOM     25  O   UNL     1       2.646   2.893  19.621  0.00  0.00    +0.000 OA
ENDBRANCH  22  25
ENDBRANCH  21  22
ENDBRANCH  15  21
ENDBRANCH   1  15
TORSDOF 8
ENDMDL
MODEL 4
REMARK VINA RESULT:      -6.7      0.889      1.127
REMARK  Name = 
REMARK  11 active torsions:
REMARK  status: ('A' for Active; 'I' for Inactive)
REMARK    1  A    between atoms: C_1  and  O_2
REMARK    2  A    between atoms: O_2  and  C_3
REMARK    3  A    between atoms: C_3  and  C_5
REMARK    4  A    between atoms: C_5  and  C_6
REMARK    5  A    between atoms: C_6  and  N_7
REMARK    6  A    between atoms: C_6  and  C_20
REMARK    7  A    between atoms: C_8  and  C_10
REMARK    8  A    between atoms: C_13  and  O_14
REMARK    9  A    between atoms: O_14  and  C_15
REMARK   10  A    between atoms: C_17  and  O_18
REMARK   11  A    between atoms: O_18  and  C_19
REMARK                            x       y       z     vdW  Elec       q    Type
REMARK                         _______ _______ _______ _____ _____    ______ ____
ROOT
ATOM      1  N   UNL     1       3.746   5.801  18.598  0.00  0.00    +0.000 N 
ATOM      2  C   UNL     1       5.071   5.416  18.617  0.00  0.00    +0.000 C 
ATOM      3  O   UNL     1       5.754   5.358  19.628  0.00  0.00    +0.000 OA
ATOM      4  H   UNL     1       3.256   5.838  17.713  0.00  0.00    +0.000 HD
ENDROOT
BRANCH   2   5
ATOM      5  C   UNL     1       5.640   5.093  17.287  0.00  0.00    +0.000 A 
ATOM      6  C   UNL     1       4.805   4.383  16.404  0.00  0.00    +0.000 A 
ATOM      7  C   UNL     1       5.233   4.069  15.116  0.00  0.00    +0.000 A 
ATOM      8  C   UNL     1       6.490   4.473  14.676  0.00  0.00    +0.000 A 
ATOM      9  C   UNL     1       7.312   5.200  15.539  0.00  0.00    +0.000 A 
ATOM     10  C   UNL     1       6.905   5.515  16.849  0.00  0.00    +0.000 A 
BRANCH   8  11
ATOM     11  O   UNL     1       6.788   4.108  13.392  0.00  0.00    +0.000 OA
ATOM     12  C   UNL     1       7.619   4.990  12.652  0.00  0.00    +0.000 C 
ENDBRANCH   8  11
BRANCH  10  13
ATOM     13  O   UNL     1       7.818   6.290  17.514  0.00  0.00    +0.000 OA
ATOM     14  C   UNL     1       7.622   7.699  17.495  0.00  0.00    +0.000 C 
ENDBRANCH  10  13
ENDBRANCH   2   5
BRANCH   1  15
ATOM     15  C   UNL     1       2.949   6.108  19.778  0.00  0.00    +0.000 C 
BRANCH  15  16
ATOM     16  C   UNL     1       2.233   7.416  19.519  0.00  0.00    +0.000 A 
ATOM     17  C   UNL     1       2.193   8.169  18.360  0.00  0.00    +0.000 A 
ATOM     18  C   UNL     1       1.433   9.364  18.504  0.00  0.00    +0.000 A 
ATOM     19  C   UNL     1       0.923   9.498  19.775  0.00  0.00    +0.000 A 
ATOM     20  S   UNL     1       1.346   8.180  20.779  0.00  0.00    +0.000 S 
ENDBRANCH  15  16
BRANCH  15  21
ATOM     21  C   UNL     1       1.996   4.999  20.224  0.00  0.00    +0.000 C 
BRANCH  21  22
ATOM     22  C   UNL     1       2.510   3.633  19.864  0.00  0.00    +0.000 C 
ATOM     23  O   UNL     1       3.298   2.965  20.517  0.00  0.00    +0.000 OA
BRANCH  22  25
ATOM     24  C   UNL     1       0.730   2.487  18.771  0.00  0.00    +0.000 C 
ATOM     25  O   UNL     1       1.940   3.248  18.684  0.00  0.00    +0.000 OA
ENDBRANCH  22  25
ENDBRANCH  21  22
ENDBRANCH  15  21
ENDBRANCH   1  15
TORSDOF 8
ENDMDL
MODEL 5
REMARK VINA RESULT:      -6.6      0.782      1.029
REMARK  Name = 
REMARK  11 active torsions:
REMARK  status: ('A' for Active; 'I' for Inactive)
REMARK    1  A    between atoms: C_1  and  O_2
REMARK    2  A    between atoms: O_2  and  C_3
REMARK    3  A    between atoms: C_3  and  C_5
REMARK    4  A    between atoms: C_5  and  C_6
REMARK    5  A    between atoms: C_6  and  N_7
REMARK    6  A    between atoms: C_6  and  C_20
REMARK    7  A    between atoms: C_8  and  C_10
REMARK    8  A    between atoms: C_13  and  O_14
REMARK    9  A    between atoms: O_14  and  C_15
REMARK   10  A    between atoms: C_17  and  O_18
REMARK   11  A    between atoms: O_18  and  C_19
REMARK                            x       y       z     vdW  Elec       q    Type
REMARK                         _______ _______ _______ _____ _____    ______ ____
ROOT
ATOM      1  N   UNL     1       3.594   5.416  18.056  0.00  0.00    +0.000 N 
ATOM      2  C   UNL     1       4.900   4.978  18.145  0.00  0.00    +0.000 C 
ATOM      3  O   UNL     1       5.472   4.733  19.197  0.00  0.00    +0.000 OA
ATOM      4  H   UNL     1       3.201   5.611  17.144  0.00  0.00    +0.000 HD
ENDROOT
BRANCH   2   5
ATOM      5  C   UNL     1       5.598   4.846  16.844  0.00  0.00    +0.000 A 
ATOM      6  C   UNL     1       4.868   4.248  15.800  0.00  0.00    +0.000 A 
ATOM      7  C   UNL     1       5.421   4.116  14.528  0.00  0.00    +0.000 A 
ATOM      8  C   UNL     1       6.701   4.595  14.266  0.00  0.00    +0.000 A 
ATOM      9  C   UNL     1       7.419   5.212  15.292  0.00  0.00    +0.000 A 
ATOM     10  C   UNL     1       6.885   5.342  16.588  0.00  0.00    +0.000 A 
BRANCH   8  11
ATOM     11  O   UNL     1       7.126   4.411  12.979  0.00  0.00    +0.000 OA
ATOM     12  C   UNL     1       6.439   3.433  12.211  0.00  0.00    +0.000 C 
ENDBRANCH   8  11
BRANCH  10  13
ATOM     13  O   UNL     1       7.711   6.034  17.432  0.00  0.00    +0.000 OA
ATOM     14  C   UNL     1       7.518   7.440  17.535  0.00  0.00    +0.000 C 
ENDBRANCH  10  13
ENDBRANCH   2   5
BRANCH   1  15
ATOM     15  C   UNL     1       2.686   5.565  19.185  0.00  0.00    +0.000 C 
BRANCH  15  16
ATOM     16  C   UNL     1       2.189   6.995  19.186  0.00  0.00    +0.000 A 
ATOM     17  C   UNL     1       2.218   7.925  18.163  0.00  0.00    +0.000 A 
ATOM     18  C   UNL     1       1.680   9.185  18.547  0.00  0.00    +0.000 A 
ATOM     19  C   UNL     1       1.268   9.188  19.860  0.00  0.00    +0.000 A 
ATOM     20  S   UNL     1       1.512   7.673  20.614  0.00  0.00    +0.000 S 
ENDBRANCH  15  16
BRANCH  15  21
ATOM     21  C   UNL     1       1.543   4.551  19.237  0.00  0.00    +0.000 C 
BRANCH  21  22
ATOM     22  C   UNL     1       2.044   3.142  19.395  0.00  0.00    +0.000 C 
ATOM     23  O   UNL     1       1.754   2.191  18.683  0.00  0.00    +0.000 OA
BRANCH  22  25
ATOM     24  C   UNL     1       2.320   2.747  21.727  0.00  0.00    +0.000 C 
ATOM     25  O   UNL     1       2.893   3.097  20.463  0.00  0.00    +0.000 OA
ENDBRANCH  22  25
ENDBRANCH  21  22
ENDBRANCH  15  21
ENDBRANCH   1  15
TORSDOF 8
ENDMDL
MODEL 6
REMARK VINA RESULT:      -6.5      1.253      1.466
REMARK  Name = 
REMARK  11 active torsions:
REMARK  status: ('A' for Active; 'I' for Inactive)
REMARK    1  A    between atoms: C_1  and  O_2
REMARK    2  A    between atoms: O_2  and  C_3
REMARK    3  A    between atoms: C_3  and  C_5
REMARK    4  A    between atoms: C_5  and  C_6
REMARK    5  A    between atoms: C_6  and  N_7
REMARK    6  A    between atoms: C_6  and  C_20
REMARK    7  A    between atoms: C_8  and  C_10
REMARK    8  A    between atoms: C_13  and  O_14
REMARK    9  A    between atoms: O_14  and  C_15
REMARK   10  A    between atoms: C_17  and  O_18
REMARK   11  A    between atoms: O_18  and  C_19
REMARK                            x       y       z     vdW  Elec       q    Type
REMARK                         _______ _______ _______ _____ _____    ______ ____
ROOT
ATOM      1  N   UNL     1       3.304   5.498  18.887  0.00  0.00    +0.000 N 
ATOM      2  C   UNL     1       4.630   5.132  19.002  0.00  0.00    +0.000 C 
ATOM      3  O   UNL     1       5.213   4.988  20.067  0.00  0.00    +0.000 OA
ATOM      4  H   UNL     1       2.902   5.611  17.965  0.00  0.00    +0.000 HD
ENDROOT
BRANCH   2   5
ATOM      5  C   UNL     1       5.334   4.944  17.711  0.00  0.00    +0.000 A 
ATOM      6  C   UNL     1       4.551   5.067  16.548  0.00  0.00    +0.000 A 
ATOM      7  C   UNL     1       5.128   4.950  15.285  0.00  0.00    +0.000 A 
ATOM      8  C   UNL     1       6.496   4.728  15.156  0.00  0.00    +0.000 A 
ATOM      9  C   UNL     1       7.281   4.630  16.306  0.00  0.00    +0.000 A 
ATOM     10  C   UNL     1       6.716   4.731  17.591  0.00  0.00    +0.000 A 
BRANCH   8  11
ATOM     11  O   UNL     1       6.939   4.638  13.865  0.00  0.00    +0.000 OA
ATOM     12  C   UNL     1       6.316   3.663  13.040  0.00  0.00    +0.000 C 
ENDBRANCH   8  11
BRANCH  10  13
ATOM     13  O   UNL     1       7.655   4.679  18.587  0.00  0.00    +0.000 OA
ATOM     14  C   UNL     1       8.142   5.914  19.097  0.00  0.00    +0.000 C 
ENDBRANCH  10  13
ENDBRANCH   2   5
BRANCH   1  15
ATOM     15  C   UNL     1       2.389   5.681  20.006  0.00  0.00    +0.000 C 
BRANCH  15  16
ATOM     16  C   UNL     1       1.924   7.121  19.985  0.00  0.00    +0.000 A 
ATOM     17  C   UNL     1       1.290   7.842  20.979  0.00  0.00    +0.000 A 
ATOM     18  C   UNL     1       0.979   9.173  20.583  0.00  0.00    +0.000 A 
ATOM     19  C   UNL     1       1.372   9.428  19.289  0.00  0.00    +0.000 A 
ATOM     20  S   UNL     1       2.128   8.074  18.569  0.00  0.00    +0.000 S 
ENDBRANCH  15  16
BRANCH  15  21
ATOM     21  C   UNL     1       1.225   4.691  20.060  0.00  0.00    +0.000 C 
BRANCH  21  22
ATOM     22  C   UNL     1       1.424   3.532  19.123  0.00  0.00    +0.000 C 
ATOM     23  O   UNL     1       1.261   3.550  17.912  0.00  0.00    +0.000 OA
BRANCH  22  25
ATOM     24  C   UNL     1       1.718   2.546  21.271  0.00  0.00    +0.000 C 
ATOM     25  O   UNL     1       1.831   2.448  19.848  0.00  0.00    +0.000 OA
ENDBRANCH  22  25
ENDBRANCH  21  22
ENDBRANCH  15  21
ENDBRANCH   1  15
TORSDOF 8
ENDMDL
MODEL 7
REMARK VINA RESULT:      -6.5      1.044      2.180
REMARK  Name = 
REMARK  11 active torsions:
REMARK  status: ('A' for Active; 'I' for Inactive)
REMARK    1  A    between atoms: C_1  and  O_2
REMARK    2  A    between atoms: O_2  and  C_3
REMARK    3  A    between atoms: C_3  and  C_5
REMARK    4  A    between atoms: C_5  and  C_6
REMARK    5  A    between atoms: C_6  and  N_7
REMARK    6  A    between atoms: C_6  and  C_20
REMARK    7  A    between atoms: C_8  and  C_10
REMARK    8  A    between atoms: C_13  and  O_14
REMARK    9  A    between atoms: O_14  and  C_15
REMARK   10  A    between atoms: C_17  and  O_18
REMARK   11  A    between atoms: O_18  and  C_19
REMARK                            x       y       z     vdW  Elec       q    Type
REMARK                         _______ _______ _______ _____ _____    ______ ____
ROOT
ATOM      1  N   UNL     1       3.424   5.925  18.740  0.00  0.00    +0.000 N 
ATOM      2  C   UNL     1       4.737   5.502  18.682  0.00  0.00    +0.000 C 
ATOM      3  O   UNL     1       5.494   5.478  19.642  0.00  0.00    +0.000 OA
ATOM      4  H   UNL     1       2.870   5.927  17.894  0.00  0.00    +0.000 HD
ENDROOT
BRANCH   2   5
ATOM      5  C   UNL     1       5.195   5.089  17.334  0.00  0.00    +0.000 A 
ATOM      6  C   UNL     1       6.360   5.712  16.851  0.00  0.00    +0.000 A 
ATOM      7  C   UNL     1       6.894   5.362  15.612  0.00  0.00    +0.000 A 
ATOM      8  C   UNL     1       6.291   4.373  14.842  0.00  0.00    +0.000 A 
ATOM      9  C   UNL     1       5.149   3.734  15.329  0.00  0.00    +0.000 A 
ATOM     10  C   UNL     1       4.584   4.083  16.570  0.00  0.00    +0.000 A 
BRANCH   8  11
ATOM     11  O   UNL     1       6.914   4.118  13.652  0.00  0.00    +0.000 OA
ATOM     12  C   UNL     1       6.149   3.451  12.658  0.00  0.00    +0.000 C 
ENDBRANCH   8  11
BRANCH  10  13
ATOM     13  O   UNL     1       3.512   3.298  16.902  0.00  0.00    +0.000 OA
ATOM     14  C   UNL     1       3.775   2.084  17.596  0.00  0.00    +0.000 C 
ENDBRANCH  10  13
ENDBRANCH   2   5
BRANCH   1  15
ATOM     15  C   UNL     1       2.728   6.320  19.957  0.00  0.00    +0.000 C 
BRANCH  15  16
ATOM     16  C   UNL     1       2.028   7.633  19.677  0.00  0.00    +0.000 A 
ATOM     17  C   UNL     1       1.995   8.366  18.506  0.00  0.00    +0.000 A 
ATOM     18  C   UNL     1       1.250   9.573  18.631  0.00  0.00    +0.000 A 
ATOM     19  C   UNL     1       0.745   9.735  19.901  0.00  0.00    +0.000 A 
ATOM     20  S   UNL     1       1.154   8.429  20.926  0.00  0.00    +0.000 S 
ENDBRANCH  15  16
BRANCH  15  21
ATOM     21  C   UNL     1       1.784   5.266  20.536  0.00  0.00    +0.000 C 
BRANCH  21  22
ATOM     22  C   UNL     1       1.476   4.177  19.545  0.00  0.00    +0.000 C 
ATOM     23  O   UNL     1       1.130   4.338  18.384  0.00  0.00    +0.000 OA
BRANCH  22  25
ATOM     24  C   UNL     1       1.775   2.975  21.579  0.00  0.00    +0.000 C 
ATOM     25  O   UNL     1       1.659   2.968  20.153  0.00  0.00    +0.000 OA
ENDBRANCH  22  25
ENDBRANCH  21  22
ENDBRANCH  15  21
ENDBRANCH   1  15
TORSDOF 8
ENDMDL
MODEL 8
REMARK VINA RESULT:      -6.4      2.649      6.840
REMARK  Name = 
REMARK  11 active torsions:
REMARK  status: ('A' for Active; 'I' for Inactive)
REMARK    1  A    between atoms: C_1  and  O_2
REMARK    2  A    between atoms: O_2  and  C_3
REMARK    3  A    between atoms: C_3  and  C_5
REMARK    4  A    between atoms: C_5  and  C_6
REMARK    5  A    between atoms: C_6  and  N_7
REMARK    6  A    between atoms: C_6  and  C_20
REMARK    7  A    between atoms: C_8  and  C_10
REMARK    8  A    between atoms: C_13  and  O_14
REMARK    9  A    between atoms: O_14  and  C_15
REMARK   10  A    between atoms: C_17  and  O_18
REMARK   11  A    between atoms: O_18  and  C_19
REMARK                            x       y       z     vdW  Elec       q    Type
REMARK                         _______ _______ _______ _____ _____    ______ ____
ROOT
ATOM      1  N   UNL     1       5.263   5.410  17.842  0.00  0.00    +0.000 N 
ATOM      2  C   UNL     1       4.028   5.039  18.336  0.00  0.00    +0.000 C 
ATOM      3  O   UNL     1       3.624   3.887  18.377  0.00  0.00    +0.000 OA
ATOM      4  H   UNL     1       5.514   6.391  17.830  0.00  0.00    +0.000 HD
ENDROOT
BRANCH   2   5
ATOM      5  C   UNL     1       3.185   6.165  18.803  0.00  0.00    +0.000 A 
ATOM      6  C   UNL     1       3.100   7.280  17.948  0.00  0.00    +0.000 A 
ATOM      7  C   UNL     1       2.299   8.372  18.278  0.00  0.00    +0.000 A 
ATOM      8  C   UNL     1       1.554   8.366  19.454  0.00  0.00    +0.000 A 
ATOM      9  C   UNL     1       1.616   7.251  20.293  0.00  0.00    +0.000 A 
ATOM     10  C   UNL     1       2.430   6.145  19.985  0.00  0.00    +0.000 A 
BRANCH   8  11
ATOM     11  O   UNL     1       0.806   9.491  19.660  0.00  0.00    +0.000 OA
ATOM     12  C   UNL     1       0.599  10.338  18.538  0.00  0.00    +0.000 C 
ENDBRANCH   8  11
BRANCH  10  13
ATOM     13  O   UNL     1       2.302   5.127  20.892  0.00  0.00    +0.000 OA
ATOM     14  C   UNL     1       1.230   4.210  20.706  0.00  0.00    +0.000 C 
ENDBRANCH  10  13
ENDBRANCH   2   5
BRANCH   1  15
ATOM     15  C   UNL     1       6.290   4.485  17.382  0.00  0.00    +0.000 C 
BRANCH  15  16
ATOM     16  C   UNL     1       6.190   4.404  15.874  0.00  0.00    +0.000 A 
ATOM     17  C   UNL     1       5.198   3.835  15.099  0.00  0.00    +0.000 A 
ATOM     18  C   UNL     1       5.464   3.929  13.704  0.00  0.00    +0.000 A 
ATOM     19  C   UNL     1       6.661   4.557  13.452  0.00  0.00    +0.000 A 
ATOM     20  S   UNL     1       7.447   5.044  14.890  0.00  0.00    +0.000 S 
ENDBRANCH  15  16
BRANCH  15  21
ATOM     21  C   UNL     1       7.708   4.802  17.858  0.00  0.00    +0.000 C 
BRANCH  21  22
ATOM     22  C   UNL     1       7.713   5.721  19.048  0.00  0.00    +0.000 C 
ATOM     23  O   UNL     1       7.218   5.485  20.141  0.00  0.00    +0.000 OA
BRANCH  22  25
ATOM     24  C   UNL     1       7.744   7.725  17.761  0.00  0.00    +0.000 C 
ATOM     25  O   UNL     1       8.378   6.866  18.714  0.00  0.00    +0.000 OA
ENDBRANCH  22  25
ENDBRANCH  21  22
ENDBRANCH  15  21
ENDBRANCH   1  15
TORSDOF 8
ENDMDL
MODEL 9
REMARK VINA RESULT:      -6.4      3.146      7.054
REMARK  Name = 
REMARK  11 active torsions:
REMARK  status: ('A' for Active; 'I' for Inactive)
REMARK    1  A    between atoms: C_1  and  O_2
REMARK    2  A    between atoms: O_2  and  C_3
REMARK    3  A    between atoms: C_3  and  C_5
REMARK    4  A    between atoms: C_5  and  C_6
REMARK    5  A    between atoms: C_6  and  N_7
REMARK    6  A    between atoms: C_6  and  C_20
REMARK    7  A    between atoms: C_8  and  C_10
REMARK    8  A    between atoms: C_13  and  O_14
REMARK    9  A    between atoms: O_14  and  C_15
REMARK   10  A    between atoms: C_17  and  O_18
REMARK   11  A    between atoms: O_18  and  C_19
REMARK                            x       y       z     vdW  Elec       q    Type
REMARK                         _______ _______ _______ _____ _____    ______ ____
ROOT
ATOM      1  N   UNL     1       3.138   6.675  18.534  0.00  0.00    +0.000 N 
ATOM      2  C   UNL     1       2.520   7.880  18.264  0.00  0.00    +0.000 C 
ATOM      3  O   UNL     1       2.638   8.492  17.213  0.00  0.00    +0.000 OA
ATOM      4  H   UNL     1       2.998   6.241  19.438  0.00  0.00    +0.000 HD
ENDROOT
BRANCH   2   5
ATOM      5  C   UNL     1       1.698   8.415  19.376  0.00  0.00    +0.000 A 
ATOM      6  C   UNL     1       1.616   7.620  20.534  0.00  0.00    +0.000 A 
ATOM      7  C   UNL     1       0.902   8.055  21.649  0.00  0.00    +0.000 A 
ATOM      8  C   UNL     1       0.275   9.297  21.639  0.00  0.00    +0.000 A 
ATOM      9  C   UNL     1       0.375  10.101  20.502  0.00  0.00    +0.000 A 
ATOM     10  C   UNL     1       1.078   9.674  19.360  0.00  0.00    +0.000 A 
BRANCH   8  11
ATOM     11  O   UNL     1      -0.387   9.610  22.794  0.00  0.00    +0.000 OA
ATOM     12  C   UNL     1      -0.985  10.897  22.862  0.00  0.00    +0.000 C 
ENDBRANCH   8  11
BRANCH  10  13
ATOM     13  O   UNL     1       1.120  10.628  18.378  0.00  0.00    +0.000 OA
ATOM     14  C   UNL     1       1.591  11.922  18.738  0.00  0.00    +0.000 C 
ENDBRANCH  10  13
ENDBRANCH   2   5
BRANCH   1  15
ATOM     15  C   UNL     1       3.944   5.920  17.584  0.00  0.00    +0.000 C 
BRANCH  15  16
ATOM     16  C   UNL     1       5.381   5.978  18.058  0.00  0.00    +0.000 A 
ATOM     17  C   UNL     1       5.968   5.332  19.129  0.00  0.00    +0.000 A 
ATOM     18  C   UNL     1       7.347   5.654  19.280  0.00  0.00    +0.000 A 
ATOM     19  C   UNL     1       7.771   6.550  18.327  0.00  0.00    +0.000 A 
ATOM     20  S   UNL     1       6.518   6.982  17.247  0.00  0.00    +0.000 S 
ENDBRANCH  15  16
BRANCH  15  21
ATOM     21  C   UNL     1       3.472   4.490  17.325  0.00  0.00    +0.000 C 
BRANCH  21  22
ATOM     22  C   UNL     1       2.144   4.206  17.971  0.00  0.00    +0.000 C 
ATOM     23  O   UNL     1       1.059   4.194  17.409  0.00  0.00    +0.000 OA
BRANCH  22  25
ATOM     24  C   UNL     1       2.915   2.678  19.627  0.00  0.00    +0.000 C 
ATOM     25  O   UNL     1       2.348   3.950  19.297  0.00  0.00    +0.000 OA
ENDBRANCH  22  25
ENDBRANCH  21  22
ENDBRANCH  15  21
ENDBRANCH   1  15
TORSDOF 8
ENDMDL
