MODEL 1
REMARK VINA RESULT:      -8.1      0.000      0.000
REMARK  Name = 
REMARK  10 active torsions:
REMARK  status: ('A' for Active; 'I' for Inactive)
REMARK    1  A    between atoms: C_1  and  C_2
REMARK    2  A    between atoms: C_2  and  O_3
REMARK    3  A    between atoms: O_3  and  C_4
REMARK    4  A    between atoms: C_4  and  C_5
REMARK    5  A    between atoms: C_4  and  O_24
REMARK    6  A    between atoms: C_5  and  N_6
REMARK    7  A    between atoms: C_8  and  C_9
REMARK    8  A    between atoms: C_10  and  C_11
REMARK    9  A    between atoms: O_24  and  C_25
REMARK   10  A    between atoms: C_25  and  C_26
REMARK                            x       y       z     vdW  Elec       q    Type
REMARK                         _______ _______ _______ _____ _____    ______ ____
ROOT
ATOM      1  N   UNL     1       4.139   5.748  17.233  0.00  0.00    +0.000 N 
ATOM      2  N   UNL     1       3.784   6.864  17.909  0.00  0.00    +0.000 NA
ATOM      3  C   UNL     1       2.849   6.420  18.753  0.00  0.00    +0.000 A 
ATOM      4  C   UNL     1       2.674   5.024  18.706  0.00  0.00    +0.000 A 
ATOM      5  C   UNL     1       1.896   4.044  19.325  0.00  0.00    +0.000 A 
ATOM      6  N   UNL     1       0.927   4.301  20.277  0.00  0.00    +0.000 N 
ATOM      7  N   UNL     1       2.092   2.756  18.973  0.00  0.00    +0.000 NA
ATOM      8  C   UNL     1       3.000   2.480  18.014  0.00  0.00    +0.000 A 
ATOM      9  N   UNL     1       3.767   3.342  17.319  0.00  0.00    +0.000 NA
ATOM     10  C   UNL     1       3.556   4.607  17.724  0.00  0.00    +0.000 A 
ATOM     11  H   UNL     1       0.996   5.167  20.793  0.00  0.00    +0.000 HD
ATOM     12  H   UNL     1       0.643   3.473  20.784  0.00  0.00    +0.000 HD
ENDROOT
BRANCH   3  13
ATOM     13  C   UNL     1       2.182   7.361  19.581  0.00  0.00    +0.000 C 
ATOM     14  C   UNL     1       1.575   8.151  20.252  0.00  0.00    +0.000 C 
BRANCH  14  15
ATOM     15  C   UNL     1       0.816   9.064  21.045  0.00  0.00    +0.000 A 
ATOM     16  C   UNL     1       0.629   8.827  22.409  0.00  0.00    +0.000 A 
ATOM     17  C   UNL     1      -0.155   9.698  23.167  0.00  0.00    +0.000 A 
ATOM     18  C   UNL     1      -0.752  10.806  22.563  0.00  0.00    +0.000 A 
ATOM     19  C   UNL     1      -0.549  11.055  21.206  0.00  0.00    +0.000 A 
ATOM     20  C   UNL     1       0.237  10.186  20.447  0.00  0.00    +0.000 A 
ENDBRANCH  14  15
ENDBRANCH   3  13
BRANCH   1  21
ATOM     21  C   UNL     1       5.063   5.827  16.123  0.00  0.00    +0.000 C 
BRANCH  21  22
ATOM     22  C   UNL     1       6.481   5.378  16.507  0.00  0.00    +0.000 C 
BRANCH  22  23
ATOM     23  O   UNL     1       7.421   6.456  16.404  0.00  0.00    +0.000 OA
BRANCH  23  25
ATOM     24  C   UNL     1       7.767   6.214  18.751  0.00  0.00    +0.000 C 
ATOM     25  C   UNL     1       7.608   7.196  17.605  0.00  0.00    +0.000 C 
ENDBRANCH  23  25
ENDBRANCH  22  23
BRANCH  22  26
ATOM     26  O   UNL     1       6.875   4.350  15.588  0.00  0.00    +0.000 OA
BRANCH  26  27
ATOM     27  C   UNL     1       6.925   4.782  14.233  0.00  0.00    +0.000 C 
ATOM     28  C   UNL     1       6.180   3.767  13.385  0.00  0.00    +0.000 C 
ENDBRANCH  26  27
ENDBRANCH  22  26
ENDBRANCH  21  22
ENDBRANCH   1  21
TORSDOF 8
ENDMDL
MODEL 2
REMARK VINA RESULT:      -8.0      0.816      2.321
REMARK  Name = 
REMARK  10 active torsions:
REMARK  status: ('A' for Active; 'I' for Inactive)
REMARK    1  A    between atoms: C_1  and  C_2
REMARK    2  A    between atoms: C_2  and  O_3
REMARK    3  A    between atoms: O_3  and  C_4
REMARK    4  A    between atoms: C_4  and  C_5
REMARK    5  A    between atoms: C_4  and  O_24
REMARK    6  A    between atoms: C_5  and  N_6
REMARK    7  A    between atoms: C_8  and  C_9
REMARK    8  A    between atoms: C_10  and  C_11
REMARK    9  A    between atoms: O_24  and  C_25
REMARK   10  A    between atoms: C_25  and  C_26
REMARK                            x       y       z     vdW  Elec       q    Type
REMARK                         _______ _______ _______ _____ _____    ______ ____
ROOT
ATOM      1  N   UNL     1       4.570   4.746  17.879  0.00  0.00    +0.000 N 
ATOM      2  N   UNL     1       4.230   5.966  18.352  0.00  0.00    +0.000 NA
ATOM      3  C   UNL     1       3.101   5.725  19.022  0.00  0.00    +0.000 A 
ATOM      4  C   UNL     1       2.766   4.359  19.077  0.00  0.00    +0.000 A 
ATOM      5  C   UNL     1       1.766   3.546  19.613  0.00  0.00    +0.000 A 
ATOM      6  N   UNL     1       0.669   4.014  20.312  0.00  0.00    +0.000 N 
ATOM      7  N   UNL     1       1.866   2.211  19.439  0.00  0.00    +0.000 NA
ATOM      8  C   UNL     1       2.903   1.730  18.723  0.00  0.00    +0.000 A 
ATOM      9  N   UNL     1       3.893   2.418  18.122  0.00  0.00    +0.000 NA
ATOM     10  C   UNL     1       3.765   3.738  18.348  0.00  0.00    +0.000 A 
ATOM     11  H   UNL     1       0.743   4.925  20.743  0.00  0.00    +0.000 HD
ATOM     12  H   UNL     1       0.190   3.287  20.828  0.00  0.00    +0.000 HD
ENDROOT
BRANCH   3  13
ATOM     13  C   UNL     1       2.407   6.823  19.596  0.00  0.00    +0.000 C 
ATOM     14  C   UNL     1       1.793   7.717  20.113  0.00  0.00    +0.000 C 
BRANCH  14  15
ATOM     15  C   UNL     1       1.069   8.759  20.768  0.00  0.00    +0.000 A 
ATOM     16  C   UNL     1       0.875   8.722  22.150  0.00  0.00    +0.000 A 
ATOM     17  C   UNL     1       0.123   9.719  22.775  0.00  0.00    +0.000 A 
ATOM     18  C   UNL     1      -0.432  10.753  22.019  0.00  0.00    +0.000 A 
ATOM     19  C   UNL     1      -0.221  10.802  20.642  0.00  0.00    +0.000 A 
ATOM     20  C   UNL     1       0.532   9.807  20.016  0.00  0.00    +0.000 A 
ENDBRANCH  14  15
ENDBRANCH   3  13
BRANCH   1  21
ATOM     21  C   UNL     1       5.697   4.595  16.984  0.00  0.00    +0.000 C 
BRANCH  21  22
ATOM     22  C   UNL     1       6.007   5.885  16.209  0.00  0.00    +0.000 C 
BRANCH  22  23
ATOM     23  O   UNL     1       5.915   5.683  14.792  0.00  0.00    +0.000 OA
BRANCH  23  25
ATOM     24  C   UNL     1       5.886   3.782  13.353  0.00  0.00    +0.000 C 
ATOM     25  C   UNL     1       6.727   4.630  14.289  0.00  0.00    +0.000 C 
ENDBRANCH  23  25
ENDBRANCH  22  23
BRANCH  22  26
ATOM     26  O   UNL     1       7.354   6.266  16.522  0.00  0.00    +0.000 OA
BRANCH  26  27
ATOM     27  C   UNL     1       7.443   7.294  17.501  0.00  0.00    +0.000 C 
ATOM     28  C   UNL     1       8.061   6.700  18.755  0.00  0.00    +0.000 C 
ENDBRANCH  26  27
ENDBRANCH  22  26
ENDBRANCH  21  22
ENDBRANCH   1  21
TORSDOF 8
ENDMDL
MODEL 3
REMARK VINA RESULT:      -7.9      0.429      1.081
REMARK  Name = 
REMARK  10 active torsions:
REMARK  status: ('A' for Active; 'I' for Inactive)
REMARK    1  A    between atoms: C_1  and  C_2
REMARK    2  A    between atoms: C_2  and  O_3
REMARK    3  A    between atoms: O_3  and  C_4
REMARK    4  A    between atoms: C_4  and  C_5
REMARK    5  A    between atoms: C_4  and  O_24
REMARK    6  A    between atoms: C_5  and  N_6
REMARK    7  A    between atoms: C_8  and  C_9
REMARK    8  A    between atoms: C_10  and  C_11
REMARK    9  A    between atoms: O_24  and  C_25
REMARK   10  A    between atoms: C_25  and  C_26
REMARK                            x       y       z     vdW  Elec       q    Type
REMARK                         _______ _______ _______ _____ _____    ______ ____
ROOT
ATOM      1  N   UNL     1       4.343   5.613  17.138  0.00  0.00    +0.000 N 
ATOM      2  N   UNL     1       3.951   6.755  17.746  0.00  0.00    +0.000 NA
ATOM      3  C   UNL     1       3.011   6.335  18.597  0.00  0.00    +0.000 A 
ATOM      4  C   UNL     1       2.868   4.935  18.622  0.00  0.00    +0.000 A 
ATOM      5  C   UNL     1       2.101   3.972  19.280  0.00  0.00    +0.000 A 
ATOM      6  N   UNL     1       1.109   4.257  20.200  0.00  0.00    +0.000 N 
ATOM      7  N   UNL     1       2.332   2.671  19.002  0.00  0.00    +0.000 NA
ATOM      8  C   UNL     1       3.264   2.366  18.075  0.00  0.00    +0.000 A 
ATOM      9  N   UNL     1       4.024   3.207  17.347  0.00  0.00    +0.000 NA
ATOM     10  C   UNL     1       3.778   4.487  17.680  0.00  0.00    +0.000 A 
ATOM     11  H   UNL     1       1.150   5.150  20.669  0.00  0.00    +0.000 HD
ATOM     12  H   UNL     1       0.835   3.451  20.747  0.00  0.00    +0.000 HD
ENDROOT
BRANCH   3  13
ATOM     13  C   UNL     1       2.308   7.303  19.362  0.00  0.00    +0.000 C 
ATOM     14  C   UNL     1       1.678   8.084  20.021  0.00  0.00    +0.000 C 
BRANCH  14  15
ATOM     15  C   UNL     1       0.922   8.981  20.836  0.00  0.00    +0.000 A 
ATOM     16  C   UNL     1       0.521  10.222  20.335  0.00  0.00    +0.000 A 
ATOM     17  C   UNL     1      -0.174  11.113  21.154  0.00  0.00    +0.000 A 
ATOM     18  C   UNL     1      -0.469  10.764  22.473  0.00  0.00    +0.000 A 
ATOM     19  C   UNL     1      -0.087   9.518  22.968  0.00  0.00    +0.000 A 
ATOM     20  C   UNL     1       0.607   8.625  22.150  0.00  0.00    +0.000 A 
ENDBRANCH  14  15
ENDBRANCH   3  13
BRANCH   1  21
ATOM     21  C   UNL     1       5.286   5.654  16.041  0.00  0.00    +0.000 C 
BRANCH  21  22
ATOM     22  C   UNL     1       6.745   5.612  16.519  0.00  0.00    +0.000 C 
BRANCH  22  23
ATOM     23  O   UNL     1       7.316   6.926  16.585  0.00  0.00    +0.000 OA
BRANCH  23  25
ATOM     24  C   UNL     1       7.778   6.125  18.783  0.00  0.00    +0.000 C 
ATOM     25  C   UNL     1       7.677   7.350  17.894  0.00  0.00    +0.000 C 
ENDBRANCH  23  25
ENDBRANCH  22  23
BRANCH  22  26
ATOM     26  O   UNL     1       7.493   4.845  15.566  0.00  0.00    +0.000 OA
BRANCH  26  27
ATOM     27  C   UNL     1       6.847   4.712  14.306  0.00  0.00    +0.000 C 
ATOM     28  C   UNL     1       7.788   5.233  13.234  0.00  0.00    +0.000 C 
ENDBRANCH  26  27
ENDBRANCH  22  26
ENDBRANCH  21  22
ENDBRANCH   1  21
TORSDOF 8
ENDMDL
MODEL 4
REMARK VINA RESULT:      -7.7      2.126      3.037
REMARK  Name = 
REMARK  10 active torsions:
REMARK  status: ('A' for Active; 'I' for Inactive)
REMARK    1  A    between atoms: C_1  and  C_2
REMARK    2  A    between atoms: C_2  and  O_3
REMARK    3  A    between atoms: O_3  and  C_4
REMARK    4  A    between atoms: C_4  and  C_5
REMARK    5  A    between atoms: C_4  and  O_24
REMARK    6  A    between atoms: C_5  and  N_6
REMARK    7  A    between atoms: C_8  and  C_9
REMARK    8  A    between atoms: C_10  and  C_11
REMARK    9  A    between atoms: O_24  and  C_25
REMARK   10  A    between atoms: C_25  and  C_26
REMARK                            x       y       z     vdW  Elec       q    Type
REMARK                         _______ _______ _______ _____ _____    ______ ____
ROOT
ATOM      1  N   UNL     1       4.606   5.324  17.227  0.00  0.00    +0.000 N 
ATOM      2  N   UNL     1       4.167   6.595  17.080  0.00  0.00    +0.000 NA
ATOM      3  C   UNL     1       3.288   6.726  18.075  0.00  0.00    +0.000 A 
ATOM      4  C   UNL     1       3.232   5.602  18.921  0.00  0.00    +0.000 A 
ATOM      5  C   UNL     1       2.550   5.185  20.066  0.00  0.00    +0.000 A 
ATOM      6  N   UNL     1       1.577   5.926  20.711  0.00  0.00    +0.000 N 
ATOM      7  N   UNL     1       2.850   3.975  20.583  0.00  0.00    +0.000 NA
ATOM      8  C   UNL     1       3.764   3.211  19.949  0.00  0.00    +0.000 A 
ATOM      9  N   UNL     1       4.444   3.488  18.819  0.00  0.00    +0.000 NA
ATOM     10  C   UNL     1       4.131   4.713  18.360  0.00  0.00    +0.000 A 
ATOM     11  H   UNL     1       1.580   6.927  20.568  0.00  0.00    +0.000 HD
ATOM     12  H   UNL     1       1.373   5.585  21.641  0.00  0.00    +0.000 HD
ENDROOT
BRANCH   3  13
ATOM     13  C   UNL     1       2.555   7.938  18.177  0.00  0.00    +0.000 C 
ATOM     14  C   UNL     1       1.891   8.935  18.267  0.00  0.00    +0.000 C 
BRANCH  14  15
ATOM     15  C   UNL     1       1.076  10.100  18.404  0.00  0.00    +0.000 A 
ATOM     16  C   UNL     1      -0.315   9.998  18.340  0.00  0.00    +0.000 A 
ATOM     17  C   UNL     1      -1.103  11.148  18.426  0.00  0.00    +0.000 A 
ATOM     18  C   UNL     1      -0.499  12.398  18.575  0.00  0.00    +0.000 A 
ATOM     19  C   UNL     1       0.889  12.498  18.660  0.00  0.00    +0.000 A 
ATOM     20  C   UNL     1       1.677  11.350  18.577  0.00  0.00    +0.000 A 
ENDBRANCH  14  15
ENDBRANCH   3  13
BRANCH   1  21
ATOM     21  C   UNL     1       5.503   4.742  16.252  0.00  0.00    +0.000 C 
BRANCH  21  22
ATOM     22  C   UNL     1       6.881   5.422  16.242  0.00  0.00    +0.000 C 
BRANCH  22  23
ATOM     23  O   UNL     1       7.504   5.331  14.955  0.00  0.00    +0.000 OA
BRANCH  23  25
ATOM     24  C   UNL     1       7.458   4.758  12.641  0.00  0.00    +0.000 C 
ATOM     25  C   UNL     1       6.734   4.652  13.970  0.00  0.00    +0.000 C 
ENDBRANCH  23  25
ENDBRANCH  22  23
BRANCH  22  26
ATOM     26  O   UNL     1       7.710   4.738  17.193  0.00  0.00    +0.000 OA
BRANCH  26  27
ATOM     27  C   UNL     1       7.799   5.397  18.451  0.00  0.00    +0.000 C 
ATOM     28  C   UNL     1       7.834   6.894  18.199  0.00  0.00    +0.000 C 
ENDBRANCH  26  27
ENDBRANCH  22  26
ENDBRANCH  21  22
ENDBRANCH   1  21
TORSDOF 8
ENDMDL
MODEL 5
REMARK VINA RESULT:      -7.7      2.103      3.089
REMARK  Name = 
REMARK  10 active torsions:
REMARK  status: ('A' for Active; 'I' for Inactive)
REMARK    1  A    between atoms: C_1  and  C_2
REMARK    2  A    between atoms: C_2  and  O_3
REMARK    3  A    between atoms: O_3  and  C_4
REMARK    4  A    between atoms: C_4  and  C_5
REMARK    5  A    between atoms: C_4  and  O_24
REMARK    6  A    between atoms: C_5  and  N_6
REMARK    7  A    between atoms: C_8  and  C_9
REMARK    8  A    between atoms: C_10  and  C_11
REMARK    9  A    between atoms: O_24  and  C_25
REMARK   10  A    between atoms: C_25  and  C_26
REMARK                            x       y       z     vdW  Elec       q    Type
REMARK                         _______ _______ _______ _____ _____    ______ ____
ROOT
ATOM      1  N   UNL     1       4.543   4.929  17.144  0.00  0.00    +0.000 N 
ATOM      2  N   UNL     1       4.174   6.224  17.025  0.00  0.00    +0.000 NA
ATOM      3  C   UNL     1       3.328   6.390  18.044  0.00  0.00    +0.000 A 
ATOM      4  C   UNL     1       3.229   5.259  18.876  0.00  0.00    +0.000 A 
ATOM      5  C   UNL     1       2.553   4.864  20.032  0.00  0.00    +0.000 A 
ATOM      6  N   UNL     1       1.640   5.650  20.710  0.00  0.00    +0.000 N 
ATOM      7  N   UNL     1       2.795   3.631  20.525  0.00  0.00    +0.000 NA
ATOM      8  C   UNL     1       3.648   2.826  19.857  0.00  0.00    +0.000 A 
ATOM      9  N   UNL     1       4.315   3.081  18.714  0.00  0.00    +0.000 NA
ATOM     10  C   UNL     1       4.062   4.328  18.279  0.00  0.00    +0.000 A 
ATOM     11  H   UNL     1       1.697   6.650  20.581  0.00  0.00    +0.000 HD
ATOM     12  H   UNL     1       1.439   5.307  21.641  0.00  0.00    +0.000 HD
ENDROOT
BRANCH   3  13
ATOM     13  C   UNL     1       2.670   7.641  18.181  0.00  0.00    +0.000 C 
ATOM     14  C   UNL     1       2.086   8.688  18.251  0.00  0.00    +0.000 C 
BRANCH  14  15
ATOM     15  C   UNL     1       1.355   9.913  18.320  0.00  0.00    +0.000 A 
ATOM     16  C   UNL     1       2.031  11.133  18.407  0.00  0.00    +0.000 A 
ATOM     17  C   UNL     1       1.309  12.322  18.525  0.00  0.00    +0.000 A 
ATOM     18  C   UNL     1      -0.087  12.292  18.555  0.00  0.00    +0.000 A 
ATOM     19  C   UNL     1      -0.762  11.077  18.447  0.00  0.00    +0.000 A 
ATOM     20  C   UNL     1      -0.042   9.888  18.327  0.00  0.00    +0.000 A 
ENDBRANCH  14  15
ENDBRANCH   3  13
BRANCH   1  21
ATOM     21  C   UNL     1       5.381   4.311  16.138  0.00  0.00    +0.000 C 
BRANCH  21  22
ATOM     22  C   UNL     1       6.646   5.131  15.844  0.00  0.00    +0.000 C 
BRANCH  22  23
ATOM     23  O   UNL     1       6.979   5.104  14.449  0.00  0.00    +0.000 OA
BRANCH  23  25
ATOM     24  C   UNL     1       6.931   4.053  12.310  0.00  0.00    +0.000 C 
ATOM     25  C   UNL     1       6.342   4.070  13.708  0.00  0.00    +0.000 C 
ENDBRANCH  23  25
ENDBRANCH  22  23
BRANCH  22  26
ATOM     26  O   UNL     1       7.728   4.540  16.576  0.00  0.00    +0.000 OA
BRANCH  26  27
ATOM     27  C   UNL     1       7.702   4.829  17.968  0.00  0.00    +0.000 C 
ATOM     28  C   UNL     1       7.670   6.338  18.137  0.00  0.00    +0.000 C 
ENDBRANCH  26  27
ENDBRANCH  22  26
ENDBRANCH  21  22
ENDBRANCH   1  21
TORSDOF 8
ENDMDL
MODEL 6
REMARK VINA RESULT:      -7.6      2.070      2.181
REMARK  Name = 
REMARK  10 active torsions:
REMARK  status: ('A' for Active; 'I' for Inactive)
REMARK    1  A    between atoms: C_1  and  C_2
REMARK    2  A    between atoms: C_2  and  O_3
REMARK    3  A    between atoms: O_3  and  C_4
REMARK    4  A    between atoms: C_4  and  C_5
REMARK    5  A    between atoms: C_4  and  O_24
REMARK    6  A    between atoms: C_5  and  N_6
REMARK    7  A    between atoms: C_8  and  C_9
REMARK    8  A    between atoms: C_10  and  C_11
REMARK    9  A    between atoms: O_24  and  C_25
REMARK   10  A    between atoms: C_25  and  C_26
REMARK                            x       y       z     vdW  Elec       q    Type
REMARK                         _______ _______ _______ _____ _____    ______ ____
ROOT
ATOM      1  N   UNL     1       4.535   5.952  17.082  0.00  0.00    +0.000 N 
ATOM      2  N   UNL     1       3.970   7.180  17.036  0.00  0.00    +0.000 NA
ATOM      3  C   UNL     1       3.126   7.160  18.070  0.00  0.00    +0.000 A 
ATOM      4  C   UNL     1       3.216   5.985  18.841  0.00  0.00    +0.000 A 
ATOM      5  C   UNL     1       2.629   5.432  19.980  0.00  0.00    +0.000 A 
ATOM      6  N   UNL     1       1.618   6.032  20.708  0.00  0.00    +0.000 N 
ATOM      7  N   UNL     1       3.066   4.228  20.404  0.00  0.00    +0.000 NA
ATOM      8  C   UNL     1       4.021   3.600  19.686  0.00  0.00    +0.000 A 
ATOM      9  N   UNL     1       4.621   4.013  18.553  0.00  0.00    +0.000 NA
ATOM     10  C   UNL     1       4.172   5.227  18.188  0.00  0.00    +0.000 A 
ATOM     11  H   UNL     1       1.518   7.034  20.632  0.00  0.00    +0.000 HD
ATOM     12  H   UNL     1       1.489   5.614  21.621  0.00  0.00    +0.000 HD
ENDROOT
BRANCH   3  13
ATOM     13  C   UNL     1       2.286   8.285  18.280  0.00  0.00    +0.000 C 
ATOM     14  C   UNL     1       1.561   9.235  18.406  0.00  0.00    +0.000 C 
BRANCH  14  15
ATOM     15  C   UNL     1       0.670  10.344  18.528  0.00  0.00    +0.000 A 
ATOM     16  C   UNL     1       1.161  11.610  18.857  0.00  0.00    +0.000 A 
ATOM     17  C   UNL     1       0.277  12.678  19.025  0.00  0.00    +0.000 A 
ATOM     18  C   UNL     1      -1.095  12.481  18.862  0.00  0.00    +0.000 A 
ATOM     19  C   UNL     1      -1.584  11.223  18.514  0.00  0.00    +0.000 A 
ATOM     20  C   UNL     1      -0.702  10.154  18.344  0.00  0.00    +0.000 A 
ENDBRANCH  14  15
ENDBRANCH   3  13
BRANCH   1  21
ATOM     21  C   UNL     1       5.441   5.524  16.037  0.00  0.00    +0.000 C 
BRANCH  21  22
ATOM     22  C   UNL     1       6.915   5.731  16.417  0.00  0.00    +0.000 C 
BRANCH  22  23
ATOM     23  O   UNL     1       7.184   7.097  16.758  0.00  0.00    +0.000 OA
BRANCH  23  25
ATOM     24  C   UNL     1       7.745   5.972  18.784  0.00  0.00    +0.000 C 
ATOM     25  C   UNL     1       7.816   7.280  18.019  0.00  0.00    +0.000 C 
ENDBRANCH  23  25
ENDBRANCH  22  23
BRANCH  22  26
ATOM     26  O   UNL     1       7.711   5.387  15.274  0.00  0.00    +0.000 OA
BRANCH  26  27
ATOM     27  C   UNL     1       6.971   4.772  14.227  0.00  0.00    +0.000 C 
ATOM     28  C   UNL     1       7.676   5.067  12.914  0.00  0.00    +0.000 C 
ENDBRANCH  26  27
ENDBRANCH  22  26
ENDBRANCH  21  22
ENDBRANCH   1  21
TORSDOF 8
ENDMDL
MODEL 7
REMARK VINA RESULT:      -7.6      0.978      2.603
REMARK  Name = 
REMARK  10 active torsions:
REMARK  status: ('A' for Active; 'I' for Inactive)
REMARK    1  A    between atoms: C_1  and  C_2
REMARK    2  A    between atoms: C_2  and  O_3
REMARK    3  A    between atoms: O_3  and  C_4
REMARK    4  A    between atoms: C_4  and  C_5
REMARK    5  A    between atoms: C_4  and  O_24
REMARK    6  A    between atoms: C_5  and  N_6
REMARK    7  A    between atoms: C_8  and  C_9
REMARK    8  A    between atoms: C_10  and  C_11
REMARK    9  A    between atoms: O_24  and  C_25
REMARK   10  A    between atoms: C_25  and  C_26
REMARK                            x       y       z     vdW  Elec       q    Type
REMARK                         _______ _______ _______ _____ _____    ______ ____
ROOT
ATOM      1  N   UNL     1       4.880   4.844  18.682  0.00  0.00    +0.000 N 
ATOM      2  N   UNL     1       4.444   6.008  19.215  0.00  0.00    +0.000 NA
ATOM      3  C   UNL     1       3.200   5.715  19.601  0.00  0.00    +0.000 A 
ATOM      4  C   UNL     1       2.866   4.359  19.424  0.00  0.00    +0.000 A 
ATOM      5  C   UNL     1       1.780   3.510  19.640  0.00  0.00    +0.000 A 
ATOM      6  N   UNL     1       0.558   3.917  20.145  0.00  0.00    +0.000 N 
ATOM      7  N   UNL     1       1.918   2.203  19.335  0.00  0.00    +0.000 NA
ATOM      8  C   UNL     1       3.084   1.787  18.799  0.00  0.00    +0.000 A 
ATOM      9  N   UNL     1       4.175   2.519  18.503  0.00  0.00    +0.000 NA
ATOM     10  C   UNL     1       3.998   3.806  18.851  0.00  0.00    +0.000 A 
ATOM     11  H   UNL     1       0.537   4.770  20.686  0.00  0.00    +0.000 HD
ATOM     12  H   UNL     1      -0.016   3.146  20.460  0.00  0.00    +0.000 HD
ENDROOT
BRANCH   3  13
ATOM     13  C   UNL     1       2.397   6.753  20.143  0.00  0.00    +0.000 C 
ATOM     14  C   UNL     1       1.709   7.648  20.552  0.00  0.00    +0.000 C 
BRANCH  14  15
ATOM     15  C   UNL     1       0.862   8.706  21.004  0.00  0.00    +0.000 A 
ATOM     16  C   UNL     1       0.379   9.657  20.102  0.00  0.00    +0.000 A 
ATOM     17  C   UNL     1      -0.407  10.716  20.560  0.00  0.00    +0.000 A 
ATOM     18  C   UNL     1      -0.711  10.823  21.919  0.00  0.00    +0.000 A 
ATOM     19  C   UNL     1      -0.247   9.862  22.816  0.00  0.00    +0.000 A 
ATOM     20  C   UNL     1       0.537   8.802  22.360  0.00  0.00    +0.000 A 
ENDBRANCH  14  15
ENDBRANCH   3  13
BRANCH   1  21
ATOM     21  C   UNL     1       6.170   4.774  18.030  0.00  0.00    +0.000 C 
BRANCH  21  22
ATOM     22  C   UNL     1       6.121   5.274  16.578  0.00  0.00    +0.000 C 
BRANCH  22  23
ATOM     23  O   UNL     1       6.715   4.332  15.676  0.00  0.00    +0.000 OA
BRANCH  23  25
ATOM     24  C   UNL     1       6.381   3.914  13.353  0.00  0.00    +0.000 C 
ATOM     25  C   UNL     1       5.810   3.747  14.748  0.00  0.00    +0.000 C 
ENDBRANCH  23  25
ENDBRANCH  22  23
BRANCH  22  26
ATOM     26  O   UNL     1       6.872   6.494  16.513  0.00  0.00    +0.000 OA
BRANCH  26  27
ATOM     27  C   UNL     1       7.565   6.803  17.717  0.00  0.00    +0.000 C 
ATOM     28  C   UNL     1       7.872   8.290  17.717  0.00  0.00    +0.000 C 
ENDBRANCH  26  27
ENDBRANCH  22  26
ENDBRANCH  21  22
ENDBRANCH   1  21
TORSDOF 8
ENDMDL
MODEL 8
REMARK VINA RESULT:      -7.5      1.167      2.708
REMARK  Name = 
REMARK  10 active torsions:
REMARK  status: ('A' for Active; 'I' for Inactive)
REMARK    1  A    between atoms: C_1  and  C_2
REMARK    2  A    between atoms: C_2  and  O_3
REMARK    3  A    between atoms: O_3  and  C_4
REMARK    4  A    between atoms: C_4  and  C_5
REMARK    5  A    between atoms: C_4  and  O_24
REMARK    6  A    between atoms: C_5  and  N_6
REMARK    7  A    between atoms: C_8  and  C_9
REMARK    8  A    between atoms: C_10  and  C_11
REMARK    9  A    between atoms: O_24  and  C_25
REMARK   10  A    between atoms: C_25  and  C_26
REMARK                            x       y       z     vdW  Elec       q    Type
REMARK                         _______ _______ _______ _____ _____    ______ ____
ROOT
ATOM      1  N   UNL     1       4.514   4.403  16.904  0.00  0.00    +0.000 N 
ATOM      2  N   UNL     1       4.200   5.699  17.132  0.00  0.00    +0.000 NA
ATOM      3  C   UNL     1       3.176   5.614  17.984  0.00  0.00    +0.000 A 
ATOM      4  C   UNL     1       2.895   4.295  18.389  0.00  0.00    +0.000 A 
ATOM      5  C   UNL     1       2.001   3.623  19.223  0.00  0.00    +0.000 A 
ATOM      6  N   UNL     1       0.989   4.235  19.939  0.00  0.00    +0.000 N 
ATOM      7  N   UNL     1       2.120   2.284  19.342  0.00  0.00    +0.000 NA
ATOM      8  C   UNL     1       3.071   1.655  18.620  0.00  0.00    +0.000 A 
ATOM      9  N   UNL     1       3.951   2.191  17.752  0.00  0.00    +0.000 NA
ATOM     10  C   UNL     1       3.811   3.527  17.691  0.00  0.00    +0.000 A 
ATOM     11  H   UNL     1       1.088   5.220  20.141  0.00  0.00    +0.000 HD
ATOM     12  H   UNL     1       0.605   3.643  20.665  0.00  0.00    +0.000 HD
ENDROOT
BRANCH   3  13
ATOM     13  C   UNL     1       2.526   6.811  18.384  0.00  0.00    +0.000 C 
ATOM     14  C   UNL     1       2.018   7.834  18.755  0.00  0.00    +0.000 C 
BRANCH  14  15
ATOM     15  C   UNL     1       1.454   9.070  19.196  0.00  0.00    +0.000 A 
ATOM     16  C   UNL     1       0.913   9.181  20.479  0.00  0.00    +0.000 A 
ATOM     17  C   UNL     1       0.318  10.378  20.884  0.00  0.00    +0.000 A 
ATOM     18  C   UNL     1       0.266  11.463  20.008  0.00  0.00    +0.000 A 
ATOM     19  C   UNL     1       0.824  11.360  18.734  0.00  0.00    +0.000 A 
ATOM     20  C   UNL     1       1.421  10.165  18.328  0.00  0.00    +0.000 A 
ENDBRANCH  14  15
ENDBRANCH   3  13
BRANCH   1  21
ATOM     21  C   UNL     1       5.520   4.055  15.923  0.00  0.00    +0.000 C 
BRANCH  21  22
ATOM     22  C   UNL     1       6.459   5.229  15.604  0.00  0.00    +0.000 C 
BRANCH  22  23
ATOM     23  O   UNL     1       7.089   5.067  14.326  0.00  0.00    +0.000 OA
BRANCH  23  25
ATOM     24  C   UNL     1       6.993   4.241  12.091  0.00  0.00    +0.000 C 
ATOM     25  C   UNL     1       6.546   4.024  13.525  0.00  0.00    +0.000 C 
ENDBRANCH  23  25
ENDBRANCH  22  23
BRANCH  22  26
ATOM     26  O   UNL     1       7.481   5.253  16.609  0.00  0.00    +0.000 OA
BRANCH  26  27
ATOM     27  C   UNL     1       7.458   6.422  17.420  0.00  0.00    +0.000 C 
ATOM     28  C   UNL     1       7.700   6.004  18.859  0.00  0.00    +0.000 C 
ENDBRANCH  26  27
ENDBRANCH  22  26
ENDBRANCH  21  22
ENDBRANCH   1  21
TORSDOF 8
ENDMDL
MODEL 9
REMARK VINA RESULT:      -7.5      1.275      2.421
REMARK  Name = 
REMARK  10 active torsions:
REMARK  status: ('A' for Active; 'I' for Inactive)
REMARK    1  A    between atoms: C_1  and  C_2
REMARK    2  A    between atoms: C_2  and  O_3
REMARK    3  A    between atoms: O_3  and  C_4
REMARK    4  A    between atoms: C_4  and  C_5
REMARK    5  A    between atoms: C_4  and  O_24
REMARK    6  A    between atoms: C_5  and  N_6
REMARK    7  A    between atoms: C_8  and  C_9
REMARK    8  A    between atoms: C_10  and  C_11
REMARK    9  A    between atoms: O_24  and  C_25
REMARK   10  A    between atoms: C_25  and  C_26
REMARK                            x       y       z     vdW  Elec       q    Type
REMARK                         _______ _______ _______ _____ _____    ______ ____
ROOT
ATOM      1  N   UNL     1       4.986   4.589  19.030  0.00  0.00    +0.000 N 
ATOM      2  N   UNL     1       4.530   5.780  19.481  0.00  0.00    +0.000 NA
ATOM      3  C   UNL     1       3.240   5.536  19.721  0.00  0.00    +0.000 A 
ATOM      4  C   UNL     1       2.883   4.187  19.534  0.00  0.00    +0.000 A 
ATOM      5  C   UNL     1       1.750   3.378  19.636  0.00  0.00    +0.000 A 
ATOM      6  N   UNL     1       0.492   3.836  19.981  0.00  0.00    +0.000 N 
ATOM      7  N   UNL     1       1.879   2.060  19.378  0.00  0.00    +0.000 NA
ATOM      8  C   UNL     1       3.086   1.594  18.995  0.00  0.00    +0.000 A 
ATOM      9  N   UNL     1       4.229   2.284  18.817  0.00  0.00    +0.000 NA
ATOM     10  C   UNL     1       4.056   3.584  19.113  0.00  0.00    +0.000 A 
ATOM     11  H   UNL     1       0.435   4.703  20.498  0.00  0.00    +0.000 HD
ATOM     12  H   UNL     1      -0.142   3.091  20.242  0.00  0.00    +0.000 HD
ENDROOT
BRANCH   3  13
ATOM     13  C   UNL     1       2.414   6.612  20.140  0.00  0.00    +0.000 C 
ATOM     14  C   UNL     1       1.755   7.555  20.484  0.00  0.00    +0.000 C 
BRANCH  14  15
ATOM     15  C   UNL     1       0.988   8.701  20.859  0.00  0.00    +0.000 A 
ATOM     16  C   UNL     1       0.682   8.936  22.201  0.00  0.00    +0.000 A 
ATOM     17  C   UNL     1      -0.110  10.030  22.554  0.00  0.00    +0.000 A 
ATOM     18  C   UNL     1      -0.594  10.889  21.566  0.00  0.00    +0.000 A 
ATOM     19  C   UNL     1      -0.271  10.668  20.228  0.00  0.00    +0.000 A 
ATOM     20  C   UNL     1       0.522   9.575  19.874  0.00  0.00    +0.000 A 
ENDBRANCH  14  15
ENDBRANCH   3  13
BRANCH   1  21
ATOM     21  C   UNL     1       6.342   4.462  18.540  0.00  0.00    +0.000 C 
BRANCH  21  22
ATOM     22  C   UNL     1       6.670   5.493  17.449  0.00  0.00    +0.000 C 
BRANCH  22  23
ATOM     23  O   UNL     1       7.470   4.921  16.406  0.00  0.00    +0.000 OA
BRANCH  23  25
ATOM     24  C   UNL     1       5.427   5.361  15.258  0.00  0.00    +0.000 C 
ATOM     25  C   UNL     1       6.891   4.989  15.109  0.00  0.00    +0.000 C 
ENDBRANCH  23  25
ENDBRANCH  22  23
BRANCH  22  26
ATOM     26  O   UNL     1       7.420   6.551  18.062  0.00  0.00    +0.000 OA
BRANCH  26  27
ATOM     27  C   UNL     1       7.307   7.798  17.386  0.00  0.00    +0.000 C 
ATOM     28  C   UNL     1       8.262   8.779  18.041  0.00  0.00    +0.000 C 
ENDBRANCH  26  27
ENDBRANCH  22  26
ENDBRANCH  21  22
ENDBRANCH   1  21
TORSDOF 8
ENDMDL
