MODEL 1
REMARK VINA RESULT:      -8.5      0.000      0.000
REMARK  Name = 
REMARK  9 active torsions:
REMARK  status: ('A' for Active; 'I' for Inactive)
REMARK    1  A    between atoms: C_1  and  O_2
REMARK    2  A    between atoms: O_2  and  C_3
REMARK    3  A    between atoms: C_7  and  C_8
REMARK    4  A    between atoms: C_9  and  C_10
REMARK    5  A    between atoms: C_10  and  C_12
REMARK    6  A    between atoms: C_17  and  O_18
REMARK    7  A    between atoms: C_21  and  C_22
REMARK    8  A    between atoms: C_21  and  C_23
REMARK    9  A    between atoms: C_25  and  O_26
REMARK                            x       y       z     vdW  Elec       q    Type
REMARK                         _______ _______ _______ _____ _____    ______ ____
ROOT
ATOM      1  C   UNL     1       7.449   6.996  17.278  0.00  0.00    +0.000 C 
ATOM      2  O   UNL     1       7.733   6.729  16.115  0.00  0.00    +0.000 OA
ENDROOT
BRANCH   1   3
ATOM      3  C   UNL     1       6.378   6.259  17.990  0.00  0.00    +0.000 A 
ATOM      4  C   UNL     1       6.658   5.490  19.133  0.00  0.00    +0.000 A 
ATOM      5  C   UNL     1       5.662   4.665  19.695  0.00  0.00    +0.000 A 
ATOM      6  C   UNL     1       4.358   4.734  19.211  0.00  0.00    +0.000 A 
ATOM      7  C   UNL     1       4.063   5.711  18.276  0.00  0.00    +0.000 A 
ATOM      8  C   UNL     1       5.066   6.290  17.514  0.00  0.00    +0.000 A 
ATOM      9  C   UNL     1       2.667   6.178  18.194  0.00  0.00    +0.000 C 
ATOM     10  C   UNL     1       1.895   5.103  17.978  0.00  0.00    +0.000 C 
ATOM     11  C   UNL     1       2.128   3.852  18.842  0.00  0.00    +0.000 C 
ATOM     12  C   UNL     1       0.987   3.754  19.858  0.00  0.00    +0.000 C 
ATOM     13  C   UNL     1       2.091   2.621  17.915  0.00  0.00    +0.000 C 
ATOM     14  O   UNL     1       3.375   3.873  19.635  0.00  0.00    +0.000 OA
BRANCH   8  15
ATOM     15  O   UNL     1       4.757   6.778  16.279  0.00  0.00    +0.000 OA
ATOM     16  H   UNL     1       5.199   7.652  16.240  0.00  0.00    +0.000 HD
ENDBRANCH   8  15
ENDBRANCH   1   3
BRANCH   1  18
ATOM     17  C   UNL     1       8.078   9.349  17.593  0.00  0.00    +0.000 C 
ATOM     18  C   UNL     1       8.139   8.079  18.040  0.00  0.00    +0.000 C 
BRANCH  17  23
ATOM     19  C   UNL     1       9.006  12.860  18.746  0.00  0.00    +0.000 A 
ATOM     20  C   UNL     1       9.752  12.524  19.883  0.00  0.00    +0.000 A 
ATOM     21  C   UNL     1       9.943  11.195  20.264  0.00  0.00    +0.000 A 
ATOM     22  C   UNL     1       9.371  10.178  19.499  0.00  0.00    +0.000 A 
ATOM     23  C   UNL     1       8.618  10.472  18.349  0.00  0.00    +0.000 A 
ATOM     24  C   UNL     1       8.446  11.830  17.981  0.00  0.00    +0.000 A 
BRANCH  19  26
ATOM     25  C   UNL     1       9.943  14.892  17.877  0.00  0.00    +0.000 C 
ATOM     26  O   UNL     1       8.909  14.212  18.562  0.00  0.00    +0.000 OA
ENDBRANCH  19  26
BRANCH  24  27
ATOM     27  O   UNL     1       7.698  12.124  16.868  0.00  0.00    +0.000 OA
ATOM     28  H   UNL     1       8.175  12.829  16.397  0.00  0.00    +0.000 HD
ENDBRANCH  24  27
ENDBRANCH  17  23
ENDBRANCH   1  18
TORSDOF 6
ENDMDL
MODEL 2
REMARK VINA RESULT:      -8.5      1.161      1.773
REMARK  Name = 
REMARK  9 active torsions:
REMARK  status: ('A' for Active; 'I' for Inactive)
REMARK    1  A    between atoms: C_1  and  O_2
REMARK    2  A    between atoms: O_2  and  C_3
REMARK    3  A    between atoms: C_7  and  C_8
REMARK    4  A    between atoms: C_9  and  C_10
REMARK    5  A    between atoms: C_10  and  C_12
REMARK    6  A    between atoms: C_17  and  O_18
REMARK    7  A    between atoms: C_21  and  C_22
REMARK    8  A    between atoms: C_21  and  C_23
REMARK    9  A    between atoms: C_25  and  O_26
REMARK                            x       y       z     vdW  Elec       q    Type
REMARK                         _______ _______ _______ _____ _____    ______ ____
ROOT
ATOM      1  C   UNL     1       7.191   6.807  17.126  0.00  0.00    +0.000 C 
ATOM      2  O   UNL     1       7.755   6.349  16.138  0.00  0.00    +0.000 OA
ENDROOT
BRANCH   1   3
ATOM      3  C   UNL     1       5.835   6.347  17.510  0.00  0.00    +0.000 A 
ATOM      4  C   UNL     1       4.723   7.204  17.426  0.00  0.00    +0.000 A 
ATOM      5  C   UNL     1       3.478   6.804  17.952  0.00  0.00    +0.000 A 
ATOM      6  C   UNL     1       3.312   5.501  18.413  0.00  0.00    +0.000 A 
ATOM      7  C   UNL     1       4.348   4.605  18.216  0.00  0.00    +0.000 A 
ATOM      8  C   UNL     1       5.642   5.053  17.998  0.00  0.00    +0.000 A 
ATOM      9  C   UNL     1       4.008   3.172  18.146  0.00  0.00    +0.000 C 
ATOM     10  C   UNL     1       3.354   2.858  19.274  0.00  0.00    +0.000 C 
ATOM     11  C   UNL     1       2.222   3.788  19.742  0.00  0.00    +0.000 C 
ATOM     12  C   UNL     1       0.886   3.098  19.455  0.00  0.00    +0.000 C 
ATOM     13  C   UNL     1       2.373   3.990  21.263  0.00  0.00    +0.000 C 
ATOM     14  O   UNL     1       2.162   5.089  19.044  0.00  0.00    +0.000 OA
BRANCH   8  15
ATOM     15  O   UNL     1       6.685   4.257  18.366  0.00  0.00    +0.000 OA
ATOM     16  H   UNL     1       7.160   4.068  17.528  0.00  0.00    +0.000 HD
ENDBRANCH   8  15
ENDBRANCH   1   3
BRANCH   1  18
ATOM     17  C   UNL     1       8.065   9.075  17.470  0.00  0.00    +0.000 C 
ATOM     18  C   UNL     1       7.812   7.857  17.987  0.00  0.00    +0.000 C 
BRANCH  17  23
ATOM     19  C   UNL     1       8.862  12.565  18.776  0.00  0.00    +0.000 A 
ATOM     20  C   UNL     1       9.582  12.208  19.922  0.00  0.00    +0.000 A 
ATOM     21  C   UNL     1       9.798  10.871  20.262  0.00  0.00    +0.000 A 
ATOM     22  C   UNL     1       9.277   9.868  19.444  0.00  0.00    +0.000 A 
ATOM     23  C   UNL     1       8.551  10.183  18.282  0.00  0.00    +0.000 A 
ATOM     24  C   UNL     1       8.353  11.549  17.958  0.00  0.00    +0.000 A 
BRANCH  19  26
ATOM     25  C   UNL     1       9.747  14.644  17.966  0.00  0.00    +0.000 C 
ATOM     26  O   UNL     1       8.734  13.920  18.637  0.00  0.00    +0.000 OA
ENDBRANCH  19  26
BRANCH  24  27
ATOM     27  O   UNL     1       7.631  11.864  16.833  0.00  0.00    +0.000 OA
ATOM     28  H   UNL     1       7.508  11.030  16.346  0.00  0.00    +0.000 HD
ENDBRANCH  24  27
ENDBRANCH  17  23
ENDBRANCH   1  18
TORSDOF 6
ENDMDL
MODEL 3
REMARK VINA RESULT:      -8.1      1.230      1.245
REMARK  Name = 
REMARK  9 active torsions:
REMARK  status: ('A' for Active; 'I' for Inactive)
REMARK    1  A    between atoms: C_1  and  O_2
REMARK    2  A    between atoms: O_2  and  C_3
REMARK    3  A    between atoms: C_7  and  C_8
REMARK    4  A    between atoms: C_9  and  C_10
REMARK    5  A    between atoms: C_10  and  C_12
REMARK    6  A    between atoms: C_17  and  O_18
REMARK    7  A    between atoms: C_21  and  C_22
REMARK    8  A    between atoms: C_21  and  C_23
REMARK    9  A    between atoms: C_25  and  O_26
REMARK                            x       y       z     vdW  Elec       q    Type
REMARK                         _______ _______ _______ _____ _____    ______ ____
ROOT
ATOM      1  C   UNL     1       7.596   7.236  17.522  0.00  0.00    +0.000 C 
ATOM      2  O   UNL     1       7.830   7.185  16.319  0.00  0.00    +0.000 OA
ENDROOT
BRANCH   1   3
ATOM      3  C   UNL     1       6.528   6.404  18.126  0.00  0.00    +0.000 A 
ATOM      4  C   UNL     1       6.797   5.541  19.203  0.00  0.00    +0.000 A 
ATOM      5  C   UNL     1       5.812   4.638  19.653  0.00  0.00    +0.000 A 
ATOM      6  C   UNL     1       4.523   4.711  19.132  0.00  0.00    +0.000 A 
ATOM      7  C   UNL     1       4.225   5.759  18.280  0.00  0.00    +0.000 A 
ATOM      8  C   UNL     1       5.232   6.438  17.609  0.00  0.00    +0.000 A 
ATOM      9  C   UNL     1       2.817   6.188  18.192  0.00  0.00    +0.000 C 
ATOM     10  C   UNL     1       2.089   5.114  17.851  0.00  0.00    +0.000 C 
ATOM     11  C   UNL     1       2.337   3.797  18.606  0.00  0.00    +0.000 C 
ATOM     12  C   UNL     1       1.168   3.571  19.569  0.00  0.00    +0.000 C 
ATOM     13  C   UNL     1       2.371   2.656  17.571  0.00  0.00    +0.000 C 
ATOM     14  O   UNL     1       3.556   3.784  19.442  0.00  0.00    +0.000 OA
BRANCH   8  15
ATOM     15  O   UNL     1       4.945   7.027  16.414  0.00  0.00    +0.000 OA
ATOM     16  H   UNL     1       4.260   6.451  16.012  0.00  0.00    +0.000 HD
ENDBRANCH   8  15
ENDBRANCH   1   3
BRANCH   1  18
ATOM     17  C   UNL     1       8.681   9.378  18.033  0.00  0.00    +0.000 C 
ATOM     18  C   UNL     1       8.344   8.140  18.445  0.00  0.00    +0.000 C 
BRANCH  17  23
ATOM     19  C   UNL     1      10.881  12.159  19.429  0.00  0.00    +0.000 A 
ATOM     20  C   UNL     1      10.419  12.157  20.751  0.00  0.00    +0.000 A 
ATOM     21  C   UNL     1       9.419  11.279  21.174  0.00  0.00    +0.000 A 
ATOM     22  C   UNL     1       8.861  10.390  20.256  0.00  0.00    +0.000 A 
ATOM     23  C   UNL     1       9.298  10.356  18.920  0.00  0.00    +0.000 A 
ATOM     24  C   UNL     1      10.320  11.254  18.520  0.00  0.00    +0.000 A 
BRANCH  19  26
ATOM     25  C   UNL     1      11.525  14.471  19.437  0.00  0.00    +0.000 C 
ATOM     26  O   UNL     1      11.838  13.111  19.208  0.00  0.00    +0.000 OA
ENDBRANCH  19  26
BRANCH  24  27
ATOM     27  O   UNL     1      10.740  11.238  17.213  0.00  0.00    +0.000 OA
ATOM     28  H   UNL     1      11.083  10.342  17.048  0.00  0.00    +0.000 HD
ENDBRANCH  24  27
ENDBRANCH  17  23
ENDBRANCH   1  18
TORSDOF 6
ENDMDL
MODEL 4
REMARK VINA RESULT:      -8.0      1.371      1.835
REMARK  Name = 
REMARK  9 active torsions:
REMARK  status: ('A' for Active; 'I' for Inactive)
REMARK    1  A    between atoms: C_1  and  O_2
REMARK    2  A    between atoms: O_2  and  C_3
REMARK    3  A    between atoms: C_7  and  C_8
REMARK    4  A    between atoms: C_9  and  C_10
REMARK    5  A    between atoms: C_10  and  C_12
REMARK    6  A    between atoms: C_17  and  O_18
REMARK    7  A    between atoms: C_21  and  C_22
REMARK    8  A    between atoms: C_21  and  C_23
REMARK    9  A    between atoms: C_25  and  O_26
REMARK                            x       y       z     vdW  Elec       q    Type
REMARK                         _______ _______ _______ _____ _____    ______ ____
ROOT
ATOM      1  C   UNL     1       7.404   7.303  17.232  0.00  0.00    +0.000 C 
ATOM      2  O   UNL     1       8.074   6.822  16.325  0.00  0.00    +0.000 OA
ENDROOT
BRANCH   1   3
ATOM      3  C   UNL     1       6.380   6.494  17.936  0.00  0.00    +0.000 A 
ATOM      4  C   UNL     1       6.707   5.729  19.069  0.00  0.00    +0.000 A 
ATOM      5  C   UNL     1       5.763   4.839  19.621  0.00  0.00    +0.000 A 
ATOM      6  C   UNL     1       4.457   4.835  19.138  0.00  0.00    +0.000 A 
ATOM      7  C   UNL     1       4.102   5.803  18.215  0.00  0.00    +0.000 A 
ATOM      8  C   UNL     1       5.068   6.452  17.460  0.00  0.00    +0.000 A 
ATOM      9  C   UNL     1       2.680   6.186  18.139  0.00  0.00    +0.000 C 
ATOM     10  C   UNL     1       1.975   5.069  17.910  0.00  0.00    +0.000 C 
ATOM     11  C   UNL     1       2.283   3.824  18.759  0.00  0.00    +0.000 C 
ATOM     12  C   UNL     1       1.151   3.645  19.774  0.00  0.00    +0.000 C 
ATOM     13  C   UNL     1       2.320   2.605  17.817  0.00  0.00    +0.000 C 
ATOM     14  O   UNL     1       3.527   3.911  19.552  0.00  0.00    +0.000 OA
BRANCH   8  15
ATOM     15  O   UNL     1       4.728   6.935  16.231  0.00  0.00    +0.000 OA
ATOM     16  H   UNL     1       3.800   6.647  16.101  0.00  0.00    +0.000 HD
ENDBRANCH   8  15
ENDBRANCH   1   3
BRANCH   1  18
ATOM     17  C   UNL     1       8.637   9.082  18.391  0.00  0.00    +0.000 C 
ATOM     18  C   UNL     1       7.556   8.722  17.673  0.00  0.00    +0.000 C 
BRANCH  17  23
ATOM     19  C   UNL     1       9.485  12.251  20.331  0.00  0.00    +0.000 A 
ATOM     20  C   UNL     1       9.381  13.178  19.286  0.00  0.00    +0.000 A 
ATOM     21  C   UNL     1       9.049  12.782  17.989  0.00  0.00    +0.000 A 
ATOM     22  C   UNL     1       8.823  11.432  17.726  0.00  0.00    +0.000 A 
ATOM     23  C   UNL     1       8.914  10.468  18.746  0.00  0.00    +0.000 A 
ATOM     24  C   UNL     1       9.246  10.899  20.056  0.00  0.00    +0.000 A 
BRANCH  19  26
ATOM     25  C   UNL     1       8.847  13.207  22.438  0.00  0.00    +0.000 C 
ATOM     26  O   UNL     1       9.850  12.832  21.514  0.00  0.00    +0.000 OA
ENDBRANCH  19  26
BRANCH  24  27
ATOM     27  O   UNL     1       9.352   9.962  21.053  0.00  0.00    +0.000 OA
ATOM     28  H   UNL     1      10.264   9.623  21.013  0.00  0.00    +0.000 HD
ENDBRANCH  24  27
ENDBRANCH  17  23
ENDBRANCH   1  18
TORSDOF 6
ENDMDL
MODEL 5
REMARK VINA RESULT:      -7.9      1.661      2.387
REMARK  Name = 
REMARK  9 active torsions:
REMARK  status: ('A' for Active; 'I' for Inactive)
REMARK    1  A    between atoms: C_1  and  O_2
REMARK    2  A    between atoms: O_2  and  C_3
REMARK    3  A    between atoms: C_7  and  C_8
REMARK    4  A    between atoms: C_9  and  C_10
REMARK    5  A    between atoms: C_10  and  C_12
REMARK    6  A    between atoms: C_17  and  O_18
REMARK    7  A    between atoms: C_21  and  C_22
REMARK    8  A    between atoms: C_21  and  C_23
REMARK    9  A    between atoms: C_25  and  O_26
REMARK                            x       y       z     vdW  Elec       q    Type
REMARK                         _______ _______ _______ _____ _____    ______ ____
ROOT
ATOM      1  C   UNL     1       6.938   6.980  17.186  0.00  0.00    +0.000 C 
ATOM      2  O   UNL     1       7.819   6.306  16.663  0.00  0.00    +0.000 OA
ENDROOT
BRANCH   1   3
ATOM      3  C   UNL     1       5.616   6.391  17.505  0.00  0.00    +0.000 A 
ATOM      4  C   UNL     1       4.444   7.165  17.466  0.00  0.00    +0.000 A 
ATOM      5  C   UNL     1       3.225   6.632  17.933  0.00  0.00    +0.000 A 
ATOM      6  C   UNL     1       3.152   5.287  18.287  0.00  0.00    +0.000 A 
ATOM      7  C   UNL     1       4.257   4.491  18.041  0.00  0.00    +0.000 A 
ATOM      8  C   UNL     1       5.516   5.051  17.886  0.00  0.00    +0.000 A 
ATOM      9  C   UNL     1       4.028   3.047  17.852  0.00  0.00    +0.000 C 
ATOM     10  C   UNL     1       3.384   2.595  18.938  0.00  0.00    +0.000 C 
ATOM     11  C   UNL     1       2.177   3.397  19.455  0.00  0.00    +0.000 C 
ATOM     12  C   UNL     1       0.902   2.634  19.086  0.00  0.00    +0.000 C 
ATOM     13  C   UNL     1       2.290   3.487  20.989  0.00  0.00    +0.000 C 
ATOM     14  O   UNL     1       2.028   4.742  18.860  0.00  0.00    +0.000 OA
BRANCH   8  15
ATOM     15  O   UNL     1       6.612   4.308  18.212  0.00  0.00    +0.000 OA
ATOM     16  H   UNL     1       7.372   4.831  17.880  0.00  0.00    +0.000 HD
ENDBRANCH   8  15
ENDBRANCH   1   3
BRANCH   1  18
ATOM     17  C   UNL     1       8.276   8.830  18.091  0.00  0.00    +0.000 C 
ATOM     18  C   UNL     1       7.126   8.424  17.517  0.00  0.00    +0.000 C 
BRANCH  17  23
ATOM     19  C   UNL     1       9.483  12.089  19.653  0.00  0.00    +0.000 A 
ATOM     20  C   UNL     1       9.058  12.976  18.657  0.00  0.00    +0.000 A 
ATOM     21  C   UNL     1       8.401  12.527  17.510  0.00  0.00    +0.000 A 
ATOM     22  C   UNL     1       8.171  11.161  17.349  0.00  0.00    +0.000 A 
ATOM     23  C   UNL     1       8.579  10.236  18.326  0.00  0.00    +0.000 A 
ATOM     24  C   UNL     1       9.237  10.721  19.484  0.00  0.00    +0.000 A 
BRANCH  19  26
ATOM     25  C   UNL     1      10.666  14.014  20.465  0.00  0.00    +0.000 C 
ATOM     26  O   UNL     1      10.132  12.721  20.678  0.00  0.00    +0.000 OA
ENDBRANCH  19  26
BRANCH  24  27
ATOM     27  O   UNL     1       9.652   9.822  20.435  0.00  0.00    +0.000 OA
ATOM     28  H   UNL     1       9.186  10.058  21.256  0.00  0.00    +0.000 HD
ENDBRANCH  24  27
ENDBRANCH  17  23
ENDBRANCH   1  18
TORSDOF 6
ENDMDL
MODEL 6
REMARK VINA RESULT:      -7.5      4.678      7.665
REMARK  Name = 
REMARK  9 active torsions:
REMARK  status: ('A' for Active; 'I' for Inactive)
REMARK    1  A    between atoms: C_1  and  O_2
REMARK    2  A    between atoms: O_2  and  C_3
REMARK    3  A    between atoms: C_7  and  C_8
REMARK    4  A    between atoms: C_9  and  C_10
REMARK    5  A    between atoms: C_10  and  C_12
REMARK    6  A    between atoms: C_17  and  O_18
REMARK    7  A    between atoms: C_21  and  C_22
REMARK    8  A    between atoms: C_21  and  C_23
REMARK    9  A    between atoms: C_25  and  O_26
REMARK                            x       y       z     vdW  Elec       q    Type
REMARK                         _______ _______ _______ _____ _____    ______ ____
ROOT
ATOM      1  C   UNL     1       2.570   6.637  19.222  0.00  0.00    +0.000 C 
ATOM      2  O   UNL     1       2.534   5.986  20.260  0.00  0.00    +0.000 OA
ENDROOT
BRANCH   1   3
ATOM      3  C   UNL     1       1.925   7.968  19.134  0.00  0.00    +0.000 A 
ATOM      4  C   UNL     1       1.809   8.644  17.906  0.00  0.00    +0.000 A 
ATOM      5  C   UNL     1       1.346   9.975  17.869  0.00  0.00    +0.000 A 
ATOM      6  C   UNL     1       0.857  10.566  19.032  0.00  0.00    +0.000 A 
ATOM      7  C   UNL     1       0.724   9.772  20.158  0.00  0.00    +0.000 A 
ATOM      8  C   UNL     1       1.447   8.596  20.286  0.00  0.00    +0.000 A 
ATOM      9  C   UNL     1      -0.281  10.171  21.159  0.00  0.00    +0.000 C 
ATOM     10  C   UNL     1      -0.003  11.430  21.529  0.00  0.00    +0.000 C 
ATOM     11  C   UNL     1       0.287  12.466  20.429  0.00  0.00    +0.000 C 
ATOM     12  C   UNL     1      -0.934  13.381  20.301  0.00  0.00    +0.000 C 
ATOM     13  C   UNL     1       1.504  13.300  20.873  0.00  0.00    +0.000 C 
ATOM     14  O   UNL     1       0.505  11.894  19.084  0.00  0.00    +0.000 OA
BRANCH   8  15
ATOM     15  O   UNL     1       1.756   8.146  21.535  0.00  0.00    +0.000 OA
ATOM     16  H   UNL     1       1.781   7.170  21.448  0.00  0.00    +0.000 HD
ENDBRANCH   8  15
ENDBRANCH   1   3
BRANCH   1  18
ATOM     17  C   UNL     1       4.551   5.825  18.018  0.00  0.00    +0.000 C 
ATOM     18  C   UNL     1       3.239   6.134  17.985  0.00  0.00    +0.000 C 
BRANCH  17  23
ATOM     19  C   UNL     1       6.901   5.192  15.086  0.00  0.00    +0.000 A 
ATOM     20  C   UNL     1       6.440   3.925  14.709  0.00  0.00    +0.000 A 
ATOM     21  C   UNL     1       5.398   3.294  15.392  0.00  0.00    +0.000 A 
ATOM     22  C   UNL     1       4.809   3.938  16.479  0.00  0.00    +0.000 A 
ATOM     23  C   UNL     1       5.239   5.212  16.889  0.00  0.00    +0.000 A 
ATOM     24  C   UNL     1       6.294   5.833  16.173  0.00  0.00    +0.000 A 
BRANCH  19  26
ATOM     25  C   UNL     1       7.955   5.319  12.933  0.00  0.00    +0.000 C 
ATOM     26  O   UNL     1       7.946   5.622  14.315  0.00  0.00    +0.000 OA
ENDBRANCH  19  26
BRANCH  24  27
ATOM     27  O   UNL     1       6.730   7.070  16.578  0.00  0.00    +0.000 OA
ATOM     28  H   UNL     1       6.563   7.118  17.536  0.00  0.00    +0.000 HD
ENDBRANCH  24  27
ENDBRANCH  17  23
ENDBRANCH   1  18
TORSDOF 6
ENDMDL
MODEL 7
REMARK VINA RESULT:      -7.5      1.698      2.493
REMARK  Name = 
REMARK  9 active torsions:
REMARK  status: ('A' for Active; 'I' for Inactive)
REMARK    1  A    between atoms: C_1  and  O_2
REMARK    2  A    between atoms: O_2  and  C_3
REMARK    3  A    between atoms: C_7  and  C_8
REMARK    4  A    between atoms: C_9  and  C_10
REMARK    5  A    between atoms: C_10  and  C_12
REMARK    6  A    between atoms: C_17  and  O_18
REMARK    7  A    between atoms: C_21  and  C_22
REMARK    8  A    between atoms: C_21  and  C_23
REMARK    9  A    between atoms: C_25  and  O_26
REMARK                            x       y       z     vdW  Elec       q    Type
REMARK                         _______ _______ _______ _____ _____    ______ ____
ROOT
ATOM      1  C   UNL     1       7.731   7.178  18.207  0.00  0.00    +0.000 C 
ATOM      2  O   UNL     1       8.681   6.501  18.583  0.00  0.00    +0.000 OA
ENDROOT
BRANCH   1   3
ATOM      3  C   UNL     1       6.386   6.577  18.038  0.00  0.00    +0.000 A 
ATOM      4  C   UNL     1       5.462   7.104  17.119  0.00  0.00    +0.000 A 
ATOM      5  C   UNL     1       4.136   6.626  17.092  0.00  0.00    +0.000 A 
ATOM      6  C   UNL     1       3.786   5.525  17.869  0.00  0.00    +0.000 A 
ATOM      7  C   UNL     1       4.794   4.859  18.543  0.00  0.00    +0.000 A 
ATOM      8  C   UNL     1       5.999   5.488  18.820  0.00  0.00    +0.000 A 
ATOM      9  C   UNL     1       4.577   3.437  18.864  0.00  0.00    +0.000 C 
ATOM     10  C   UNL     1       3.437   3.352  19.565  0.00  0.00    +0.000 C 
ATOM     11  C   UNL     1       2.204   4.112  19.047  0.00  0.00    +0.000 C 
ATOM     12  C   UNL     1       1.234   3.095  18.441  0.00  0.00    +0.000 C 
ATOM     13  C   UNL     1       1.531   4.800  20.251  0.00  0.00    +0.000 C 
ATOM     14  O   UNL     1       2.487   5.089  17.976  0.00  0.00    +0.000 OA
BRANCH   8  15
ATOM     15  O   UNL     1       6.714   5.089  19.909  0.00  0.00    +0.000 OA
ATOM     16  H   UNL     1       6.414   5.680  20.632  0.00  0.00    +0.000 HD
ENDBRANCH   8  15
ENDBRANCH   1   3
BRANCH   1  18
ATOM     17  C   UNL     1       8.640   9.416  18.650  0.00  0.00    +0.000 C 
ATOM     18  C   UNL     1       7.862   8.629  17.880  0.00  0.00    +0.000 C 
BRANCH  17  23
ATOM     19  C   UNL     1      10.260  12.856  18.411  0.00  0.00    +0.000 A 
ATOM     20  C   UNL     1       9.288  13.499  17.636  0.00  0.00    +0.000 A 
ATOM     21  C   UNL     1       8.142  12.832  17.201  0.00  0.00    +0.000 A 
ATOM     22  C   UNL     1       7.965  11.491  17.540  0.00  0.00    +0.000 A 
ATOM     23  C   UNL     1       8.915  10.808  18.319  0.00  0.00    +0.000 A 
ATOM     24  C   UNL     1      10.067  11.513  18.753  0.00  0.00    +0.000 A 
BRANCH  19  26
ATOM     25  C   UNL     1      11.248  14.508  19.846  0.00  0.00    +0.000 C 
ATOM     26  O   UNL     1      11.319  13.670  18.708  0.00  0.00    +0.000 OA
ENDBRANCH  19  26
BRANCH  24  27
ATOM     27  O   UNL     1      11.006  10.847  19.501  0.00  0.00    +0.000 OA
ATOM     28  H   UNL     1      10.571  10.612  20.339  0.00  0.00    +0.000 HD
ENDBRANCH  24  27
ENDBRANCH  17  23
ENDBRANCH   1  18
TORSDOF 6
ENDMDL
MODEL 8
REMARK VINA RESULT:      -7.4      5.420      9.128
REMARK  Name = 
REMARK  9 active torsions:
REMARK  status: ('A' for Active; 'I' for Inactive)
REMARK    1  A    between atoms: C_1  and  O_2
REMARK    2  A    between atoms: O_2  and  C_3
REMARK    3  A    between atoms: C_7  and  C_8
REMARK    4  A    between atoms: C_9  and  C_10
REMARK    5  A    between atoms: C_10  and  C_12
REMARK    6  A    between atoms: C_17  and  O_18
REMARK    7  A    between atoms: C_21  and  C_22
REMARK    8  A    between atoms: C_21  and  C_23
REMARK    9  A    between atoms: C_25  and  O_26
REMARK                            x       y       z     vdW  Elec       q    Type
REMARK                         _______ _______ _______ _____ _____    ______ ____
ROOT
ATOM      1  C   UNL     1       1.762   9.053  18.276  0.00  0.00    +0.000 C 
ATOM      2  O   UNL     1       2.163   9.712  17.323  0.00  0.00    +0.000 OA
ENDROOT
BRANCH   1   3
ATOM      3  C   UNL     1       1.183   9.714  19.470  0.00  0.00    +0.000 A 
ATOM      4  C   UNL     1       1.046   9.028  20.690  0.00  0.00    +0.000 A 
ATOM      5  C   UNL     1       0.343   9.617  21.761  0.00  0.00    +0.000 A 
ATOM      6  C   UNL     1      -0.079  10.940  21.662  0.00  0.00    +0.000 A 
ATOM      7  C   UNL     1       0.324  11.670  20.558  0.00  0.00    +0.000 A 
ATOM      8  C   UNL     1       0.728  11.032  19.394  0.00  0.00    +0.000 A 
ATOM      9  C   UNL     1       0.402  13.135  20.699  0.00  0.00    +0.000 C 
ATOM     10  C   UNL     1      -0.802  13.565  21.105  0.00  0.00    +0.000 C 
ATOM     11  C   UNL     1      -1.490  12.821  22.262  0.00  0.00    +0.000 C 
ATOM     12  C   UNL     1      -1.393  13.693  23.516  0.00  0.00    +0.000 C 
ATOM     13  C   UNL     1      -2.973  12.631  21.888  0.00  0.00    +0.000 C 
ATOM     14  O   UNL     1      -0.870  11.528  22.620  0.00  0.00    +0.000 OA
BRANCH   8  15
ATOM     15  O   UNL     1       0.572  11.675  18.203  0.00  0.00    +0.000 OA
ATOM     16  H   UNL     1       1.178  12.444  18.255  0.00  0.00    +0.000 HD
ENDBRANCH   8  15
ENDBRANCH   1   3
BRANCH   1  18
ATOM     17  C   UNL     1       3.045   6.966  18.441  0.00  0.00    +0.000 C 
ATOM     18  C   UNL     1       1.844   7.563  18.309  0.00  0.00    +0.000 C 
BRANCH  17  23
ATOM     19  C   UNL     1       3.166   3.460  19.929  0.00  0.00    +0.000 A 
ATOM     20  C   UNL     1       3.542   2.752  18.782  0.00  0.00    +0.000 A 
ATOM     21  C   UNL     1       3.745   3.395  17.559  0.00  0.00    +0.000 A 
ATOM     22  C   UNL     1       3.562   4.775  17.478  0.00  0.00    +0.000 A 
ATOM     23  C   UNL     1       3.189   5.526  18.607  0.00  0.00    +0.000 A 
ATOM     24  C   UNL     1       2.996   4.847  19.837  0.00  0.00    +0.000 A 
BRANCH  19  26
ATOM     25  C   UNL     1       1.694   2.520  21.576  0.00  0.00    +0.000 C 
ATOM     26  O   UNL     1       2.986   2.647  21.014  0.00  0.00    +0.000 OA
ENDBRANCH  19  26
BRANCH  24  27
ATOM     27  O   UNL     1       2.615   5.571  20.939  0.00  0.00    +0.000 OA
ATOM     28  H   UNL     1       3.415   5.681  21.483  0.00  0.00    +0.000 HD
ENDBRANCH  24  27
ENDBRANCH  17  23
ENDBRANCH   1  18
TORSDOF 6
ENDMDL
MODEL 9
REMARK VINA RESULT:      -7.4      5.406      9.152
REMARK  Name = 
REMARK  9 active torsions:
REMARK  status: ('A' for Active; 'I' for Inactive)
REMARK    1  A    between atoms: C_1  and  O_2
REMARK    2  A    between atoms: O_2  and  C_3
REMARK    3  A    between atoms: C_7  and  C_8
REMARK    4  A    between atoms: C_9  and  C_10
REMARK    5  A    between atoms: C_10  and  C_12
REMARK    6  A    between atoms: C_17  and  O_18
REMARK    7  A    between atoms: C_21  and  C_22
REMARK    8  A    between atoms: C_21  and  C_23
REMARK    9  A    between atoms: C_25  and  O_26
REMARK                            x       y       z     vdW  Elec       q    Type
REMARK                         _______ _______ _______ _____ _____    ______ ____
ROOT
ATOM      1  C   UNL     1       1.670   9.079  18.088  0.00  0.00    +0.000 C 
ATOM      2  O   UNL     1       2.444   9.714  17.380  0.00  0.00    +0.000 OA
ENDROOT
BRANCH   1   3
ATOM      3  C   UNL     1       0.618   9.768  18.874  0.00  0.00    +0.000 A 
ATOM      4  C   UNL     1      -0.425  10.468  18.242  0.00  0.00    +0.000 A 
ATOM      5  C   UNL     1      -1.316  11.252  19.003  0.00  0.00    +0.000 A 
ATOM      6  C   UNL     1      -1.257  11.208  20.393  0.00  0.00    +0.000 A 
ATOM      7  C   UNL     1      -0.404  10.289  20.978  0.00  0.00    +0.000 A 
ATOM      8  C   UNL     1       0.665   9.760  20.270  0.00  0.00    +0.000 A 
ATOM      9  C   UNL     1      -0.732   9.822  22.338  0.00  0.00    +0.000 C 
ATOM     10  C   UNL     1      -0.829  10.905  23.122  0.00  0.00    +0.000 C 
ATOM     11  C   UNL     1      -1.651  12.102  22.614  0.00  0.00    +0.000 C 
ATOM     12  C   UNL     1      -2.975  12.134  23.382  0.00  0.00    +0.000 C 
ATOM     13  C   UNL     1      -0.856  13.387  22.919  0.00  0.00    +0.000 C 
ATOM     14  O   UNL     1      -2.016  12.038  21.184  0.00  0.00    +0.000 OA
BRANCH   8  15
ATOM     15  O   UNL     1       1.769   9.347  20.954  0.00  0.00    +0.000 OA
ATOM     16  H   UNL     1       1.925   8.431  20.641  0.00  0.00    +0.000 HD
ENDBRANCH   8  15
ENDBRANCH   1   3
BRANCH   1  18
ATOM     17  C   UNL     1       2.945   6.993  18.307  0.00  0.00    +0.000 C 
ATOM     18  C   UNL     1       1.742   7.594  18.221  0.00  0.00    +0.000 C 
BRANCH  17  23
ATOM     19  C   UNL     1       3.058   3.588  20.015  0.00  0.00    +0.000 A 
ATOM     20  C   UNL     1       3.444   2.809  18.918  0.00  0.00    +0.000 A 
ATOM     21  C   UNL     1       3.657   3.374  17.659  0.00  0.00    +0.000 A 
ATOM     22  C   UNL     1       3.473   4.746  17.489  0.00  0.00    +0.000 A 
ATOM     23  C   UNL     1       3.089   5.566  18.565  0.00  0.00    +0.000 A 
ATOM     24  C   UNL     1       2.887   4.966  19.834  0.00  0.00    +0.000 A 
BRANCH  19  26
ATOM     25  C   UNL     1       1.554   2.617  21.614  0.00  0.00    +0.000 C 
ATOM     26  O   UNL     1       2.870   2.844  21.147  0.00  0.00    +0.000 OA
ENDBRANCH  19  26
BRANCH  24  27
ATOM     27  O   UNL     1       2.496   5.757  20.885  0.00  0.00    +0.000 OA
ATOM     28  H   UNL     1       2.190   6.596  20.496  0.00  0.00    +0.000 HD
ENDBRANCH  24  27
ENDBRANCH  17  23
ENDBRANCH   1  18
TORSDOF 6
ENDMDL
