MODEL 1
REMARK VINA RESULT:      -8.2      0.000      0.000
REMARK  Name = 
REMARK  8 active torsions:
REMARK  status: ('A' for Active; 'I' for Inactive)
REMARK    1  A    between atoms: C_5  and  C_6
REMARK    2  A    between atoms: C_6  and  C_7
REMARK    3  A    between atoms: C_7  and  N_8
REMARK    4  A    between atoms: N_8  and  C_9
REMARK    5  A    between atoms: C_9  and  C_10
REMARK    6  A    between atoms: C_10  and  N_11
REMARK    7  A    between atoms: N_11  and  C_12
REMARK    8  A    between atoms: C_12  and  C_13
REMARK                            x       y       z     vdW  Elec       q    Type
REMARK                         _______ _______ _______ _____ _____    ______ ____
ROOT
ATOM      1  N   UNL     1       2.996   5.660  20.123  0.00  0.00    +0.000 NA
ATOM      2  H   UNL     1       2.464   5.566  20.982  0.00  0.00    +0.000 HD
ENDROOT
BRANCH   1   3
ATOM      3  C   UNL     1       3.071   4.347  19.449  0.00  0.00    +0.000 C 
ATOM      4  C   UNL     1       3.514   3.361  20.577  0.00  0.00    +0.000 C 
ATOM      5  C   UNL     1       2.469   3.185  21.691  0.00  0.00    +0.000 C 
ATOM      6  C   UNL     1       1.108   2.771  21.148  0.00  0.00    +0.000 C 
ATOM      7  C   UNL     1       0.635   3.656  20.002  0.00  0.00    +0.000 C 
ATOM      8  C   UNL     1       1.700   3.826  18.922  0.00  0.00    +0.000 C 
BRANCH   3   9
ATOM      9  C   UNL     1       4.086   4.414  18.288  0.00  0.00    +0.000 A 
ATOM     10  C   UNL     1       3.908   4.040  16.963  0.00  0.00    +0.000 A 
ATOM     11  C   UNL     1       5.029   4.323  16.111  0.00  0.00    +0.000 A 
ATOM     12  C   UNL     1       5.212   4.129  14.719  0.00  0.00    +0.000 A 
ATOM     13  C   UNL     1       6.407   4.508  14.100  0.00  0.00    +0.000 A 
ATOM     14  C   UNL     1       7.433   5.070  14.848  0.00  0.00    +0.000 A 
ATOM     15  C   UNL     1       7.281   5.272  16.222  0.00  0.00    +0.000 A 
ATOM     16  C   UNL     1       6.070   4.900  16.838  0.00  0.00    +0.000 A 
ATOM     17  S   UNL     1       5.651   5.092  18.492  0.00  0.00    +0.000 S 
ENDBRANCH   3   9
ENDBRANCH   1   3
BRANCH   1  18
ATOM     18  C   UNL     1       2.423   6.763  19.364  0.00  0.00    +0.000 C 
BRANCH  18  19
ATOM     19  C   UNL     1       1.726   7.726  20.353  0.00  0.00    +0.000 C 
BRANCH  19  20
ATOM     20  N   UNL     1       1.762   9.133  19.945  0.00  0.00    +0.000 NA
ATOM     21  H   UNL     1       2.211   9.669  20.689  0.00  0.00    +0.000 HD
BRANCH  20  22
ATOM     22  C   UNL     1       0.420   9.661  19.705  0.00  0.00    +0.000 C 
BRANCH  22  23
ATOM     23  C   UNL     1       0.087   9.634  18.214  0.00  0.00    +0.000 C 
BRANCH  23  28
ATOM     24 CL   UNL     1      -5.354  12.080  17.276  0.00  0.00    +0.000 Cl
ATOM     25  C   UNL     1      -3.794  11.405  17.587  0.00  0.00    +0.000 A 
ATOM     26  C   UNL     1      -3.262  10.532  16.634  0.00  0.00    +0.000 A 
ATOM     27  C   UNL     1      -2.002   9.964  16.829  0.00  0.00    +0.000 A 
ATOM     28  C   UNL     1      -1.260  10.271  17.976  0.00  0.00    +0.000 A 
ATOM     29  C   UNL     1      -1.806  11.129  18.938  0.00  0.00    +0.000 A 
ATOM     30  C   UNL     1      -3.068  11.700  18.745  0.00  0.00    +0.000 A 
ATOM     31 CL   UNL     1      -3.668  12.750  19.979  0.00  0.00    +0.000 Cl
ENDBRANCH  23  28
ENDBRANCH  22  23
ENDBRANCH  20  22
ENDBRANCH  19  20
ENDBRANCH  18  19
ENDBRANCH   1  18
TORSDOF 8
ENDMDL
MODEL 2
REMARK VINA RESULT:      -8.1      0.901      1.484
REMARK  Name = 
REMARK  8 active torsions:
REMARK  status: ('A' for Active; 'I' for Inactive)
REMARK    1  A    between atoms: C_5  and  C_6
REMARK    2  A    between atoms: C_6  and  C_7
REMARK    3  A    between atoms: C_7  and  N_8
REMARK    4  A    between atoms: N_8  and  C_9
REMARK    5  A    between atoms: C_9  and  C_10
REMARK    6  A    between atoms: C_10  and  N_11
REMARK    7  A    between atoms: N_11  and  C_12
REMARK    8  A    between atoms: C_12  and  C_13
REMARK                            x       y       z     vdW  Elec       q    Type
REMARK                         _______ _______ _______ _____ _____    ______ ____
ROOT
ATOM      1  N   UNL     1       2.621   5.645  19.742  0.00  0.00    +0.000 NA
ATOM      2  H   UNL     1       1.893   5.605  20.448  0.00  0.00    +0.000 HD
ENDROOT
BRANCH   1   3
ATOM      3  C   UNL     1       2.942   4.273  19.295  0.00  0.00    +0.000 C 
ATOM      4  C   UNL     1       3.467   3.562  20.583  0.00  0.00    +0.000 C 
ATOM      5  C   UNL     1       2.398   3.392  21.675  0.00  0.00    +0.000 C 
ATOM      6  C   UNL     1       1.154   2.679  21.161  0.00  0.00    +0.000 C 
ATOM      7  C   UNL     1       0.616   3.284  19.871  0.00  0.00    +0.000 C 
ATOM      8  C   UNL     1       1.704   3.457  18.814  0.00  0.00    +0.000 C 
BRANCH   3   9
ATOM      9  C   UNL     1       4.002   4.325  18.174  0.00  0.00    +0.000 A 
ATOM     10  C   UNL     1       3.871   3.944  16.845  0.00  0.00    +0.000 A 
ATOM     11  C   UNL     1       5.027   4.213  16.035  0.00  0.00    +0.000 A 
ATOM     12  C   UNL     1       5.262   4.008  14.653  0.00  0.00    +0.000 A 
ATOM     13  C   UNL     1       6.482   4.374  14.078  0.00  0.00    +0.000 A 
ATOM     14  C   UNL     1       7.483   4.933  14.861  0.00  0.00    +0.000 A 
ATOM     15  C   UNL     1       7.280   5.146  16.227  0.00  0.00    +0.000 A 
ATOM     16  C   UNL     1       6.043   4.786  16.798  0.00  0.00    +0.000 A 
ATOM     17  S   UNL     1       5.562   4.992  18.433  0.00  0.00    +0.000 S 
ENDBRANCH   3   9
ENDBRANCH   1   3
BRANCH   1  18
ATOM     18  C   UNL     1       2.200   6.594  18.720  0.00  0.00    +0.000 C 
BRANCH  18  19
ATOM     19  C   UNL     1       2.195   8.009  19.342  0.00  0.00    +0.000 C 
BRANCH  19  20
ATOM     20  N   UNL     1       1.343   8.140  20.528  0.00  0.00    +0.000 NA
ATOM     21  H   UNL     1       0.666   7.376  20.520  0.00  0.00    +0.000 HD
BRANCH  20  22
ATOM     22  C   UNL     1       0.634   9.419  20.545  0.00  0.00    +0.000 C 
BRANCH  22  23
ATOM     23  C   UNL     1       0.727  10.107  19.184  0.00  0.00    +0.000 C 
BRANCH  23  28
ATOM     24 CL   UNL     1      -4.755  11.741  17.250  0.00  0.00    +0.000 Cl
ATOM     25  C   UNL     1      -3.182  11.245  17.763  0.00  0.00    +0.000 A 
ATOM     26  C   UNL     1      -2.708  11.742  18.981  0.00  0.00    +0.000 A 
ATOM     27  C   UNL     1      -1.447  11.368  19.449  0.00  0.00    +0.000 A 
ATOM     28  C   UNL     1      -0.652  10.488  18.705  0.00  0.00    +0.000 A 
ATOM     29  C   UNL     1      -1.122  10.010  17.475  0.00  0.00    +0.000 A 
ATOM     30  C   UNL     1      -2.385  10.382  17.005  0.00  0.00    +0.000 A 
ATOM     31 CL   UNL     1      -2.889   9.745  15.480  0.00  0.00    +0.000 Cl
ENDBRANCH  23  28
ENDBRANCH  22  23
ENDBRANCH  20  22
ENDBRANCH  19  20
ENDBRANCH  18  19
ENDBRANCH   1  18
TORSDOF 8
ENDMDL
MODEL 3
REMARK VINA RESULT:      -8.0      5.175      8.285
REMARK  Name = 
REMARK  8 active torsions:
REMARK  status: ('A' for Active; 'I' for Inactive)
REMARK    1  A    between atoms: C_5  and  C_6
REMARK    2  A    between atoms: C_6  and  C_7
REMARK    3  A    between atoms: C_7  and  N_8
REMARK    4  A    between atoms: N_8  and  C_9
REMARK    5  A    between atoms: C_9  and  C_10
REMARK    6  A    between atoms: C_10  and  N_11
REMARK    7  A    between atoms: N_11  and  C_12
REMARK    8  A    between atoms: C_12  and  C_13
REMARK                            x       y       z     vdW  Elec       q    Type
REMARK                         _______ _______ _______ _____ _____    ______ ____
ROOT
ATOM      1  N   UNL     1       4.192   5.241  17.189  0.00  0.00    +0.000 NA
ATOM      2  H   UNL     1       4.137   4.415  16.603  0.00  0.00    +0.000 HD
ENDROOT
BRANCH   1   3
ATOM      3  C   UNL     1       3.224   5.118  18.299  0.00  0.00    +0.000 C 
ATOM      4  C   UNL     1       2.113   4.175  17.737  0.00  0.00    +0.000 C 
ATOM      5  C   UNL     1       2.598   2.742  17.462  0.00  0.00    +0.000 C 
ATOM      6  C   UNL     1       3.247   2.105  18.683  0.00  0.00    +0.000 C 
ATOM      7  C   UNL     1       4.305   2.995  19.322  0.00  0.00    +0.000 C 
ATOM      8  C   UNL     1       3.800   4.415  19.566  0.00  0.00    +0.000 C 
BRANCH   3   9
ATOM      9  C   UNL     1       2.683   6.513  18.677  0.00  0.00    +0.000 A 
ATOM     10  C   UNL     1       2.605   7.651  17.886  0.00  0.00    +0.000 A 
ATOM     11  C   UNL     1       1.954   8.767  18.515  0.00  0.00    +0.000 A 
ATOM     12  C   UNL     1       1.654  10.064  18.029  0.00  0.00    +0.000 A 
ATOM     13  C   UNL     1       0.985  10.988  18.837  0.00  0.00    +0.000 A 
ATOM     14  C   UNL     1       0.617  10.646  20.131  0.00  0.00    +0.000 A 
ATOM     15  C   UNL     1       0.901   9.375  20.638  0.00  0.00    +0.000 A 
ATOM     16  C   UNL     1       1.565   8.444  19.814  0.00  0.00    +0.000 A 
ATOM     17  S   UNL     1       1.976   6.825  20.210  0.00  0.00    +0.000 S 
ENDBRANCH   3   9
ENDBRANCH   1   3
BRANCH   1  18
ATOM     18  C   UNL     1       5.590   5.440  17.547  0.00  0.00    +0.000 C 
BRANCH  18  19
ATOM     19  C   UNL     1       6.244   6.344  16.477  0.00  0.00    +0.000 C 
BRANCH  19  20
ATOM     20  N   UNL     1       7.543   6.897  16.873  0.00  0.00    +0.000 NA
ATOM     21  H   UNL     1       8.002   6.223  17.488  0.00  0.00    +0.000 HD
BRANCH  20  22
ATOM     22  C   UNL     1       7.397   8.173  17.572  0.00  0.00    +0.000 C 
BRANCH  22  23
ATOM     23  C   UNL     1       8.585   8.419  18.501  0.00  0.00    +0.000 C 
BRANCH  23  28
ATOM     24 CL   UNL     1       9.427  14.371  19.082  0.00  0.00    +0.000 Cl
ATOM     25  C   UNL     1       9.204  12.662  18.961  0.00  0.00    +0.000 A 
ATOM     26  C   UNL     1       8.719  12.153  17.753  0.00  0.00    +0.000 A 
ATOM     27  C   UNL     1       8.527  10.779  17.597  0.00  0.00    +0.000 A 
ATOM     28  C   UNL     1       8.825   9.902  18.646  0.00  0.00    +0.000 A 
ATOM     29  C   UNL     1       9.290  10.418  19.863  0.00  0.00    +0.000 A 
ATOM     30  C   UNL     1       9.484  11.794  20.021  0.00  0.00    +0.000 A 
ATOM     31 CL   UNL     1      10.063  12.348  21.552  0.00  0.00    +0.000 Cl
ENDBRANCH  23  28
ENDBRANCH  22  23
ENDBRANCH  20  22
ENDBRANCH  19  20
ENDBRANCH  18  19
ENDBRANCH   1  18
TORSDOF 8
ENDMDL
MODEL 4
REMARK VINA RESULT:      -7.9      2.136      2.582
REMARK  Name = 
REMARK  8 active torsions:
REMARK  status: ('A' for Active; 'I' for Inactive)
REMARK    1  A    between atoms: C_5  and  C_6
REMARK    2  A    between atoms: C_6  and  C_7
REMARK    3  A    between atoms: C_7  and  N_8
REMARK    4  A    between atoms: N_8  and  C_9
REMARK    5  A    between atoms: C_9  and  C_10
REMARK    6  A    between atoms: C_10  and  N_11
REMARK    7  A    between atoms: N_11  and  C_12
REMARK    8  A    between atoms: C_12  and  C_13
REMARK                            x       y       z     vdW  Elec       q    Type
REMARK                         _______ _______ _______ _____ _____    ______ ____
ROOT
ATOM      1  N   UNL     1       2.766   5.761  19.961  0.00  0.00    +0.000 NA
ATOM      2  H   UNL     1       2.082   5.729  20.711  0.00  0.00    +0.000 HD
ENDROOT
BRANCH   1   3
ATOM      3  C   UNL     1       2.976   4.397  19.434  0.00  0.00    +0.000 C 
ATOM      4  C   UNL     1       3.462   3.578  20.671  0.00  0.00    +0.000 C 
ATOM      5  C   UNL     1       2.397   3.427  21.770  0.00  0.00    +0.000 C 
ATOM      6  C   UNL     1       1.096   2.840  21.240  0.00  0.00    +0.000 C 
ATOM      7  C   UNL     1       0.590   3.554  19.994  0.00  0.00    +0.000 C 
ATOM      8  C   UNL     1       1.674   3.705  18.930  0.00  0.00    +0.000 C 
BRANCH   3   9
ATOM      9  C   UNL     1       4.022   4.432  18.299  0.00  0.00    +0.000 A 
ATOM     10  C   UNL     1       3.865   4.065  16.970  0.00  0.00    +0.000 A 
ATOM     11  C   UNL     1       5.016   4.313  16.146  0.00  0.00    +0.000 A 
ATOM     12  C   UNL     1       5.227   4.113  14.759  0.00  0.00    +0.000 A 
ATOM     13  C   UNL     1       6.449   4.454  14.171  0.00  0.00    +0.000 A 
ATOM     14  C   UNL     1       7.474   4.982  14.945  0.00  0.00    +0.000 A 
ATOM     15  C   UNL     1       7.293   5.189  16.315  0.00  0.00    +0.000 A 
ATOM     16  C   UNL     1       6.056   4.855  16.900  0.00  0.00    +0.000 A 
ATOM     17  S   UNL     1       5.601   5.060  18.543  0.00  0.00    +0.000 S 
ENDBRANCH   3   9
ENDBRANCH   1   3
BRANCH   1  18
ATOM     18  C   UNL     1       2.337   6.780  19.012  0.00  0.00    +0.000 C 
BRANCH  18  19
ATOM     19  C   UNL     1       1.953   8.052  19.803  0.00  0.00    +0.000 C 
BRANCH  19  20
ATOM     20  N   UNL     1       1.607   7.804  21.206  0.00  0.00    +0.000 NA
ATOM     21  H   UNL     1       0.700   7.337  21.233  0.00  0.00    +0.000 HD
BRANCH  20  22
ATOM     22  C   UNL     1       1.538   9.048  21.973  0.00  0.00    +0.000 C 
BRANCH  22  23
ATOM     23  C   UNL     1       0.211   9.145  22.724  0.00  0.00    +0.000 C 
BRANCH  23  28
ATOM     24 CL   UNL     1      -2.767  14.112  21.012  0.00  0.00    +0.000 Cl
ATOM     25  C   UNL     1      -1.939  12.692  21.545  0.00  0.00    +0.000 A 
ATOM     26  C   UNL     1      -0.985  12.136  20.688  0.00  0.00    +0.000 A 
ATOM     27  C   UNL     1      -0.280  10.993  21.071  0.00  0.00    +0.000 A 
ATOM     28  C   UNL     1      -0.519  10.401  22.317  0.00  0.00    +0.000 A 
ATOM     29  C   UNL     1      -1.492  10.950  23.163  0.00  0.00    +0.000 A 
ATOM     30  C   UNL     1      -2.198  12.095  22.782  0.00  0.00    +0.000 A 
ATOM     31 CL   UNL     1      -3.378  12.708  23.885  0.00  0.00    +0.000 Cl
ENDBRANCH  23  28
ENDBRANCH  22  23
ENDBRANCH  20  22
ENDBRANCH  19  20
ENDBRANCH  18  19
ENDBRANCH   1  18
TORSDOF 8
ENDMDL
MODEL 5
REMARK VINA RESULT:      -7.8      0.680      1.408
REMARK  Name = 
REMARK  8 active torsions:
REMARK  status: ('A' for Active; 'I' for Inactive)
REMARK    1  A    between atoms: C_5  and  C_6
REMARK    2  A    between atoms: C_6  and  C_7
REMARK    3  A    between atoms: C_7  and  N_8
REMARK    4  A    between atoms: N_8  and  C_9
REMARK    5  A    between atoms: C_9  and  C_10
REMARK    6  A    between atoms: C_10  and  N_11
REMARK    7  A    between atoms: N_11  and  C_12
REMARK    8  A    between atoms: C_12  and  C_13
REMARK                            x       y       z     vdW  Elec       q    Type
REMARK                         _______ _______ _______ _____ _____    ______ ____
ROOT
ATOM      1  N   UNL     1       3.160   5.497  20.141  0.00  0.00    +0.000 NA
ATOM      2  H   UNL     1       2.337   5.566  20.731  0.00  0.00    +0.000 HD
ENDROOT
BRANCH   1   3
ATOM      3  C   UNL     1       3.143   4.203  19.427  0.00  0.00    +0.000 C 
ATOM      4  C   UNL     1       3.555   3.160  20.514  0.00  0.00    +0.000 C 
ATOM      5  C   UNL     1       2.528   3.009  21.648  0.00  0.00    +0.000 C 
ATOM      6  C   UNL     1       1.133   2.691  21.128  0.00  0.00    +0.000 C 
ATOM      7  C   UNL     1       0.684   3.636  20.021  0.00  0.00    +0.000 C 
ATOM      8  C   UNL     1       1.732   3.778  18.920  0.00  0.00    +0.000 C 
BRANCH   3   9
ATOM      9  C   UNL     1       4.132   4.248  18.244  0.00  0.00    +0.000 A 
ATOM     10  C   UNL     1       3.875   4.041  16.895  0.00  0.00    +0.000 A 
ATOM     11  C   UNL     1       5.006   4.252  16.036  0.00  0.00    +0.000 A 
ATOM     12  C   UNL     1       5.131   4.178  14.626  0.00  0.00    +0.000 A 
ATOM     13  C   UNL     1       6.354   4.449  14.006  0.00  0.00    +0.000 A 
ATOM     14  C   UNL     1       7.465   4.783  14.769  0.00  0.00    +0.000 A 
ATOM     15  C   UNL     1       7.372   4.863  16.161  0.00  0.00    +0.000 A 
ATOM     16  C   UNL     1       6.134   4.600  16.779  0.00  0.00    +0.000 A 
ATOM     17  S   UNL     1       5.781   4.678  18.458  0.00  0.00    +0.000 S 
ENDBRANCH   3   9
ENDBRANCH   1   3
BRANCH   1  18
ATOM     18  C   UNL     1       3.225   6.703  19.327  0.00  0.00    +0.000 C 
BRANCH  18  19
ATOM     19  C   UNL     1       1.985   7.571  19.640  0.00  0.00    +0.000 C 
BRANCH  19  20
ATOM     20  N   UNL     1       1.898   8.801  18.846  0.00  0.00    +0.000 NA
ATOM     21  H   UNL     1       2.767   9.321  18.970  0.00  0.00    +0.000 HD
BRANCH  20  22
ATOM     22  C   UNL     1       0.769   9.632  19.261  0.00  0.00    +0.000 C 
BRANCH  22  23
ATOM     23  C   UNL     1      -0.147   9.929  18.074  0.00  0.00    +0.000 C 
BRANCH  23  28
ATOM     24 CL   UNL     1      -4.933  13.125  19.907  0.00  0.00    +0.000 Cl
ATOM     25  C   UNL     1      -3.591  12.191  19.346  0.00  0.00    +0.000 A 
ATOM     26  C   UNL     1      -2.394  12.280  20.061  0.00  0.00    +0.000 A 
ATOM     27  C   UNL     1      -1.280  11.542  19.658  0.00  0.00    +0.000 A 
ATOM     28  C   UNL     1      -1.356  10.702  18.540  0.00  0.00    +0.000 A 
ATOM     29  C   UNL     1      -2.552  10.634  17.814  0.00  0.00    +0.000 A 
ATOM     30  C   UNL     1      -3.670  11.372  18.216  0.00  0.00    +0.000 A 
ATOM     31 CL   UNL     1      -5.106  11.228  17.267  0.00  0.00    +0.000 Cl
ENDBRANCH  23  28
ENDBRANCH  22  23
ENDBRANCH  20  22
ENDBRANCH  19  20
ENDBRANCH  18  19
ENDBRANCH   1  18
TORSDOF 8
ENDMDL
MODEL 6
REMARK VINA RESULT:      -7.7      2.188      2.712
REMARK  Name = 
REMARK  8 active torsions:
REMARK  status: ('A' for Active; 'I' for Inactive)
REMARK    1  A    between atoms: C_5  and  C_6
REMARK    2  A    between atoms: C_6  and  C_7
REMARK    3  A    between atoms: C_7  and  N_8
REMARK    4  A    between atoms: N_8  and  C_9
REMARK    5  A    between atoms: C_9  and  C_10
REMARK    6  A    between atoms: C_10  and  N_11
REMARK    7  A    between atoms: N_11  and  C_12
REMARK    8  A    between atoms: C_12  and  C_13
REMARK                            x       y       z     vdW  Elec       q    Type
REMARK                         _______ _______ _______ _____ _____    ______ ____
ROOT
ATOM      1  N   UNL     1       2.787   5.504  19.839  0.00  0.00    +0.000 NA
ATOM      2  H   UNL     1       2.062   5.457  20.547  0.00  0.00    +0.000 HD
ENDROOT
BRANCH   1   3
ATOM      3  C   UNL     1       3.030   4.150  19.299  0.00  0.00    +0.000 C 
ATOM      4  C   UNL     1       3.546   3.334  20.526  0.00  0.00    +0.000 C 
ATOM      5  C   UNL     1       2.493   3.145  21.631  0.00  0.00    +0.000 C 
ATOM      6  C   UNL     1       1.205   2.528  21.104  0.00  0.00    +0.000 C 
ATOM      7  C   UNL     1       0.671   3.239  19.867  0.00  0.00    +0.000 C 
ATOM      8  C   UNL     1       1.744   3.427  18.797  0.00  0.00    +0.000 C 
BRANCH   3   9
ATOM      9  C   UNL     1       4.067   4.223  18.158  0.00  0.00    +0.000 A 
ATOM     10  C   UNL     1       3.898   3.905  16.817  0.00  0.00    +0.000 A 
ATOM     11  C   UNL     1       5.043   4.179  15.993  0.00  0.00    +0.000 A 
ATOM     12  C   UNL     1       5.243   4.030  14.598  0.00  0.00    +0.000 A 
ATOM     13  C   UNL     1       6.461   4.387  14.013  0.00  0.00    +0.000 A 
ATOM     14  C   UNL     1       7.494   4.882  14.798  0.00  0.00    +0.000 A 
ATOM     15  C   UNL     1       7.326   5.039  16.176  0.00  0.00    +0.000 A 
ATOM     16  C   UNL     1       6.092   4.689  16.759  0.00  0.00    +0.000 A 
ATOM     17  S   UNL     1       5.651   4.834  18.411  0.00  0.00    +0.000 S 
ENDBRANCH   3   9
ENDBRANCH   1   3
BRANCH   1  18
ATOM     18  C   UNL     1       2.412   6.540  18.887  0.00  0.00    +0.000 C 
BRANCH  18  19
ATOM     19  C   UNL     1       2.073   7.827  19.674  0.00  0.00    +0.000 C 
BRANCH  19  20
ATOM     20  N   UNL     1       1.865   7.614  21.109  0.00  0.00    +0.000 NA
ATOM     21  H   UNL     1       1.525   6.661  21.244  0.00  0.00    +0.000 HD
BRANCH  20  22
ATOM     22  C   UNL     1       0.895   8.559  21.661  0.00  0.00    +0.000 C 
BRANCH  22  23
ATOM     23  C   UNL     1       0.323   9.450  20.559  0.00  0.00    +0.000 C 
BRANCH  23  28
ATOM     24 CL   UNL     1      -2.141  14.360  23.067  0.00  0.00    +0.000 Cl
ATOM     25  C   UNL     1      -1.432  12.981  22.307  0.00  0.00    +0.000 A 
ATOM     26  C   UNL     1      -1.306  11.813  23.066  0.00  0.00    +0.000 A 
ATOM     27  C   UNL     1      -0.748  10.666  22.500  0.00  0.00    +0.000 A 
ATOM     28  C   UNL     1      -0.316  10.674  21.168  0.00  0.00    +0.000 A 
ATOM     29  C   UNL     1      -0.423  11.853  20.419  0.00  0.00    +0.000 A 
ATOM     30  C   UNL     1      -0.984  13.003  20.983  0.00  0.00    +0.000 A 
ATOM     31 CL   UNL     1      -1.082  14.413  19.989  0.00  0.00    +0.000 Cl
ENDBRANCH  23  28
ENDBRANCH  22  23
ENDBRANCH  20  22
ENDBRANCH  19  20
ENDBRANCH  18  19
ENDBRANCH   1  18
TORSDOF 8
ENDMDL
MODEL 7
REMARK VINA RESULT:      -7.7      1.001      1.342
REMARK  Name = 
REMARK  8 active torsions:
REMARK  status: ('A' for Active; 'I' for Inactive)
REMARK    1  A    between atoms: C_5  and  C_6
REMARK    2  A    between atoms: C_6  and  C_7
REMARK    3  A    between atoms: C_7  and  N_8
REMARK    4  A    between atoms: N_8  and  C_9
REMARK    5  A    between atoms: C_9  and  C_10
REMARK    6  A    between atoms: C_10  and  N_11
REMARK    7  A    between atoms: N_11  and  C_12
REMARK    8  A    between atoms: C_12  and  C_13
REMARK                            x       y       z     vdW  Elec       q    Type
REMARK                         _______ _______ _______ _____ _____    ______ ____
ROOT
ATOM      1  N   UNL     1       3.216   5.463  20.226  0.00  0.00    +0.000 NA
ATOM      2  H   UNL     1       2.755   5.334  21.122  0.00  0.00    +0.000 HD
ENDROOT
BRANCH   1   3
ATOM      3  C   UNL     1       3.155   4.201  19.460  0.00  0.00    +0.000 C 
ATOM      4  C   UNL     1       3.538   3.101  20.501  0.00  0.00    +0.000 C 
ATOM      5  C   UNL     1       2.511   2.937  21.634  0.00  0.00    +0.000 C 
ATOM      6  C   UNL     1       1.104   2.684  21.108  0.00  0.00    +0.000 C 
ATOM      7  C   UNL     1       0.682   3.687  20.043  0.00  0.00    +0.000 C 
ATOM      8  C   UNL     1       1.729   3.841  18.943  0.00  0.00    +0.000 C 
BRANCH   3   9
ATOM      9  C   UNL     1       4.141   4.262  18.274  0.00  0.00    +0.000 A 
ATOM     10  C   UNL     1       3.898   3.986  16.936  0.00  0.00    +0.000 A 
ATOM     11  C   UNL     1       5.015   4.236  16.067  0.00  0.00    +0.000 A 
ATOM     12  C   UNL     1       5.145   4.116  14.661  0.00  0.00    +0.000 A 
ATOM     13  C   UNL     1       6.349   4.440  14.029  0.00  0.00    +0.000 A 
ATOM     14  C   UNL     1       7.436   4.875  14.776  0.00  0.00    +0.000 A 
ATOM     15  C   UNL     1       7.336   5.003  16.164  0.00  0.00    +0.000 A 
ATOM     16  C   UNL     1       6.117   4.686  16.795  0.00  0.00    +0.000 A 
ATOM     17  S   UNL     1       5.758   4.806  18.469  0.00  0.00    +0.000 S 
ENDBRANCH   3   9
ENDBRANCH   1   3
BRANCH   1  18
ATOM     18  C   UNL     1       2.644   6.647  19.599  0.00  0.00    +0.000 C 
BRANCH  18  19
ATOM     19  C   UNL     1       1.604   7.258  20.566  0.00  0.00    +0.000 C 
BRANCH  19  20
ATOM     20  N   UNL     1       1.521   8.720  20.511  0.00  0.00    +0.000 NA
ATOM     21  H   UNL     1       0.838   9.027  21.206  0.00  0.00    +0.000 HD
BRANCH  20  22
ATOM     22  C   UNL     1       1.112   9.189  19.188  0.00  0.00    +0.000 C 
BRANCH  22  23
ATOM     23  C   UNL     1       1.145  10.715  19.121  0.00  0.00    +0.000 C 
BRANCH  23  28
ATOM     24 CL   UNL     1      -4.456  12.820  19.938  0.00  0.00    +0.000 Cl
ATOM     25  C   UNL     1      -2.844  12.228  19.751  0.00  0.00    +0.000 A 
ATOM     26  C   UNL     1      -2.463  11.767  18.488  0.00  0.00    +0.000 A 
ATOM     27  C   UNL     1      -1.169  11.285  18.278  0.00  0.00    +0.000 A 
ATOM     28  C   UNL     1      -0.244  11.268  19.329  0.00  0.00    +0.000 A 
ATOM     29  C   UNL     1      -0.637  11.711  20.598  0.00  0.00    +0.000 A 
ATOM     30  C   UNL     1      -1.932  12.194  20.810  0.00  0.00    +0.000 A 
ATOM     31 CL   UNL     1      -2.335  12.724  22.405  0.00  0.00    +0.000 Cl
ENDBRANCH  23  28
ENDBRANCH  22  23
ENDBRANCH  20  22
ENDBRANCH  19  20
ENDBRANCH  18  19
ENDBRANCH   1  18
TORSDOF 8
ENDMDL
MODEL 8
REMARK VINA RESULT:      -7.6      5.227      8.587
REMARK  Name = 
REMARK  8 active torsions:
REMARK  status: ('A' for Active; 'I' for Inactive)
REMARK    1  A    between atoms: C_5  and  C_6
REMARK    2  A    between atoms: C_6  and  C_7
REMARK    3  A    between atoms: C_7  and  N_8
REMARK    4  A    between atoms: N_8  and  C_9
REMARK    5  A    between atoms: C_9  and  C_10
REMARK    6  A    between atoms: C_10  and  N_11
REMARK    7  A    between atoms: N_11  and  C_12
REMARK    8  A    between atoms: C_12  and  C_13
REMARK                            x       y       z     vdW  Elec       q    Type
REMARK                         _______ _______ _______ _____ _____    ______ ____
ROOT
ATOM      1  N   UNL     1       4.138   5.886  17.371  0.00  0.00    +0.000 NA
ATOM      2  H   UNL     1       4.299   5.051  16.818  0.00  0.00    +0.000 HD
ENDROOT
BRANCH   1   3
ATOM      3  C   UNL     1       3.127   5.597  18.410  0.00  0.00    +0.000 C 
ATOM      4  C   UNL     1       2.111   4.645  17.702  0.00  0.00    +0.000 C 
ATOM      5  C   UNL     1       2.704   3.278  17.322  0.00  0.00    +0.000 C 
ATOM      6  C   UNL     1       3.333   2.568  18.513  0.00  0.00    +0.000 C 
ATOM      7  C   UNL     1       4.297   3.457  19.289  0.00  0.00    +0.000 C 
ATOM      8  C   UNL     1       3.686   4.812  19.636  0.00  0.00    +0.000 C 
BRANCH   3   9
ATOM      9  C   UNL     1       2.475   6.912  18.885  0.00  0.00    +0.000 A 
ATOM     10  C   UNL     1       2.224   8.064  18.152  0.00  0.00    +0.000 A 
ATOM     11  C   UNL     1       1.511   9.082  18.872  0.00  0.00    +0.000 A 
ATOM     12  C   UNL     1       1.045  10.357  18.466  0.00  0.00    +0.000 A 
ATOM     13  C   UNL     1       0.346  11.176  19.358  0.00  0.00    +0.000 A 
ATOM     14  C   UNL     1       0.111  10.751  20.658  0.00  0.00    +0.000 A 
ATOM     15  C   UNL     1       0.559   9.498  21.088  0.00  0.00    +0.000 A 
ATOM     16  C   UNL     1       1.253   8.673  20.180  0.00  0.00    +0.000 A 
ATOM     17  S   UNL     1       1.854   7.092  20.475  0.00  0.00    +0.000 S 
ENDBRANCH   3   9
ENDBRANCH   1   3
BRANCH   1  18
ATOM     18  C   UNL     1       5.433   6.376  17.824  0.00  0.00    +0.000 C 
BRANCH  18  19
ATOM     19  C   UNL     1       6.411   6.349  16.626  0.00  0.00    +0.000 C 
BRANCH  19  20
ATOM     20  N   UNL     1       7.792   6.696  16.973  0.00  0.00    +0.000 NA
ATOM     21  H   UNL     1       8.254   5.855  17.324  0.00  0.00    +0.000 HD
BRANCH  20  22
ATOM     22  C   UNL     1       7.846   7.743  17.993  0.00  0.00    +0.000 C 
BRANCH  22  23
ATOM     23  C   UNL     1       7.754   9.127  17.351  0.00  0.00    +0.000 C 
BRANCH  23  28
ATOM     24 CL   UNL     1      10.773  13.116  20.733  0.00  0.00    +0.000 Cl
ATOM     25  C   UNL     1       9.899  12.011  19.734  0.00  0.00    +0.000 A 
ATOM     26  C   UNL     1       9.795  10.686  20.166  0.00  0.00    +0.000 A 
ATOM     27  C   UNL     1       9.094   9.751  19.402  0.00  0.00    +0.000 A 
ATOM     28  C   UNL     1       8.483  10.137  18.202  0.00  0.00    +0.000 A 
ATOM     29  C   UNL     1       8.607  11.461  17.763  0.00  0.00    +0.000 A 
ATOM     30  C   UNL     1       9.309  12.399  18.527  0.00  0.00    +0.000 A 
ATOM     31 CL   UNL     1       9.413  14.011  17.914  0.00  0.00    +0.000 Cl
ENDBRANCH  23  28
ENDBRANCH  22  23
ENDBRANCH  20  22
ENDBRANCH  19  20
ENDBRANCH  18  19
ENDBRANCH   1  18
TORSDOF 8
ENDMDL
MODEL 9
REMARK VINA RESULT:      -7.6      2.021      2.299
REMARK  Name = 
REMARK  8 active torsions:
REMARK  status: ('A' for Active; 'I' for Inactive)
REMARK    1  A    between atoms: C_5  and  C_6
REMARK    2  A    between atoms: C_6  and  C_7
REMARK    3  A    between atoms: C_7  and  N_8
REMARK    4  A    between atoms: N_8  and  C_9
REMARK    5  A    between atoms: C_9  and  C_10
REMARK    6  A    between atoms: C_10  and  N_11
REMARK    7  A    between atoms: N_11  and  C_12
REMARK    8  A    between atoms: C_12  and  C_13
REMARK                            x       y       z     vdW  Elec       q    Type
REMARK                         _______ _______ _______ _____ _____    ______ ____
ROOT
ATOM      1  N   UNL     1       3.159   5.483  20.161  0.00  0.00    +0.000 NA
ATOM      2  H   UNL     1       2.652   5.380  21.034  0.00  0.00    +0.000 HD
ENDROOT
BRANCH   1   3
ATOM      3  C   UNL     1       3.150   4.195  19.436  0.00  0.00    +0.000 C 
ATOM      4  C   UNL     1       3.560   3.144  20.515  0.00  0.00    +0.000 C 
ATOM      5  C   UNL     1       2.529   2.980  21.644  0.00  0.00    +0.000 C 
ATOM      6  C   UNL     1       1.137   2.662  21.115  0.00  0.00    +0.000 C 
ATOM      7  C   UNL     1       0.690   3.614  20.014  0.00  0.00    +0.000 C 
ATOM      8  C   UNL     1       1.742   3.769  18.918  0.00  0.00    +0.000 C 
BRANCH   3   9
ATOM      9  C   UNL     1       4.144   4.253  18.257  0.00  0.00    +0.000 A 
ATOM     10  C   UNL     1       3.911   3.970  16.918  0.00  0.00    +0.000 A 
ATOM     11  C   UNL     1       5.034   4.218  16.056  0.00  0.00    +0.000 A 
ATOM     12  C   UNL     1       5.175   4.091  14.652  0.00  0.00    +0.000 A 
ATOM     13  C   UNL     1       6.382   4.414  14.027  0.00  0.00    +0.000 A 
ATOM     14  C   UNL     1       7.463   4.854  14.780  0.00  0.00    +0.000 A 
ATOM     15  C   UNL     1       7.353   4.989  16.166  0.00  0.00    +0.000 A 
ATOM     16  C   UNL     1       6.130   4.672  16.789  0.00  0.00    +0.000 A 
ATOM     17  S   UNL     1       5.759   4.800  18.460  0.00  0.00    +0.000 S 
ENDBRANCH   3   9
ENDBRANCH   1   3
BRANCH   1  18
ATOM     18  C   UNL     1       2.614   6.640  19.464  0.00  0.00    +0.000 C 
BRANCH  18  19
ATOM     19  C   UNL     1       1.790   7.474  20.472  0.00  0.00    +0.000 C 
BRANCH  19  20
ATOM     20  N   UNL     1       1.476   8.830  20.013  0.00  0.00    +0.000 NA
ATOM     21  H   UNL     1       2.349   9.288  19.751  0.00  0.00    +0.000 HD
BRANCH  20  22
ATOM     22  C   UNL     1       0.809   9.611  21.054  0.00  0.00    +0.000 C 
BRANCH  22  23
ATOM     23  C   UNL     1      -0.556  10.100  20.572  0.00  0.00    +0.000 C 
BRANCH  23  28
ATOM     24 CL   UNL     1      -0.249  15.807  18.623  0.00  0.00    +0.000 Cl
ATOM     25  C   UNL     1      -0.330  14.191  19.226  0.00  0.00    +0.000 A 
ATOM     26  C   UNL     1      -0.498  13.158  18.299  0.00  0.00    +0.000 A 
ATOM     27  C   UNL     1      -0.562  11.832  18.730  0.00  0.00    +0.000 A 
ATOM     28  C   UNL     1      -0.451  11.527  20.092  0.00  0.00    +0.000 A 
ATOM     29  C   UNL     1      -0.305  12.566  21.019  0.00  0.00    +0.000 A 
ATOM     30  C   UNL     1      -0.240  13.896  20.590  0.00  0.00    +0.000 A 
ATOM     31 CL   UNL     1      -0.056  15.117  21.798  0.00  0.00    +0.000 Cl
ENDBRANCH  23  28
ENDBRANCH  22  23
ENDBRANCH  20  22
ENDBRANCH  19  20
ENDBRANCH  18  19
ENDBRANCH   1  18
TORSDOF 8
ENDMDL
