MODEL 1
REMARK VINA RESULT:      -7.7      0.000      0.000
REMARK  Name = 
REMARK  1 active torsions:
REMARK  status: ('A' for Active; 'I' for Inactive)
REMARK    1  A    between atoms: C_5  and  N_6
REMARK                            x       y       z     vdW  Elec       q    Type
REMARK                         _______ _______ _______ _____ _____    ______ ____
ROOT
ATOM      1  N   UNL     1       4.798   3.401  17.698  0.00  0.00    +0.000 N 
ATOM      2  C   UNL     1       3.490   3.572  18.034  0.00  0.00    +0.000 A 
ATOM      3  N   UNL     1       2.516   4.115  17.286  0.00  0.00    +0.000 NA
ATOM      4  N   UNL     1       1.434   4.106  18.085  0.00  0.00    +0.000 N 
ATOM      5  C   UNL     1       1.660   3.582  19.318  0.00  0.00    +0.000 A 
ATOM      6  N   UNL     1       0.781   3.469  20.338  0.00  0.00    +0.000 NA
ATOM      7  C   UNL     1       1.379   2.919  21.423  0.00  0.00    +0.000 A 
ATOM      8  C   UNL     1       2.714   2.523  21.462  0.00  0.00    +0.000 A 
ATOM      9  N   UNL     1       3.580   2.643  20.422  0.00  0.00    +0.000 NA
ATOM     10  C   UNL     1       2.993   3.202  19.323  0.00  0.00    +0.000 A 
ATOM     11  H   UNL     1       5.372   2.937  18.398  0.00  0.00    +0.000 HD
ATOM     12  H   UNL     1       0.564   4.489  17.738  0.00  0.00    +0.000 HD
ENDROOT
BRANCH   1  17
ATOM     13  F   UNL     1       7.906   5.390  13.529  0.00  0.00    +0.000 F 
ATOM     14  C   UNL     1       7.126   4.939  14.521  0.00  0.00    +0.000 A 
ATOM     15  C   UNL     1       7.340   5.412  15.806  0.00  0.00    +0.000 A 
ATOM     16  C   UNL     1       6.553   4.934  16.858  0.00  0.00    +0.000 A 
ATOM     17  C   UNL     1       5.552   3.974  16.648  0.00  0.00    +0.000 A 
ATOM     18  C   UNL     1       5.332   3.535  15.331  0.00  0.00    +0.000 A 
ATOM     19  C   UNL     1       6.119   4.011  14.276  0.00  0.00    +0.000 A 
ATOM     20 CL   UNL     1       5.845   3.421  12.681  0.00  0.00    +0.000 Cl
ENDBRANCH   1  17
TORSDOF 1
ENDMDL
MODEL 2
REMARK VINA RESULT:      -7.5      3.817      6.911
REMARK  Name = 
REMARK  1 active torsions:
REMARK  status: ('A' for Active; 'I' for Inactive)
REMARK    1  A    between atoms: C_5  and  N_6
REMARK                            x       y       z     vdW  Elec       q    Type
REMARK                         _______ _______ _______ _____ _____    ______ ____
ROOT
ATOM      1  N   UNL     1       4.874   3.531  16.796  0.00  0.00    +0.000 N 
ATOM      2  C   UNL     1       5.886   4.291  16.294  0.00  0.00    +0.000 A 
ATOM      3  N   UNL     1       6.626   5.204  16.944  0.00  0.00    +0.000 NA
ATOM      4  N   UNL     1       7.440   5.709  16.000  0.00  0.00    +0.000 N 
ATOM      5  C   UNL     1       7.264   5.166  14.766  0.00  0.00    +0.000 A 
ATOM      6  N   UNL     1       7.908   5.492  13.625  0.00  0.00    +0.000 NA
ATOM      7  C   UNL     1       7.443   4.752  12.589  0.00  0.00    +0.000 A 
ATOM      8  C   UNL     1       6.443   3.789  12.703  0.00  0.00    +0.000 A 
ATOM      9  N   UNL     1       5.810   3.475  13.864  0.00  0.00    +0.000 NA
ATOM     10  C   UNL     1       6.264   4.218  14.917  0.00  0.00    +0.000 A 
ATOM     11  H   UNL     1       4.458   2.871  16.145  0.00  0.00    +0.000 HD
ATOM     12  H   UNL     1       8.092   6.441  16.253  0.00  0.00    +0.000 HD
ENDROOT
BRANCH   1  17
ATOM     13  F   UNL     1       2.194   4.262  21.621  0.00  0.00    +0.000 F 
ATOM     14  C   UNL     1       2.800   4.080  20.440  0.00  0.00    +0.000 A 
ATOM     15  C   UNL     1       3.332   2.835  20.146  0.00  0.00    +0.000 A 
ATOM     16  C   UNL     1       3.991   2.635  18.930  0.00  0.00    +0.000 A 
ATOM     17  C   UNL     1       4.138   3.671  17.995  0.00  0.00    +0.000 A 
ATOM     18  C   UNL     1       3.561   4.915  18.301  0.00  0.00    +0.000 A 
ATOM     19  C   UNL     1       2.902   5.119  19.519  0.00  0.00    +0.000 A 
ATOM     20 CL   UNL     1       2.241   6.669  19.876  0.00  0.00    +0.000 Cl
ENDBRANCH   1  17
TORSDOF 1
ENDMDL
MODEL 3
REMARK VINA RESULT:      -7.4      3.915      6.952
REMARK  Name = 
REMARK  1 active torsions:
REMARK  status: ('A' for Active; 'I' for Inactive)
REMARK    1  A    between atoms: C_5  and  N_6
REMARK                            x       y       z     vdW  Elec       q    Type
REMARK                         _______ _______ _______ _____ _____    ______ ____
ROOT
ATOM      1  N   UNL     1       4.484   4.055  16.453  0.00  0.00    +0.000 N 
ATOM      2  C   UNL     1       5.625   4.637  15.992  0.00  0.00    +0.000 A 
ATOM      3  N   UNL     1       6.429   5.493  16.642  0.00  0.00    +0.000 NA
ATOM      4  N   UNL     1       7.374   5.816  15.741  0.00  0.00    +0.000 N 
ATOM      5  C   UNL     1       7.221   5.209  14.535  0.00  0.00    +0.000 A 
ATOM      6  N   UNL     1       7.989   5.362  13.434  0.00  0.00    +0.000 NA
ATOM      7  C   UNL     1       7.509   4.612  12.412  0.00  0.00    +0.000 A 
ATOM      8  C   UNL     1       6.382   3.797  12.502  0.00  0.00    +0.000 A 
ATOM      9  N   UNL     1       5.626   3.657  13.622  0.00  0.00    +0.000 NA
ATOM     10  C   UNL     1       6.094   4.412  14.660  0.00  0.00    +0.000 A 
ATOM     11  H   UNL     1       4.034   3.406  15.812  0.00  0.00    +0.000 HD
ATOM     12  H   UNL     1       8.097   6.475  16.002  0.00  0.00    +0.000 HD
ENDROOT
BRANCH   1  17
ATOM     13  F   UNL     1       1.099   5.204  20.722  0.00  0.00    +0.000 F 
ATOM     14  C   UNL     1       1.948   4.924  19.722  0.00  0.00    +0.000 A 
ATOM     15  C   UNL     1       2.448   5.967  18.958  0.00  0.00    +0.000 A 
ATOM     16  C   UNL     1       3.313   5.692  17.896  0.00  0.00    +0.000 A 
ATOM     17  C   UNL     1       3.684   4.378  17.573  0.00  0.00    +0.000 A 
ATOM     18  C   UNL     1       3.192   3.341  18.383  0.00  0.00    +0.000 A 
ATOM     19  C   UNL     1       2.324   3.613  19.447  0.00  0.00    +0.000 A 
ATOM     20 CL   UNL     1       1.709   2.312  20.393  0.00  0.00    +0.000 Cl
ENDBRANCH   1  17
TORSDOF 1
ENDMDL
MODEL 4
REMARK VINA RESULT:      -7.3      1.096      1.839
REMARK  Name = 
REMARK  1 active torsions:
REMARK  status: ('A' for Active; 'I' for Inactive)
REMARK    1  A    between atoms: C_5  and  N_6
REMARK                            x       y       z     vdW  Elec       q    Type
REMARK                         _______ _______ _______ _____ _____    ______ ____
ROOT
ATOM      1  N   UNL     1       4.261   4.941  17.771  0.00  0.00    +0.000 N 
ATOM      2  C   UNL     1       4.219   4.063  18.810  0.00  0.00    +0.000 A 
ATOM      3  N   UNL     1       5.197   3.246  19.232  0.00  0.00    +0.000 NA
ATOM      4  N   UNL     1       4.641   2.548  20.238  0.00  0.00    +0.000 N 
ATOM      5  C   UNL     1       3.346   2.874  20.490  0.00  0.00    +0.000 A 
ATOM      6  N   UNL     1       2.524   2.327  21.411  0.00  0.00    +0.000 NA
ATOM      7  C   UNL     1       1.294   2.894  21.348  0.00  0.00    +0.000 A 
ATOM      8  C   UNL     1       0.945   3.905  20.456  0.00  0.00    +0.000 A 
ATOM      9  N   UNL     1       1.790   4.444  19.539  0.00  0.00    +0.000 NA
ATOM     10  C   UNL     1       3.033   3.877  19.586  0.00  0.00    +0.000 A 
ATOM     11  H   UNL     1       3.419   5.496  17.632  0.00  0.00    +0.000 HD
ATOM     12  H   UNL     1       5.193   1.844  20.712  0.00  0.00    +0.000 HD
ENDROOT
BRANCH   1  17
ATOM     13  F   UNL     1       7.941   5.060  13.594  0.00  0.00    +0.000 F 
ATOM     14  C   UNL     1       7.032   5.064  14.580  0.00  0.00    +0.000 A 
ATOM     15  C   UNL     1       7.320   5.746  15.752  0.00  0.00    +0.000 A 
ATOM     16  C   UNL     1       6.396   5.738  16.800  0.00  0.00    +0.000 A 
ATOM     17  C   UNL     1       5.179   5.046  16.701  0.00  0.00    +0.000 A 
ATOM     18  C   UNL     1       4.896   4.391  15.491  0.00  0.00    +0.000 A 
ATOM     19  C   UNL     1       5.820   4.395  14.440  0.00  0.00    +0.000 A 
ATOM     20 CL   UNL     1       5.454   3.547  12.986  0.00  0.00    +0.000 Cl
ENDBRANCH   1  17
TORSDOF 1
ENDMDL
MODEL 5
REMARK VINA RESULT:      -7.3      3.831      6.908
REMARK  Name = 
REMARK  1 active torsions:
REMARK  status: ('A' for Active; 'I' for Inactive)
REMARK    1  A    between atoms: C_5  and  N_6
REMARK                            x       y       z     vdW  Elec       q    Type
REMARK                         _______ _______ _______ _____ _____    ______ ____
ROOT
ATOM      1  N   UNL     1       4.189   3.282  16.798  0.00  0.00    +0.000 N 
ATOM      2  C   UNL     1       5.307   4.036  16.612  0.00  0.00    +0.000 A 
ATOM      3  N   UNL     1       5.959   4.773  17.526  0.00  0.00    +0.000 NA
ATOM      4  N   UNL     1       6.950   5.364  16.834  0.00  0.00    +0.000 N 
ATOM      5  C   UNL     1       6.972   5.045  15.513  0.00  0.00    +0.000 A 
ATOM      6  N   UNL     1       7.823   5.504  14.570  0.00  0.00    +0.000 NA
ATOM      7  C   UNL     1       7.516   4.981  13.358  0.00  0.00    +0.000 A 
ATOM      8  C   UNL     1       6.470   4.088  13.134  0.00  0.00    +0.000 A 
ATOM      9  N   UNL     1       5.628   3.637  14.100  0.00  0.00    +0.000 NA
ATOM     10  C   UNL     1       5.920   4.162  15.327  0.00  0.00    +0.000 A 
ATOM     11  H   UNL     1       3.866   2.770  15.981  0.00  0.00    +0.000 HD
ATOM     12  H   UNL     1       7.578   5.994  17.317  0.00  0.00    +0.000 HD
ENDROOT
BRANCH   1  17
ATOM     13  F   UNL     1       0.751   3.325  21.178  0.00  0.00    +0.000 F 
ATOM     14  C   UNL     1       1.546   3.328  20.098  0.00  0.00    +0.000 A 
ATOM     15  C   UNL     1       1.785   2.132  19.440  0.00  0.00    +0.000 A 
ATOM     16  C   UNL     1       2.631   2.113  18.328  0.00  0.00    +0.000 A 
ATOM     17  C   UNL     1       3.258   3.278  17.862  0.00  0.00    +0.000 A 
ATOM     18  C   UNL     1       2.973   4.484  18.525  0.00  0.00    +0.000 A 
ATOM     19  C   UNL     1       2.127   4.506  19.640  0.00  0.00    +0.000 A 
ATOM     20 CL   UNL     1       1.833   5.998  20.450  0.00  0.00    +0.000 Cl
ENDBRANCH   1  17
TORSDOF 1
ENDMDL
MODEL 6
REMARK VINA RESULT:      -7.0      1.292      1.349
REMARK  Name = 
REMARK  1 active torsions:
REMARK  status: ('A' for Active; 'I' for Inactive)
REMARK    1  A    between atoms: C_5  and  N_6
REMARK                            x       y       z     vdW  Elec       q    Type
REMARK                         _______ _______ _______ _____ _____    ______ ____
ROOT
ATOM      1  N   UNL     1       4.929   4.423  17.714  0.00  0.00    +0.000 N 
ATOM      2  C   UNL     1       4.082   3.442  18.130  0.00  0.00    +0.000 A 
ATOM      3  N   UNL     1       3.889   2.236  17.574  0.00  0.00    +0.000 NA
ATOM      4  N   UNL     1       2.919   1.674  18.318  0.00  0.00    +0.000 N 
ATOM      5  C   UNL     1       2.473   2.460  19.333  0.00  0.00    +0.000 A 
ATOM      6  N   UNL     1       1.494   2.182  20.220  0.00  0.00    +0.000 NA
ATOM      7  C   UNL     1       1.312   3.222  21.071  0.00  0.00    +0.000 A 
ATOM      8  C   UNL     1       2.048   4.404  21.027  0.00  0.00    +0.000 A 
ATOM      9  N   UNL     1       3.032   4.662  20.127  0.00  0.00    +0.000 NA
ATOM     10  C   UNL     1       3.222   3.624  19.258  0.00  0.00    +0.000 A 
ATOM     11  H   UNL     1       4.953   5.257  18.296  0.00  0.00    +0.000 HD
ATOM     12  H   UNL     1       2.585   0.750  18.075  0.00  0.00    +0.000 HD
ENDROOT
BRANCH   1  17
ATOM     13  F   UNL     1       7.606   4.757  12.844  0.00  0.00    +0.000 F 
ATOM     14  C   UNL     1       6.940   4.714  14.006  0.00  0.00    +0.000 A 
ATOM     15  C   UNL     1       7.565   5.180  15.152  0.00  0.00    +0.000 A 
ATOM     16  C   UNL     1       6.895   5.118  16.377  0.00  0.00    +0.000 A 
ATOM     17  C   UNL     1       5.602   4.584  16.481  0.00  0.00    +0.000 A 
ATOM     18  C   UNL     1       4.977   4.148  15.300  0.00  0.00    +0.000 A 
ATOM     19  C   UNL     1       5.646   4.208  14.072  0.00  0.00    +0.000 A 
ATOM     20 CL   UNL     1       4.862   3.628  12.652  0.00  0.00    +0.000 Cl
ENDBRANCH   1  17
TORSDOF 1
ENDMDL
MODEL 7
REMARK VINA RESULT:      -6.9      1.389      1.431
REMARK  Name = 
REMARK  1 active torsions:
REMARK  status: ('A' for Active; 'I' for Inactive)
REMARK    1  A    between atoms: C_5  and  N_6
REMARK                            x       y       z     vdW  Elec       q    Type
REMARK                         _______ _______ _______ _____ _____    ______ ____
ROOT
ATOM      1  N   UNL     1       3.999   4.070  16.997  0.00  0.00    +0.000 N 
ATOM      2  C   UNL     1       3.660   4.573  18.215  0.00  0.00    +0.000 A 
ATOM      3  N   UNL     1       4.051   5.736  18.760  0.00  0.00    +0.000 NA
ATOM      4  N   UNL     1       3.495   5.737  19.985  0.00  0.00    +0.000 N 
ATOM      5  C   UNL     1       2.760   4.628  20.261  0.00  0.00    +0.000 A 
ATOM      6  N   UNL     1       2.115   4.334  21.411  0.00  0.00    +0.000 NA
ATOM      7  C   UNL     1       1.512   3.124  21.322  0.00  0.00    +0.000 A 
ATOM      8  C   UNL     1       1.554   2.311  20.192  0.00  0.00    +0.000 A 
ATOM      9  N   UNL     1       2.208   2.628  19.044  0.00  0.00    +0.000 NA
ATOM     10  C   UNL     1       2.827   3.843  19.121  0.00  0.00    +0.000 A 
ATOM     11  H   UNL     1       3.569   3.181  16.755  0.00  0.00    +0.000 HD
ATOM     12  H   UNL     1       3.666   6.522  20.601  0.00  0.00    +0.000 HD
ENDROOT
BRANCH   1  17
ATOM     13  F   UNL     1       8.182   5.281  13.527  0.00  0.00    +0.000 F 
ATOM     14  C   UNL     1       7.150   5.019  14.342  0.00  0.00    +0.000 A 
ATOM     15  C   UNL     1       7.127   5.602  15.599  0.00  0.00    +0.000 A 
ATOM     16  C   UNL     1       6.072   5.320  16.471  0.00  0.00    +0.000 A 
ATOM     17  C   UNL     1       5.033   4.449  16.110  0.00  0.00    +0.000 A 
ATOM     18  C   UNL     1       5.061   3.897  14.818  0.00  0.00    +0.000 A 
ATOM     19  C   UNL     1       6.117   4.176  13.943  0.00  0.00    +0.000 A 
ATOM     20 CL   UNL     1       6.137   3.450  12.381  0.00  0.00    +0.000 Cl
ENDBRANCH   1  17
TORSDOF 1
ENDMDL
MODEL 8
REMARK VINA RESULT:      -6.8      4.144      6.943
REMARK  Name = 
REMARK  1 active torsions:
REMARK  status: ('A' for Active; 'I' for Inactive)
REMARK    1  A    between atoms: C_5  and  N_6
REMARK                            x       y       z     vdW  Elec       q    Type
REMARK                         _______ _______ _______ _____ _____    ______ ____
ROOT
ATOM      1  N   UNL     1       4.207   4.826  17.032  0.00  0.00    +0.000 N 
ATOM      2  C   UNL     1       5.417   5.209  16.539  0.00  0.00    +0.000 A 
ATOM      3  N   UNL     1       6.308   6.038  17.106  0.00  0.00    +0.000 NA
ATOM      4  N   UNL     1       7.300   6.134  16.202  0.00  0.00    +0.000 N 
ATOM      5  C   UNL     1       7.094   5.404  15.074  0.00  0.00    +0.000 A 
ATOM      6  N   UNL     1       7.893   5.328  13.987  0.00  0.00    +0.000 NA
ATOM      7  C   UNL     1       7.343   4.519  13.049  0.00  0.00    +0.000 A 
ATOM      8  C   UNL     1       6.125   3.860  13.203  0.00  0.00    +0.000 A 
ATOM      9  N   UNL     1       5.339   3.949  14.307  0.00  0.00    +0.000 NA
ATOM     10  C   UNL     1       5.878   4.767  15.260  0.00  0.00    +0.000 A 
ATOM     11  H   UNL     1       3.692   4.161  16.461  0.00  0.00    +0.000 HD
ATOM     12  H   UNL     1       8.092   6.730  16.404  0.00  0.00    +0.000 HD
ENDROOT
BRANCH   1  17
ATOM     13  F   UNL     1       1.389   7.186  21.214  0.00  0.00    +0.000 F 
ATOM     14  C   UNL     1       2.030   6.610  20.187  0.00  0.00    +0.000 A 
ATOM     15  C   UNL     1       2.458   5.298  20.319  0.00  0.00    +0.000 A 
ATOM     16  C   UNL     1       3.150   4.690  19.268  0.00  0.00    +0.000 A 
ATOM     17  C   UNL     1       3.434   5.378  18.079  0.00  0.00    +0.000 A 
ATOM     18  C   UNL     1       2.959   6.695  17.957  0.00  0.00    +0.000 A 
ATOM     19  C   UNL     1       2.267   7.308  19.008  0.00  0.00    +0.000 A 
ATOM     20 CL   UNL     1       1.735   8.937  18.835  0.00  0.00    +0.000 Cl
ENDBRANCH   1  17
TORSDOF 1
ENDMDL
MODEL 9
REMARK VINA RESULT:      -6.8      3.786      6.829
REMARK  Name = 
REMARK  1 active torsions:
REMARK  status: ('A' for Active; 'I' for Inactive)
REMARK    1  A    between atoms: C_5  and  N_6
REMARK                            x       y       z     vdW  Elec       q    Type
REMARK                         _______ _______ _______ _____ _____    ______ ____
ROOT
ATOM      1  N   UNL     1       4.808   2.934  16.927  0.00  0.00    +0.000 N 
ATOM      2  C   UNL     1       5.821   3.795  16.634  0.00  0.00    +0.000 A 
ATOM      3  N   UNL     1       6.512   4.568  17.487  0.00  0.00    +0.000 NA
ATOM      4  N   UNL     1       7.350   5.268  16.702  0.00  0.00    +0.000 N 
ATOM      5  C   UNL     1       7.237   4.984  15.377  0.00  0.00    +0.000 A 
ATOM      6  N   UNL     1       7.918   5.545  14.355  0.00  0.00    +0.000 NA
ATOM      7  C   UNL     1       7.512   5.024  13.171  0.00  0.00    +0.000 A 
ATOM      8  C   UNL     1       6.533   4.041  13.044  0.00  0.00    +0.000 A 
ATOM      9  N   UNL     1       5.862   3.489  14.088  0.00  0.00    +0.000 NA
ATOM     10  C   UNL     1       6.255   4.009  15.289  0.00  0.00    +0.000 A 
ATOM     11  H   UNL     1       4.434   2.413  16.137  0.00  0.00    +0.000 HD
ATOM     12  H   UNL     1       7.973   5.943  17.127  0.00  0.00    +0.000 HD
ENDROOT
BRANCH   1  17
ATOM     13  F   UNL     1       1.614   2.748  21.484  0.00  0.00    +0.000 F 
ATOM     14  C   UNL     1       2.378   2.749  20.382  0.00  0.00    +0.000 A 
ATOM     15  C   UNL     1       3.757   2.751  20.525  0.00  0.00    +0.000 A 
ATOM     16  C   UNL     1       4.569   2.779  19.388  0.00  0.00    +0.000 A 
ATOM     17  C   UNL     1       4.022   2.815  18.096  0.00  0.00    +0.000 A 
ATOM     18  C   UNL     1       2.622   2.778  17.977  0.00  0.00    +0.000 A 
ATOM     19  C   UNL     1       1.807   2.752  19.114  0.00  0.00    +0.000 A 
ATOM     20 CL   UNL     1       0.094   2.747  18.928  0.00  0.00    +0.000 Cl
ENDBRANCH   1  17
TORSDOF 1
ENDMDL
