MODEL 1
REMARK VINA RESULT:      -6.9      0.000      0.000
REMARK  Name = 
REMARK  5 active torsions:
REMARK  status: ('A' for Active; 'I' for Inactive)
REMARK    1  A    between atoms: C_1  and  O_2
REMARK    2  A    between atoms: O_2  and  C_3
REMARK    3  A    between atoms: C_3  and  C_5
REMARK    4  A    between atoms: N_11  and  C_12
REMARK    5  A    between atoms: C_12  and  C_13
REMARK                            x       y       z     vdW  Elec       q    Type
REMARK                         _______ _______ _______ _____ _____    ______ ____
ROOT
ATOM      1  C   UNL     1      -4.260  11.570  18.051  0.00  0.00    +0.000 A 
ATOM      2  C   UNL     1      -3.400  10.711  17.354  0.00  0.00    +0.000 A 
ATOM      3  C   UNL     1      -2.067  10.584  17.754  0.00  0.00    +0.000 A 
ATOM      4  C   UNL     1      -1.569  11.310  18.853  0.00  0.00    +0.000 A 
ATOM      5  C   UNL     1      -2.431  12.152  19.562  0.00  0.00    +0.000 A 
ATOM      6  C   UNL     1      -3.771  12.266  19.164  0.00  0.00    +0.000 A 
ATOM      7  N   UNL     1      -1.968  12.931  20.655  0.00  0.00    +0.000 N 
ATOM      8  C   UNL     1      -1.452  12.387  21.830  0.00  0.00    +0.000 C 
ATOM      9  O   UNL     1      -1.475  13.012  22.892  0.00  0.00    +0.000 OA
ATOM     10  C   UNL     1      -0.759  11.072  21.872  0.00  0.00    +0.000 A 
ATOM     11  C   UNL     1      -0.709  10.455  23.142  0.00  0.00    +0.000 A 
ATOM     12  C   UNL     1       0.156   9.394  23.398  0.00  0.00    +0.000 A 
ATOM     13  C   UNL     1       0.971   8.916  22.381  0.00  0.00    +0.000 A 
ATOM     14  C   UNL     1       0.902   9.489  21.110  0.00  0.00    +0.000 A 
ATOM     15  C   UNL     1       0.043  10.571  20.836  0.00  0.00    +0.000 A 
ATOM     16  S   UNL     1       0.192  11.348  19.212  0.00  0.00    +0.000 S 
ATOM     17  O   UNL     1       0.878  10.306  18.254  0.00  0.00    +0.000 OA
ENDROOT
BRANCH   1  18
ATOM     18  C   UNL     1      -5.673  11.818  17.634  0.00  0.00    +0.000 C 
ATOM     19  O   UNL     1      -6.013  12.728  16.895  0.00  0.00    +0.000 OA
BRANCH  18  21
ATOM     20  C   UNL     1      -7.203  11.289  19.323  0.00  0.00    +0.000 C 
ATOM     21  O   UNL     1      -6.492  10.870  18.155  0.00  0.00    +0.000 OA
ENDBRANCH  18  21
ENDBRANCH   1  18
BRANCH   7  22
ATOM     22  C   UNL     1      -1.941  14.398  20.508  0.00  0.00    +0.000 C 
BRANCH  22  23
ATOM     23  C   UNL     1      -0.580  15.002  20.316  0.00  0.00    +0.000 A 
ATOM     24  C   UNL     1       0.108  15.602  21.375  0.00  0.00    +0.000 A 
ATOM     25  C   UNL     1       1.325  16.247  21.164  0.00  0.00    +0.000 A 
ATOM     26  C   UNL     1       1.878  16.282  19.886  0.00  0.00    +0.000 A 
ATOM     27  C   UNL     1       1.234  15.636  18.835  0.00  0.00    +0.000 A 
ATOM     28  C   UNL     1       0.022  14.985  19.061  0.00  0.00    +0.000 A 
ATOM     29  F   UNL     1      -0.570  14.360  18.038  0.00  0.00    +0.000 F 
ENDBRANCH  22  23
ENDBRANCH   7  22
TORSDOF 4
ENDMDL
MODEL 2
REMARK VINA RESULT:      -6.7      2.084      5.693
REMARK  Name = 
REMARK  5 active torsions:
REMARK  status: ('A' for Active; 'I' for Inactive)
REMARK    1  A    between atoms: C_1  and  O_2
REMARK    2  A    between atoms: O_2  and  C_3
REMARK    3  A    between atoms: C_3  and  C_5
REMARK    4  A    between atoms: N_11  and  C_12
REMARK    5  A    between atoms: C_12  and  C_13
REMARK                            x       y       z     vdW  Elec       q    Type
REMARK                         _______ _______ _______ _____ _____    ______ ____
ROOT
ATOM      1  C   UNL     1      -0.197  10.244  21.722  0.00  0.00    +0.000 A 
ATOM      2  C   UNL     1      -0.827  10.917  22.777  0.00  0.00    +0.000 A 
ATOM      3  C   UNL     1      -1.796  11.887  22.506  0.00  0.00    +0.000 A 
ATOM      4  C   UNL     1      -2.154  12.201  21.181  0.00  0.00    +0.000 A 
ATOM      5  C   UNL     1      -1.541  11.516  20.127  0.00  0.00    +0.000 A 
ATOM      6  C   UNL     1      -0.577  10.536  20.405  0.00  0.00    +0.000 A 
ATOM      7  N   UNL     1      -1.841  11.823  18.773  0.00  0.00    +0.000 N 
ATOM      8  C   UNL     1      -3.104  11.666  18.206  0.00  0.00    +0.000 C 
ATOM      9  O   UNL     1      -3.249  11.506  16.992  0.00  0.00    +0.000 OA
ATOM     10  C   UNL     1      -4.360  11.773  18.995  0.00  0.00    +0.000 A 
ATOM     11  C   UNL     1      -5.492  11.154  18.419  0.00  0.00    +0.000 A 
ATOM     12  C   UNL     1      -6.778  11.429  18.875  0.00  0.00    +0.000 A 
ATOM     13  C   UNL     1      -6.955  12.312  19.931  0.00  0.00    +0.000 A 
ATOM     14  C   UNL     1      -5.844  12.899  20.537  0.00  0.00    +0.000 A 
ATOM     15  C   UNL     1      -4.536  12.643  20.082  0.00  0.00    +0.000 A 
ATOM     16  S   UNL     1      -3.203  13.615  20.819  0.00  0.00    +0.000 S 
ATOM     17  O   UNL     1      -3.728  14.161  22.197  0.00  0.00    +0.000 OA
ENDROOT
BRANCH   1  18
ATOM     18  C   UNL     1       0.903   9.255  21.931  0.00  0.00    +0.000 C 
ATOM     19  O   UNL     1       1.835   9.430  22.700  0.00  0.00    +0.000 OA
BRANCH  18  21
ATOM     20  C   UNL     1       1.833   7.686  20.466  0.00  0.00    +0.000 C 
ATOM     21  O   UNL     1       0.684   8.142  21.187  0.00  0.00    +0.000 OA
ENDBRANCH  18  21
ENDBRANCH   1  18
BRANCH   7  22
ATOM     22  C   UNL     1      -0.785  12.429  17.941  0.00  0.00    +0.000 C 
BRANCH  22  23
ATOM     23  C   UNL     1       0.074  13.448  18.632  0.00  0.00    +0.000 A 
ATOM     24  C   UNL     1      -0.417  14.714  18.962  0.00  0.00    +0.000 A 
ATOM     25  C   UNL     1       0.419  15.685  19.511  0.00  0.00    +0.000 A 
ATOM     26  C   UNL     1       1.758  15.390  19.755  0.00  0.00    +0.000 A 
ATOM     27  C   UNL     1       2.245  14.113  19.489  0.00  0.00    +0.000 A 
ATOM     28  C   UNL     1       1.397  13.148  18.949  0.00  0.00    +0.000 A 
ATOM     29  F   UNL     1       1.885  11.925  18.715  0.00  0.00    +0.000 F 
ENDBRANCH  22  23
ENDBRANCH   7  22
TORSDOF 4
ENDMDL
MODEL 3
REMARK VINA RESULT:      -6.6      5.885      9.188
REMARK  Name = 
REMARK  5 active torsions:
REMARK  status: ('A' for Active; 'I' for Inactive)
REMARK    1  A    between atoms: C_1  and  O_2
REMARK    2  A    between atoms: O_2  and  C_3
REMARK    3  A    between atoms: C_3  and  C_5
REMARK    4  A    between atoms: N_11  and  C_12
REMARK    5  A    between atoms: C_12  and  C_13
REMARK                            x       y       z     vdW  Elec       q    Type
REMARK                         _______ _______ _______ _____ _____    ______ ____
ROOT
ATOM      1  C   UNL     1       1.970   4.155  19.115  0.00  0.00    +0.000 A 
ATOM      2  C   UNL     1       1.323   4.326  20.346  0.00  0.00    +0.000 A 
ATOM      3  C   UNL     1       1.205   5.602  20.901  0.00  0.00    +0.000 A 
ATOM      4  C   UNL     1       1.728   6.730  20.239  0.00  0.00    +0.000 A 
ATOM      5  C   UNL     1       2.356   6.565  19.001  0.00  0.00    +0.000 A 
ATOM      6  C   UNL     1       2.462   5.282  18.444  0.00  0.00    +0.000 A 
ATOM      7  N   UNL     1       2.931   7.665  18.312  0.00  0.00    +0.000 N 
ATOM      8  C   UNL     1       2.199   8.758  17.851  0.00  0.00    +0.000 C 
ATOM      9  O   UNL     1       2.598   9.449  16.912  0.00  0.00    +0.000 OA
ATOM     10  C   UNL     1       0.948   9.224  18.507  0.00  0.00    +0.000 A 
ATOM     11  C   UNL     1       0.096  10.007  17.698  0.00  0.00    +0.000 A 
ATOM     12  C   UNL     1      -0.937  10.760  18.250  0.00  0.00    +0.000 A 
ATOM     13  C   UNL     1      -1.151  10.724  19.621  0.00  0.00    +0.000 A 
ATOM     14  C   UNL     1      -0.343   9.922  20.428  0.00  0.00    +0.000 A 
ATOM     15  C   UNL     1       0.714   9.165  19.889  0.00  0.00    +0.000 A 
ATOM     16  S   UNL     1       1.806   8.327  21.060  0.00  0.00    +0.000 S 
ATOM     17  O   UNL     1       1.021   8.186  22.415  0.00  0.00    +0.000 OA
ENDROOT
BRANCH   1  18
ATOM     18  C   UNL     1       2.206   2.814  18.500  0.00  0.00    +0.000 C 
ATOM     19  O   UNL     1       1.963   2.550  17.333  0.00  0.00    +0.000 OA
BRANCH  18  21
ATOM     20  C   UNL     1       4.160   2.183  19.621  0.00  0.00    +0.000 C 
ATOM     21  O   UNL     1       2.762   1.971  19.406  0.00  0.00    +0.000 OA
ENDBRANCH  18  21
ENDBRANCH   1  18
BRANCH   7  22
ATOM     22  C   UNL     1       4.397   7.706  18.155  0.00  0.00    +0.000 C 
BRANCH  22  23
ATOM     23  C   UNL     1       4.989   6.591  17.342  0.00  0.00    +0.000 A 
ATOM     24  C   UNL     1       4.938   6.600  15.945  0.00  0.00    +0.000 A 
ATOM     25  C   UNL     1       5.399   5.513  15.205  0.00  0.00    +0.000 A 
ATOM     26  C   UNL     1       5.936   4.407  15.859  0.00  0.00    +0.000 A 
ATOM     27  C   UNL     1       6.050   4.411  17.247  0.00  0.00    +0.000 A 
ATOM     28  C   UNL     1       5.594   5.508  17.975  0.00  0.00    +0.000 A 
ATOM     29  F   UNL     1       5.727   5.495  19.306  0.00  0.00    +0.000 F 
ENDBRANCH  22  23
ENDBRANCH   7  22
TORSDOF 4
ENDMDL
MODEL 4
REMARK VINA RESULT:      -6.6      1.188      1.654
REMARK  Name = 
REMARK  5 active torsions:
REMARK  status: ('A' for Active; 'I' for Inactive)
REMARK    1  A    between atoms: C_1  and  O_2
REMARK    2  A    between atoms: O_2  and  C_3
REMARK    3  A    between atoms: C_3  and  C_5
REMARK    4  A    between atoms: N_11  and  C_12
REMARK    5  A    between atoms: C_12  and  C_13
REMARK                            x       y       z     vdW  Elec       q    Type
REMARK                         _______ _______ _______ _____ _____    ______ ____
ROOT
ATOM      1  C   UNL     1      -4.897  11.886  18.503  0.00  0.00    +0.000 A 
ATOM      2  C   UNL     1      -4.122  11.047  17.692  0.00  0.00    +0.000 A 
ATOM      3  C   UNL     1      -2.758  10.890  17.952  0.00  0.00    +0.000 A 
ATOM      4  C   UNL     1      -2.144  11.565  19.025  0.00  0.00    +0.000 A 
ATOM      5  C   UNL     1      -2.920  12.387  19.848  0.00  0.00    +0.000 A 
ATOM      6  C   UNL     1      -4.290  12.531  19.589  0.00  0.00    +0.000 A 
ATOM      7  N   UNL     1      -2.341  13.117  20.919  0.00  0.00    +0.000 N 
ATOM      8  C   UNL     1      -1.719  12.520  22.015  0.00  0.00    +0.000 C 
ATOM      9  O   UNL     1      -1.629  13.102  23.098  0.00  0.00    +0.000 OA
ATOM     10  C   UNL     1      -1.045  11.197  21.938  0.00  0.00    +0.000 A 
ATOM     11  C   UNL     1      -0.879  10.529  23.171  0.00  0.00    +0.000 A 
ATOM     12  C   UNL     1      -0.009   9.449  23.299  0.00  0.00    +0.000 A 
ATOM     13  C   UNL     1       0.695   9.004  22.188  0.00  0.00    +0.000 A 
ATOM     14  C   UNL     1       0.510   9.629  20.954  0.00  0.00    +0.000 A 
ATOM     15  C   UNL     1      -0.356  10.730  20.809  0.00  0.00    +0.000 A 
ATOM     16  S   UNL     1      -0.356  11.570  19.209  0.00  0.00    +0.000 S 
ATOM     17  O   UNL     1       0.218  10.561  18.149  0.00  0.00    +0.000 OA
ENDROOT
BRANCH   1  18
ATOM     18  C   UNL     1      -6.340  12.165  18.238  0.00  0.00    +0.000 C 
ATOM     19  O   UNL     1      -7.222  12.034  19.071  0.00  0.00    +0.000 OA
BRANCH  18  21
ATOM     20  C   UNL     1      -6.786  14.022  16.886  0.00  0.00    +0.000 C 
ATOM     21  O   UNL     1      -6.506  12.622  16.971  0.00  0.00    +0.000 OA
ENDBRANCH  18  21
ENDBRANCH   1  18
BRANCH   7  22
ATOM     22  C   UNL     1      -2.307  14.588  20.828  0.00  0.00    +0.000 C 
BRANCH  22  23
ATOM     23  C   UNL     1      -0.979  15.180  20.454  0.00  0.00    +0.000 A 
ATOM     24  C   UNL     1      -0.479  15.087  19.152  0.00  0.00    +0.000 A 
ATOM     25  C   UNL     1       0.797  15.551  18.841  0.00  0.00    +0.000 A 
ATOM     26  C   UNL     1       1.584  16.133  19.831  0.00  0.00    +0.000 A 
ATOM     27  C   UNL     1       1.075  16.288  21.117  0.00  0.00    +0.000 A 
ATOM     28  C   UNL     1      -0.207  15.829  21.415  0.00  0.00    +0.000 A 
ATOM     29  F   UNL     1      -0.679  16.002  22.654  0.00  0.00    +0.000 F 
ENDBRANCH  22  23
ENDBRANCH   7  22
TORSDOF 4
ENDMDL
MODEL 5
REMARK VINA RESULT:      -6.5      2.471      3.598
REMARK  Name = 
REMARK  5 active torsions:
REMARK  status: ('A' for Active; 'I' for Inactive)
REMARK    1  A    between atoms: C_1  and  O_2
REMARK    2  A    between atoms: O_2  and  C_3
REMARK    3  A    between atoms: C_3  and  C_5
REMARK    4  A    between atoms: N_11  and  C_12
REMARK    5  A    between atoms: C_12  and  C_13
REMARK                            x       y       z     vdW  Elec       q    Type
REMARK                         _______ _______ _______ _____ _____    ______ ____
ROOT
ATOM      1  C   UNL     1      -4.680  11.792  18.233  0.00  0.00    +0.000 A 
ATOM      2  C   UNL     1      -3.647  11.298  17.426  0.00  0.00    +0.000 A 
ATOM      3  C   UNL     1      -2.323  11.368  17.867  0.00  0.00    +0.000 A 
ATOM      4  C   UNL     1      -2.006  11.931  19.117  0.00  0.00    +0.000 A 
ATOM      5  C   UNL     1      -3.037  12.407  19.933  0.00  0.00    +0.000 A 
ATOM      6  C   UNL     1      -4.365  12.323  19.491  0.00  0.00    +0.000 A 
ATOM      7  N   UNL     1      -2.766  13.017  21.187  0.00  0.00    +0.000 N 
ATOM      8  C   UNL     1      -2.159  12.355  22.254  0.00  0.00    +0.000 C 
ATOM      9  O   UNL     1      -2.329  12.723  23.418  0.00  0.00    +0.000 OA
ATOM     10  C   UNL     1      -1.201  11.233  22.066  0.00  0.00    +0.000 A 
ATOM     11  C   UNL     1      -1.035  10.386  23.184  0.00  0.00    +0.000 A 
ATOM     12  C   UNL     1       0.034   9.497  23.267  0.00  0.00    +0.000 A 
ATOM     13  C   UNL     1       0.945   9.425  22.222  0.00  0.00    +0.000 A 
ATOM     14  C   UNL     1       0.770  10.227  21.093  0.00  0.00    +0.000 A 
ATOM     15  C   UNL     1      -0.298  11.140  20.997  0.00  0.00    +0.000 A 
ATOM     16  S   UNL     1      -0.299  12.257  19.577  0.00  0.00    +0.000 S 
ATOM     17  O   UNL     1       0.607  11.607  18.468  0.00  0.00    +0.000 OA
ENDROOT
BRANCH   1  18
ATOM     18  C   UNL     1      -6.108  11.825  17.796  0.00  0.00    +0.000 C 
ATOM     19  O   UNL     1      -6.958  11.045  18.194  0.00  0.00    +0.000 OA
BRANCH  18  21
ATOM     20  C   UNL     1      -7.260  13.826  17.417  0.00  0.00    +0.000 C 
ATOM     21  O   UNL     1      -6.316  12.860  16.944  0.00  0.00    +0.000 OA
ENDBRANCH  18  21
ENDBRANCH   1  18
BRANCH   7  22
ATOM     22  C   UNL     1      -3.053  14.454  21.345  0.00  0.00    +0.000 C 
BRANCH  22  23
ATOM     23  C   UNL     1      -4.178  14.788  22.281  0.00  0.00    +0.000 A 
ATOM     24  C   UNL     1      -5.437  14.194  22.150  0.00  0.00    +0.000 A 
ATOM     25  C   UNL     1      -6.501  14.585  22.960  0.00  0.00    +0.000 A 
ATOM     26  C   UNL     1      -6.309  15.568  23.928  0.00  0.00    +0.000 A 
ATOM     27  C   UNL     1      -5.046  16.122  24.112  0.00  0.00    +0.000 A 
ATOM     28  C   UNL     1      -3.988  15.716  23.302  0.00  0.00    +0.000 A 
ATOM     29  F   UNL     1      -2.780  16.253  23.506  0.00  0.00    +0.000 F 
ENDBRANCH  22  23
ENDBRANCH   7  22
TORSDOF 4
ENDMDL
MODEL 6
REMARK VINA RESULT:      -6.4      1.792      2.455
REMARK  Name = 
REMARK  5 active torsions:
REMARK  status: ('A' for Active; 'I' for Inactive)
REMARK    1  A    between atoms: C_1  and  O_2
REMARK    2  A    between atoms: O_2  and  C_3
REMARK    3  A    between atoms: C_3  and  C_5
REMARK    4  A    between atoms: N_11  and  C_12
REMARK    5  A    between atoms: C_12  and  C_13
REMARK                            x       y       z     vdW  Elec       q    Type
REMARK                         _______ _______ _______ _____ _____    ______ ____
ROOT
ATOM      1  C   UNL     1      -2.688  10.824  16.829  0.00  0.00    +0.000 A 
ATOM      2  C   UNL     1      -1.890   9.683  16.670  0.00  0.00    +0.000 A 
ATOM      3  C   UNL     1      -0.756   9.510  17.467  0.00  0.00    +0.000 A 
ATOM      4  C   UNL     1      -0.398  10.468  18.434  0.00  0.00    +0.000 A 
ATOM      5  C   UNL     1      -1.204  11.597  18.608  0.00  0.00    +0.000 A 
ATOM      6  C   UNL     1      -2.348  11.761  17.814  0.00  0.00    +0.000 A 
ATOM      7  N   UNL     1      -0.865  12.610  19.545  0.00  0.00    +0.000 N 
ATOM      8  C   UNL     1      -0.783  12.395  20.920  0.00  0.00    +0.000 C 
ATOM      9  O   UNL     1      -0.929  13.318  21.724  0.00  0.00    +0.000 OA
ATOM     10  C   UNL     1      -0.423  11.078  21.509  0.00  0.00    +0.000 A 
ATOM     11  C   UNL     1      -0.819  10.888  22.852  0.00  0.00    +0.000 A 
ATOM     12  C   UNL     1      -0.294   9.853  23.622  0.00  0.00    +0.000 A 
ATOM     13  C   UNL     1       0.622   8.977  23.057  0.00  0.00    +0.000 A 
ATOM     14  C   UNL     1       0.992   9.128  21.719  0.00  0.00    +0.000 A 
ATOM     15  C   UNL     1       0.481  10.176  20.929  0.00  0.00    +0.000 A 
ATOM     16  S   UNL     1       1.187  10.380  19.278  0.00  0.00    +0.000 S 
ATOM     17  O   UNL     1       1.845   9.009  18.876  0.00  0.00    +0.000 OA
ENDROOT
BRANCH   1  18
ATOM     18  C   UNL     1      -3.868  11.117  15.960  0.00  0.00    +0.000 C 
ATOM     19  O   UNL     1      -4.982  11.369  16.391  0.00  0.00    +0.000 OA
BRANCH  18  21
ATOM     20  C   UNL     1      -3.988   9.976  13.922  0.00  0.00    +0.000 C 
ATOM     21  O   UNL     1      -3.505  11.107  14.653  0.00  0.00    +0.000 OA
ENDBRANCH  18  21
ENDBRANCH   1  18
BRANCH   7  22
ATOM     22  C   UNL     1      -0.487  13.940  19.034  0.00  0.00    +0.000 C 
BRANCH  22  23
ATOM     23  C   UNL     1       0.983  14.243  19.053  0.00  0.00    +0.000 A 
ATOM     24  C   UNL     1       1.871  13.608  18.179  0.00  0.00    +0.000 A 
ATOM     25  C   UNL     1       3.245  13.821  18.274  0.00  0.00    +0.000 A 
ATOM     26  C   UNL     1       3.745  14.693  19.238  0.00  0.00    +0.000 A 
ATOM     27  C   UNL     1       2.869  15.379  20.073  0.00  0.00    +0.000 A 
ATOM     28  C   UNL     1       1.496  15.165  19.962  0.00  0.00    +0.000 A 
ATOM     29  F   UNL     1       0.673  15.846  20.766  0.00  0.00    +0.000 F 
ENDBRANCH  22  23
ENDBRANCH   7  22
TORSDOF 4
ENDMDL
MODEL 7
REMARK VINA RESULT:      -6.4      2.354      5.675
REMARK  Name = 
REMARK  5 active torsions:
REMARK  status: ('A' for Active; 'I' for Inactive)
REMARK    1  A    between atoms: C_1  and  O_2
REMARK    2  A    between atoms: O_2  and  C_3
REMARK    3  A    between atoms: C_3  and  C_5
REMARK    4  A    between atoms: N_11  and  C_12
REMARK    5  A    between atoms: C_12  and  C_13
REMARK                            x       y       z     vdW  Elec       q    Type
REMARK                         _______ _______ _______ _____ _____    ______ ____
ROOT
ATOM      1  C   UNL     1       1.144   8.435  20.745  0.00  0.00    +0.000 A 
ATOM      2  C   UNL     1       0.725   8.616  22.070  0.00  0.00    +0.000 A 
ATOM      3  C   UNL     1       0.082   9.800  22.441  0.00  0.00    +0.000 A 
ATOM      4  C   UNL     1      -0.154  10.821  21.501  0.00  0.00    +0.000 A 
ATOM      5  C   UNL     1       0.246  10.633  20.174  0.00  0.00    +0.000 A 
ATOM      6  C   UNL     1       0.880   9.439  19.804  0.00  0.00    +0.000 A 
ATOM      7  N   UNL     1       0.063  11.647  19.197  0.00  0.00    +0.000 N 
ATOM      8  C   UNL     1      -1.185  12.128  18.806  0.00  0.00    +0.000 C 
ATOM      9  O   UNL     1      -1.356  12.648  17.701  0.00  0.00    +0.000 OA
ATOM     10  C   UNL     1      -2.365  12.138  19.711  0.00  0.00    +0.000 A 
ATOM     11  C   UNL     1      -3.621  12.210  19.067  0.00  0.00    +0.000 A 
ATOM     12  C   UNL     1      -4.777  12.534  19.772  0.00  0.00    +0.000 A 
ATOM     13  C   UNL     1      -4.703  12.772  21.137  0.00  0.00    +0.000 A 
ATOM     14  C   UNL     1      -3.476  12.665  21.793  0.00  0.00    +0.000 A 
ATOM     15  C   UNL     1      -2.293  12.350  21.095  0.00  0.00    +0.000 A 
ATOM     16  S   UNL     1      -0.744  12.437  22.022  0.00  0.00    +0.000 S 
ATOM     17  O   UNL     1      -1.104  12.324  23.549  0.00  0.00    +0.000 OA
ENDROOT
BRANCH   1  18
ATOM     18  C   UNL     1       1.908   7.233  20.293  0.00  0.00    +0.000 C 
ATOM     19  O   UNL     1       1.856   6.147  20.848  0.00  0.00    +0.000 OA
BRANCH  18  21
ATOM     20  C   UNL     1       2.847   6.390  18.322  0.00  0.00    +0.000 C 
ATOM     21  O   UNL     1       2.615   7.519  19.170  0.00  0.00    +0.000 OA
ENDBRANCH  18  21
ENDBRANCH   1  18
BRANCH   7  22
ATOM     22  C   UNL     1       1.258  12.298  18.630  0.00  0.00    +0.000 C 
BRANCH  22  23
ATOM     23  C   UNL     1       1.605  13.635  19.219  0.00  0.00    +0.000 A 
ATOM     24  C   UNL     1       1.207  14.827  18.607  0.00  0.00    +0.000 A 
ATOM     25  C   UNL     1       1.619  16.061  19.107  0.00  0.00    +0.000 A 
ATOM     26  C   UNL     1       2.424  16.115  20.242  0.00  0.00    +0.000 A 
ATOM     27  C   UNL     1       2.776  14.938  20.898  0.00  0.00    +0.000 A 
ATOM     28  C   UNL     1       2.349  13.711  20.394  0.00  0.00    +0.000 A 
ATOM     29  F   UNL     1       2.689  12.595  21.048  0.00  0.00    +0.000 F 
ENDBRANCH  22  23
ENDBRANCH   7  22
TORSDOF 4
ENDMDL
MODEL 8
REMARK VINA RESULT:      -6.4      2.392      5.414
REMARK  Name = 
REMARK  5 active torsions:
REMARK  status: ('A' for Active; 'I' for Inactive)
REMARK    1  A    between atoms: C_1  and  O_2
REMARK    2  A    between atoms: O_2  and  C_3
REMARK    3  A    between atoms: C_3  and  C_5
REMARK    4  A    between atoms: N_11  and  C_12
REMARK    5  A    between atoms: C_12  and  C_13
REMARK                            x       y       z     vdW  Elec       q    Type
REMARK                         _______ _______ _______ _____ _____    ______ ____
ROOT
ATOM      1  C   UNL     1      -2.760  11.373  17.656  0.00  0.00    +0.000 A 
ATOM      2  C   UNL     1      -4.002  11.455  18.298  0.00  0.00    +0.000 A 
ATOM      3  C   UNL     1      -4.129  12.189  19.480  0.00  0.00    +0.000 A 
ATOM      4  C   UNL     1      -3.022  12.853  20.041  0.00  0.00    +0.000 A 
ATOM      5  C   UNL     1      -1.785  12.789  19.391  0.00  0.00    +0.000 A 
ATOM      6  C   UNL     1      -1.667  12.060  18.199  0.00  0.00    +0.000 A 
ATOM      7  N   UNL     1      -0.631  13.411  19.936  0.00  0.00    +0.000 N 
ATOM      8  C   UNL     1      -0.513  14.786  20.132  0.00  0.00    +0.000 C 
ATOM      9  O   UNL     1       0.589  15.337  20.174  0.00  0.00    +0.000 OA
ATOM     10  C   UNL     1      -1.683  15.666  20.397  0.00  0.00    +0.000 A 
ATOM     11  C   UNL     1      -1.484  17.036  20.119  0.00  0.00    +0.000 A 
ATOM     12  C   UNL     1      -2.361  18.007  20.598  0.00  0.00    +0.000 A 
ATOM     13  C   UNL     1      -3.465  17.621  21.345  0.00  0.00    +0.000 A 
ATOM     14  C   UNL     1      -3.696  16.267  21.593  0.00  0.00    +0.000 A 
ATOM     15  C   UNL     1      -2.814  15.273  21.128  0.00  0.00    +0.000 A 
ATOM     16  S   UNL     1      -3.117  13.580  21.683  0.00  0.00    +0.000 S 
ATOM     17  O   UNL     1      -4.620  13.496  22.136  0.00  0.00    +0.000 OA
ENDROOT
BRANCH   1  18
ATOM     18  C   UNL     1      -2.530  10.542  16.436  0.00  0.00    +0.000 C 
ATOM     19  O   UNL     1      -1.867   9.516  16.428  0.00  0.00    +0.000 OA
BRANCH  18  21
ATOM     20  C   UNL     1      -3.352  10.163  14.279  0.00  0.00    +0.000 C 
ATOM     21  O   UNL     1      -3.194  11.067  15.376  0.00  0.00    +0.000 OA
ENDBRANCH  18  21
ENDBRANCH   1  18
BRANCH   7  22
ATOM     22  C   UNL     1       0.470  12.553  20.411  0.00  0.00    +0.000 C 
BRANCH  22  23
ATOM     23  C   UNL     1       0.051  11.325  21.166  0.00  0.00    +0.000 A 
ATOM     24  C   UNL     1      -0.521  11.411  22.438  0.00  0.00    +0.000 A 
ATOM     25  C   UNL     1      -0.813  10.262  23.171  0.00  0.00    +0.000 A 
ATOM     26  C   UNL     1      -0.551   9.008  22.626  0.00  0.00    +0.000 A 
ATOM     27  C   UNL     1      -0.040   8.907  21.335  0.00  0.00    +0.000 A 
ATOM     28  C   UNL     1       0.239  10.063  20.609  0.00  0.00    +0.000 A 
ATOM     29  F   UNL     1       0.717   9.940  19.366  0.00  0.00    +0.000 F 
ENDBRANCH  22  23
ENDBRANCH   7  22
TORSDOF 4
ENDMDL
MODEL 9
REMARK VINA RESULT:      -6.4      2.347      5.552
REMARK  Name = 
REMARK  5 active torsions:
REMARK  status: ('A' for Active; 'I' for Inactive)
REMARK    1  A    between atoms: C_1  and  O_2
REMARK    2  A    between atoms: O_2  and  C_3
REMARK    3  A    between atoms: C_3  and  C_5
REMARK    4  A    between atoms: N_11  and  C_12
REMARK    5  A    between atoms: C_12  and  C_13
REMARK                            x       y       z     vdW  Elec       q    Type
REMARK                         _______ _______ _______ _____ _____    ______ ____
ROOT
ATOM      1  C   UNL     1      -2.797  11.182  18.321  0.00  0.00    +0.000 A 
ATOM      2  C   UNL     1      -3.858  11.780  19.013  0.00  0.00    +0.000 A 
ATOM      3  C   UNL     1      -3.614  12.860  19.865  0.00  0.00    +0.000 A 
ATOM      4  C   UNL     1      -2.311  13.362  20.041  0.00  0.00    +0.000 A 
ATOM      5  C   UNL     1      -1.253  12.780  19.336  0.00  0.00    +0.000 A 
ATOM      6  C   UNL     1      -1.505  11.703  18.473  0.00  0.00    +0.000 A 
ATOM      7  N   UNL     1       0.084  13.227  19.507  0.00  0.00    +0.000 N 
ATOM      8  C   UNL     1       0.515  14.514  19.191  0.00  0.00    +0.000 C 
ATOM      9  O   UNL     1       1.696  14.749  18.925  0.00  0.00    +0.000 OA
ATOM     10  C   UNL     1      -0.381  15.700  19.243  0.00  0.00    +0.000 A 
ATOM     11  C   UNL     1       0.041  16.811  18.480  0.00  0.00    +0.000 A 
ATOM     12  C   UNL     1      -0.515  18.073  18.670  0.00  0.00    +0.000 A 
ATOM     13  C   UNL     1      -1.520  18.243  19.612  0.00  0.00    +0.000 A 
ATOM     14  C   UNL     1      -1.976  17.146  20.344  0.00  0.00    +0.000 A 
ATOM     15  C   UNL     1      -1.416  15.864  20.175  0.00  0.00    +0.000 A 
ATOM     16  S   UNL     1      -1.954  14.574  21.320  0.00  0.00    +0.000 S 
ATOM     17  O   UNL     1      -3.335  15.027  21.921  0.00  0.00    +0.000 OA
ENDROOT
BRANCH   1  18
ATOM     18  C   UNL     1      -2.968   9.975  17.457  0.00  0.00    +0.000 C 
ATOM     19  O   UNL     1      -3.717   9.049  17.725  0.00  0.00    +0.000 OA
BRANCH  18  21
ATOM     20  C   UNL     1      -2.947  10.503  15.178  0.00  0.00    +0.000 C 
ATOM     21  O   UNL     1      -2.214  10.088  16.334  0.00  0.00    +0.000 OA
ENDBRANCH  18  21
ENDBRANCH   1  18
BRANCH   7  22
ATOM     22  C   UNL     1       1.053  12.314  20.142  0.00  0.00    +0.000 C 
BRANCH  22  23
ATOM     23  C   UNL     1       0.454  11.211  20.966  0.00  0.00    +0.000 A 
ATOM     24  C   UNL     1      -0.236  11.479  22.152  0.00  0.00    +0.000 A 
ATOM     25  C   UNL     1      -0.699  10.443  22.960  0.00  0.00    +0.000 A 
ATOM     26  C   UNL     1      -0.491   9.120  22.578  0.00  0.00    +0.000 A 
ATOM     27  C   UNL     1       0.140   8.840  21.369  0.00  0.00    +0.000 A 
ATOM     28  C   UNL     1       0.590   9.885  20.565  0.00  0.00    +0.000 A 
ATOM     29  F   UNL     1       1.181   9.591  19.402  0.00  0.00    +0.000 F 
ENDBRANCH  22  23
ENDBRANCH   7  22
TORSDOF 4
ENDMDL
