MODEL 1
REMARK VINA RESULT:      -9.3      0.000      0.000
REMARK  Name = 
REMARK  6 active torsions:
REMARK  status: ('A' for Active; 'I' for Inactive)
REMARK    1  A    between atoms: C_1  and  C_2
REMARK    2  A    between atoms: C_5  and  C_6
REMARK    3  A    between atoms: N_8  and  C_9
REMARK    4  A    between atoms: C_13  and  N_14
REMARK    5  A    between atoms: N_14  and  C_15
REMARK    6  A    between atoms: N_23  and  C_24
REMARK                            x       y       z     vdW  Elec       q    Type
REMARK                         _______ _______ _______ _____ _____    ______ ____
ROOT
ATOM      1  C   UNL     1       3.487   4.640  19.226  0.00  0.00    +0.000 A 
ATOM      2  N   UNL     1       2.923   4.078  20.336  0.00  0.00    +0.000 NA
ATOM      3  N   UNL     1       1.960   4.708  21.106  0.00  0.00    +0.000 NA
ATOM      4  C   UNL     1       1.542   5.934  20.810  0.00  0.00    +0.000 A 
ATOM      5  C   UNL     1       2.181   6.617  19.788  0.00  0.00    +0.000 A 
ATOM      6  C   UNL     1       3.126   5.987  18.977  0.00  0.00    +0.000 A 
ATOM      7  C   UNL     1       3.435   6.968  18.006  0.00  0.00    +0.000 A 
ATOM      8  N   UNL     1       2.724   8.090  18.143  0.00  0.00    +0.000 NA
ATOM      9  N   UNL     1       2.007   7.898  19.281  0.00  0.00    +0.000 N 
ENDROOT
BRANCH   9  10
ATOM     10  C   UNL     1       1.199   8.939  19.810  0.00  0.00    +0.000 A 
ATOM     11  C   UNL     1       1.177   9.184  21.193  0.00  0.00    +0.000 A 
ATOM     12  C   UNL     1       0.320  10.165  21.706  0.00  0.00    +0.000 A 
ATOM     13  C   UNL     1      -0.503  10.884  20.845  0.00  0.00    +0.000 A 
ATOM     14  F   UNL     1      -1.357  11.785  21.341  0.00  0.00    +0.000 F 
ATOM     15  C   UNL     1      -0.469  10.669  19.475  0.00  0.00    +0.000 A 
ATOM     16  C   UNL     1       0.380   9.700  18.970  0.00  0.00    +0.000 A 
ATOM     17  F   UNL     1       0.311   9.466  17.654  0.00  0.00    +0.000 F 
ENDBRANCH   9  10
BRANCH   1  18
ATOM     18  N   UNL     1       4.314   3.846  18.385  0.00  0.00    +0.000 N 
ATOM     19  H   UNL     1       4.501   2.932  18.790  0.00  0.00    +0.000 HD
BRANCH  18  26
ATOM     20  C   UNL     1       6.620   5.354  19.687  0.00  0.00    +0.000 C 
ATOM     21  C   UNL     1       6.491   5.050  18.217  0.00  0.00    +0.000 A 
ATOM     22  C   UNL     1       7.535   5.542  17.404  0.00  0.00    +0.000 A 
ATOM     23  C   UNL     1       7.544   5.323  16.030  0.00  0.00    +0.000 A 
ATOM     24  C   UNL     1       6.518   4.604  15.425  0.00  0.00    +0.000 A 
ATOM     25  C   UNL     1       5.462   4.120  16.217  0.00  0.00    +0.000 A 
ATOM     26  C   UNL     1       5.426   4.328  17.623  0.00  0.00    +0.000 A 
BRANCH  24  27
ATOM     27  C   UNL     1       6.591   4.445  13.944  0.00  0.00    +0.000 C 
ATOM     28  O   UNL     1       7.343   5.189  13.296  0.00  0.00    +0.000 OA
ATOM     29  N   UNL     1       5.861   3.432  13.358  0.00  0.00    +0.000 N 
ATOM     30  H   UNL     1       5.331   2.794  13.943  0.00  0.00    +0.000 HD
BRANCH  29  31
ATOM     31  C   UNL     1       5.917   3.177  11.952  0.00  0.00    +0.000 C 
ATOM     32  C   UNL     1       5.652   1.802  11.402  0.00  0.00    +0.000 C 
ATOM     33  C   UNL     1       4.652   2.898  11.188  0.00  0.00    +0.000 C 
ENDBRANCH  29  31
ENDBRANCH  24  27
ENDBRANCH  18  26
ENDBRANCH   1  18
TORSDOF 5
ENDMDL
MODEL 2
REMARK VINA RESULT:      -9.1      2.286      4.101
REMARK  Name = 
REMARK  6 active torsions:
REMARK  status: ('A' for Active; 'I' for Inactive)
REMARK    1  A    between atoms: C_1  and  C_2
REMARK    2  A    between atoms: C_5  and  C_6
REMARK    3  A    between atoms: N_8  and  C_9
REMARK    4  A    between atoms: C_13  and  N_14
REMARK    5  A    between atoms: N_14  and  C_15
REMARK    6  A    between atoms: N_23  and  C_24
REMARK                            x       y       z     vdW  Elec       q    Type
REMARK                         _______ _______ _______ _____ _____    ______ ____
ROOT
ATOM      1  C   UNL     1       1.911   7.228  20.065  0.00  0.00    +0.000 A 
ATOM      2  N   UNL     1       2.058   7.247  18.707  0.00  0.00    +0.000 NA
ATOM      3  N   UNL     1       1.905   8.388  17.937  0.00  0.00    +0.000 NA
ATOM      4  C   UNL     1       1.574   9.548  18.493  0.00  0.00    +0.000 A 
ATOM      5  C   UNL     1       1.263   9.565  19.844  0.00  0.00    +0.000 A 
ATOM      6  C   UNL     1       1.448   8.436  20.642  0.00  0.00    +0.000 A 
ATOM      7  C   UNL     1       1.139   8.897  21.943  0.00  0.00    +0.000 A 
ATOM      8  N   UNL     1       0.842  10.198  21.987  0.00  0.00    +0.000 NA
ATOM      9  N   UNL     1       0.849  10.589  20.685  0.00  0.00    +0.000 N 
ENDROOT
BRANCH   9  10
ATOM     10  C   UNL     1       0.468  11.909  20.325  0.00  0.00    +0.000 A 
ATOM     11  C   UNL     1       1.375  12.972  20.471  0.00  0.00    +0.000 A 
ATOM     12  C   UNL     1       0.960  14.277  20.181  0.00  0.00    +0.000 A 
ATOM     13  C   UNL     1      -0.344  14.510  19.755  0.00  0.00    +0.000 A 
ATOM     14  F   UNL     1      -0.754  15.762  19.527  0.00  0.00    +0.000 F 
ATOM     15  C   UNL     1      -1.239  13.465  19.582  0.00  0.00    +0.000 A 
ATOM     16  C   UNL     1      -0.827  12.175  19.867  0.00  0.00    +0.000 A 
ATOM     17  F   UNL     1      -1.752  11.213  19.772  0.00  0.00    +0.000 F 
ENDBRANCH   9  10
BRANCH   1  18
ATOM     18  N   UNL     1       2.283   6.064  20.791  0.00  0.00    +0.000 N 
ATOM     19  H   UNL     1       2.638   6.290  21.717  0.00  0.00    +0.000 HD
BRANCH  18  26
ATOM     20  C   UNL     1       1.516   3.230  21.607  0.00  0.00    +0.000 C 
ATOM     21  C   UNL     1       2.601   3.596  20.627  0.00  0.00    +0.000 A 
ATOM     22  C   UNL     1       3.315   2.508  20.081  0.00  0.00    +0.000 A 
ATOM     23  C   UNL     1       4.336   2.706  19.157  0.00  0.00    +0.000 A 
ATOM     24  C   UNL     1       4.674   3.991  18.746  0.00  0.00    +0.000 A 
ATOM     25  C   UNL     1       3.985   5.087  19.291  0.00  0.00    +0.000 A 
ATOM     26  C   UNL     1       2.936   4.917  20.237  0.00  0.00    +0.000 A 
BRANCH  24  27
ATOM     27  C   UNL     1       5.802   4.112  17.778  0.00  0.00    +0.000 C 
ATOM     28  O   UNL     1       6.927   4.418  18.201  0.00  0.00    +0.000 OA
ATOM     29  N   UNL     1       5.561   3.818  16.452  0.00  0.00    +0.000 N 
ATOM     30  H   UNL     1       4.643   3.486  16.172  0.00  0.00    +0.000 HD
BRANCH  29  31
ATOM     31  C   UNL     1       6.599   3.857  15.469  0.00  0.00    +0.000 C 
ATOM     32  C   UNL     1       6.274   3.883  14.000  0.00  0.00    +0.000 C 
ATOM     33  C   UNL     1       6.826   5.107  14.665  0.00  0.00    +0.000 C 
ENDBRANCH  29  31
ENDBRANCH  24  27
ENDBRANCH  18  26
ENDBRANCH   1  18
TORSDOF 5
ENDMDL
MODEL 3
REMARK VINA RESULT:      -9.1      0.846      1.212
REMARK  Name = 
REMARK  6 active torsions:
REMARK  status: ('A' for Active; 'I' for Inactive)
REMARK    1  A    between atoms: C_1  and  C_2
REMARK    2  A    between atoms: C_5  and  C_6
REMARK    3  A    between atoms: N_8  and  C_9
REMARK    4  A    between atoms: C_13  and  N_14
REMARK    5  A    between atoms: N_14  and  C_15
REMARK    6  A    between atoms: N_23  and  C_24
REMARK                            x       y       z     vdW  Elec       q    Type
REMARK                         _______ _______ _______ _____ _____    ______ ____
ROOT
ATOM      1  C   UNL     1       3.517   4.702  19.217  0.00  0.00    +0.000 A 
ATOM      2  N   UNL     1       2.872   4.171  20.297  0.00  0.00    +0.000 NA
ATOM      3  N   UNL     1       1.848   4.819  20.970  0.00  0.00    +0.000 NA
ATOM      4  C   UNL     1       1.450   6.032  20.604  0.00  0.00    +0.000 A 
ATOM      5  C   UNL     1       2.164   6.688  19.614  0.00  0.00    +0.000 A 
ATOM      6  C   UNL     1       3.172   6.038  18.899  0.00  0.00    +0.000 A 
ATOM      7  C   UNL     1       3.552   6.991  17.925  0.00  0.00    +0.000 A 
ATOM      8  N   UNL     1       2.828   8.112  17.971  0.00  0.00    +0.000 NA
ATOM      9  N   UNL     1       2.025   7.951  19.055  0.00  0.00    +0.000 N 
ENDROOT
BRANCH   9  10
ATOM     10  C   UNL     1       1.174   9.002  19.487  0.00  0.00    +0.000 A 
ATOM     11  C   UNL     1       0.398   9.713  18.557  0.00  0.00    +0.000 A 
ATOM     12  C   UNL     1      -0.379  10.794  18.989  0.00  0.00    +0.000 A 
ATOM     13  C   UNL     1      -0.373  11.157  20.332  0.00  0.00    +0.000 A 
ATOM     14  F   UNL     1      -1.076  12.221  20.735  0.00  0.00    +0.000 F 
ATOM     15  C   UNL     1       0.369  10.447  21.263  0.00  0.00    +0.000 A 
ATOM     16  C   UNL     1       1.135   9.377  20.835  0.00  0.00    +0.000 A 
ATOM     17  F   UNL     1       1.903   8.780  21.754  0.00  0.00    +0.000 F 
ENDBRANCH   9  10
BRANCH   1  18
ATOM     18  N   UNL     1       4.411   3.888  18.469  0.00  0.00    +0.000 N 
ATOM     19  H   UNL     1       4.643   3.028  18.960  0.00  0.00    +0.000 HD
BRANCH  18  26
ATOM     20  C   UNL     1       6.751   5.379  19.729  0.00  0.00    +0.000 C 
ATOM     21  C   UNL     1       6.590   5.081  18.261  0.00  0.00    +0.000 A 
ATOM     22  C   UNL     1       7.620   5.570  17.428  0.00  0.00    +0.000 A 
ATOM     23  C   UNL     1       7.601   5.356  16.054  0.00  0.00    +0.000 A 
ATOM     24  C   UNL     1       6.558   4.644  15.467  0.00  0.00    +0.000 A 
ATOM     25  C   UNL     1       5.516   4.164  16.279  0.00  0.00    +0.000 A 
ATOM     26  C   UNL     1       5.510   4.367  17.686  0.00  0.00    +0.000 A 
BRANCH  24  27
ATOM     27  C   UNL     1       6.601   4.491  13.985  0.00  0.00    +0.000 C 
ATOM     28  O   UNL     1       7.334   5.241  13.323  0.00  0.00    +0.000 OA
ATOM     29  N   UNL     1       5.865   3.475  13.411  0.00  0.00    +0.000 N 
ATOM     30  H   UNL     1       5.351   2.832  14.006  0.00  0.00    +0.000 HD
BRANCH  29  31
ATOM     31  C   UNL     1       5.891   3.224  12.003  0.00  0.00    +0.000 C 
ATOM     32  C   UNL     1       5.673   1.839  11.458  0.00  0.00    +0.000 C 
ATOM     33  C   UNL     1       4.619   2.889  11.275  0.00  0.00    +0.000 C 
ENDBRANCH  29  31
ENDBRANCH  24  27
ENDBRANCH  18  26
ENDBRANCH   1  18
TORSDOF 5
ENDMDL
MODEL 4
REMARK VINA RESULT:      -9.0      2.400      4.127
REMARK  Name = 
REMARK  6 active torsions:
REMARK  status: ('A' for Active; 'I' for Inactive)
REMARK    1  A    between atoms: C_1  and  C_2
REMARK    2  A    between atoms: C_5  and  C_6
REMARK    3  A    between atoms: N_8  and  C_9
REMARK    4  A    between atoms: C_13  and  N_14
REMARK    5  A    between atoms: N_14  and  C_15
REMARK    6  A    between atoms: N_23  and  C_24
REMARK                            x       y       z     vdW  Elec       q    Type
REMARK                         _______ _______ _______ _____ _____    ______ ____
ROOT
ATOM      1  C   UNL     1       1.953   7.402  19.869  0.00  0.00    +0.000 A 
ATOM      2  N   UNL     1       2.078   7.433  18.509  0.00  0.00    +0.000 NA
ATOM      3  N   UNL     1       1.875   8.574  17.749  0.00  0.00    +0.000 NA
ATOM      4  C   UNL     1       1.516   9.719  18.318  0.00  0.00    +0.000 A 
ATOM      5  C   UNL     1       1.226   9.718  19.674  0.00  0.00    +0.000 A 
ATOM      6  C   UNL     1       1.461   8.590  20.462  0.00  0.00    +0.000 A 
ATOM      7  C   UNL     1       1.158   9.033  21.770  0.00  0.00    +0.000 A 
ATOM      8  N   UNL     1       0.819  10.323  21.827  0.00  0.00    +0.000 NA
ATOM      9  N   UNL     1       0.792  10.722  20.528  0.00  0.00    +0.000 N 
ENDROOT
BRANCH   9  10
ATOM     10  C   UNL     1       0.363  12.031  20.183  0.00  0.00    +0.000 A 
ATOM     11  C   UNL     1      -1.006  12.345  20.164  0.00  0.00    +0.000 A 
ATOM     12  C   UNL     1      -1.415  13.619  19.750  0.00  0.00    +0.000 A 
ATOM     13  C   UNL     1      -0.466  14.558  19.359  0.00  0.00    +0.000 A 
ATOM     14  F   UNL     1      -0.861  15.756  18.917  0.00  0.00    +0.000 F 
ATOM     15  C   UNL     1       0.889  14.267  19.400  0.00  0.00    +0.000 A 
ATOM     16  C   UNL     1       1.292  13.008  19.811  0.00  0.00    +0.000 A 
ATOM     17  F   UNL     1       2.603  12.745  19.746  0.00  0.00    +0.000 F 
ENDBRANCH   9  10
BRANCH   1  18
ATOM     18  N   UNL     1       2.375   6.246  20.581  0.00  0.00    +0.000 N 
ATOM     19  H   UNL     1       2.815   6.484  21.466  0.00  0.00    +0.000 HD
BRANCH  18  26
ATOM     20  C   UNL     1       1.490   3.437  21.363  0.00  0.00    +0.000 C 
ATOM     21  C   UNL     1       2.571   3.769  20.367  0.00  0.00    +0.000 A 
ATOM     22  C   UNL     1       3.220   2.659  19.787  0.00  0.00    +0.000 A 
ATOM     23  C   UNL     1       4.231   2.825  18.845  0.00  0.00    +0.000 A 
ATOM     24  C   UNL     1       4.621   4.100  18.449  0.00  0.00    +0.000 A 
ATOM     25  C   UNL     1       3.996   5.217  19.028  0.00  0.00    +0.000 A 
ATOM     26  C   UNL     1       2.960   5.079  19.993  0.00  0.00    +0.000 A 
BRANCH  24  27
ATOM     27  C   UNL     1       5.733   4.185  17.460  0.00  0.00    +0.000 C 
ATOM     28  O   UNL     1       6.850   4.566  17.842  0.00  0.00    +0.000 OA
ATOM     29  N   UNL     1       5.490   3.777  16.165  0.00  0.00    +0.000 N 
ATOM     30  H   UNL     1       4.583   3.389  15.925  0.00  0.00    +0.000 HD
BRANCH  29  31
ATOM     31  C   UNL     1       6.515   3.775  15.167  0.00  0.00    +0.000 C 
ATOM     32  C   UNL     1       6.174   3.871  13.705  0.00  0.00    +0.000 C 
ATOM     33  C   UNL     1       6.819   5.032  14.400  0.00  0.00    +0.000 C 
ENDBRANCH  29  31
ENDBRANCH  24  27
ENDBRANCH  18  26
ENDBRANCH   1  18
TORSDOF 5
ENDMDL
MODEL 5
REMARK VINA RESULT:      -9.0      2.046      3.833
REMARK  Name = 
REMARK  6 active torsions:
REMARK  status: ('A' for Active; 'I' for Inactive)
REMARK    1  A    between atoms: C_1  and  C_2
REMARK    2  A    between atoms: C_5  and  C_6
REMARK    3  A    between atoms: N_8  and  C_9
REMARK    4  A    between atoms: C_13  and  N_14
REMARK    5  A    between atoms: N_14  and  C_15
REMARK    6  A    between atoms: N_23  and  C_24
REMARK                            x       y       z     vdW  Elec       q    Type
REMARK                         _______ _______ _______ _____ _____    ______ ____
ROOT
ATOM      1  C   UNL     1       2.179   7.772  19.397  0.00  0.00    +0.000 A 
ATOM      2  N   UNL     1       2.365   8.220  18.120  0.00  0.00    +0.000 NA
ATOM      3  N   UNL     1       1.919   9.452  17.670  0.00  0.00    +0.000 NA
ATOM      4  C   UNL     1       1.249  10.271  18.473  0.00  0.00    +0.000 A 
ATOM      5  C   UNL     1       0.895   9.814  19.732  0.00  0.00    +0.000 A 
ATOM      6  C   UNL     1       1.368   8.593  20.217  0.00  0.00    +0.000 A 
ATOM      7  C   UNL     1       0.890   8.559  21.548  0.00  0.00    +0.000 A 
ATOM      8  N   UNL     1       0.230   9.665  21.902  0.00  0.00    +0.000 NA
ATOM      9  N   UNL     1       0.174  10.403  20.761  0.00  0.00    +0.000 N 
ENDROOT
BRANCH   9  10
ATOM     10  C   UNL     1      -0.556  11.620  20.724  0.00  0.00    +0.000 A 
ATOM     11  C   UNL     1      -0.194  12.689  21.561  0.00  0.00    +0.000 A 
ATOM     12  C   UNL     1      -0.968  13.855  21.565  0.00  0.00    +0.000 A 
ATOM     13  C   UNL     1      -2.089  13.944  20.745  0.00  0.00    +0.000 A 
ATOM     14  F   UNL     1      -2.856  15.038  20.787  0.00  0.00    +0.000 F 
ATOM     15  C   UNL     1      -2.440  12.906  19.896  0.00  0.00    +0.000 A 
ATOM     16  C   UNL     1      -1.672  11.755  19.892  0.00  0.00    +0.000 A 
ATOM     17  F   UNL     1      -2.103  10.747  19.123  0.00  0.00    +0.000 F 
ENDBRANCH   9  10
BRANCH   1  18
ATOM     18  N   UNL     1       2.842   6.589  19.824  0.00  0.00    +0.000 N 
ATOM     19  H   UNL     1       3.632   6.794  20.431  0.00  0.00    +0.000 HD
BRANCH  18  26
ATOM     20  C   UNL     1       1.034   4.139  19.946  0.00  0.00    +0.000 C 
ATOM     21  C   UNL     1       2.258   4.282  19.080  0.00  0.00    +0.000 A 
ATOM     22  C   UNL     1       2.574   3.156  18.290  0.00  0.00    +0.000 A 
ATOM     23  C   UNL     1       3.674   3.158  17.437  0.00  0.00    +0.000 A 
ATOM     24  C   UNL     1       4.488   4.282  17.341  0.00  0.00    +0.000 A 
ATOM     25  C   UNL     1       4.198   5.407  18.133  0.00  0.00    +0.000 A 
ATOM     26  C   UNL     1       3.081   5.434  19.013  0.00  0.00    +0.000 A 
BRANCH  24  27
ATOM     27  C   UNL     1       5.662   4.185  16.428  0.00  0.00    +0.000 C 
ATOM     28  O   UNL     1       6.804   4.296  16.901  0.00  0.00    +0.000 OA
ATOM     29  N   UNL     1       5.433   3.914  15.095  0.00  0.00    +0.000 N 
ATOM     30  H   UNL     1       4.486   3.743  14.775  0.00  0.00    +0.000 HD
BRANCH  29  31
ATOM     31  C   UNL     1       6.506   3.752  14.162  0.00  0.00    +0.000 C 
ATOM     32  C   UNL     1       6.249   3.747  12.679  0.00  0.00    +0.000 C 
ATOM     33  C   UNL     1       6.946   4.913  13.313  0.00  0.00    +0.000 C 
ENDBRANCH  29  31
ENDBRANCH  24  27
ENDBRANCH  18  26
ENDBRANCH   1  18
TORSDOF 5
ENDMDL
MODEL 6
REMARK VINA RESULT:      -9.0      0.950      1.152
REMARK  Name = 
REMARK  6 active torsions:
REMARK  status: ('A' for Active; 'I' for Inactive)
REMARK    1  A    between atoms: C_1  and  C_2
REMARK    2  A    between atoms: C_5  and  C_6
REMARK    3  A    between atoms: N_8  and  C_9
REMARK    4  A    between atoms: C_13  and  N_14
REMARK    5  A    between atoms: N_14  and  C_15
REMARK    6  A    between atoms: N_23  and  C_24
REMARK                            x       y       z     vdW  Elec       q    Type
REMARK                         _______ _______ _______ _____ _____    ______ ____
ROOT
ATOM      1  C   UNL     1       3.898   4.114  18.753  0.00  0.00    +0.000 A 
ATOM      2  N   UNL     1       3.382   3.516  19.867  0.00  0.00    +0.000 NA
ATOM      3  N   UNL     1       2.451   4.119  20.697  0.00  0.00    +0.000 NA
ATOM      4  C   UNL     1       2.020   5.352  20.459  0.00  0.00    +0.000 A 
ATOM      5  C   UNL     1       2.615   6.070  19.433  0.00  0.00    +0.000 A 
ATOM      6  C   UNL     1       3.526   5.467  18.563  0.00  0.00    +0.000 A 
ATOM      7  C   UNL     1       3.793   6.480  17.613  0.00  0.00    +0.000 A 
ATOM      8  N   UNL     1       3.088   7.596  17.815  0.00  0.00    +0.000 NA
ATOM      9  N   UNL     1       2.419   7.365  18.976  0.00  0.00    +0.000 N 
ENDROOT
BRANCH   9  10
ATOM     10  C   UNL     1       1.634   8.387  19.572  0.00  0.00    +0.000 A 
ATOM     11  C   UNL     1       1.387   8.375  20.954  0.00  0.00    +0.000 A 
ATOM     12  C   UNL     1       0.550   9.348  21.515  0.00  0.00    +0.000 A 
ATOM     13  C   UNL     1      -0.031  10.313  20.699  0.00  0.00    +0.000 A 
ATOM     14  F   UNL     1      -0.870  11.210  21.227  0.00  0.00    +0.000 F 
ATOM     15  C   UNL     1       0.227  10.351  19.337  0.00  0.00    +0.000 A 
ATOM     16  C   UNL     1       1.056   9.390  18.785  0.00  0.00    +0.000 A 
ATOM     17  F   UNL     1       1.202   9.413  17.455  0.00  0.00    +0.000 F 
ENDBRANCH   9  10
BRANCH   1  18
ATOM     18  N   UNL     1       4.690   3.349  17.854  0.00  0.00    +0.000 N 
ATOM     19  H   UNL     1       5.091   2.530  18.303  0.00  0.00    +0.000 HD
BRANCH  18  26
ATOM     20  C   UNL     1       7.009   5.194  18.568  0.00  0.00    +0.000 C 
ATOM     21  C   UNL     1       6.627   4.764  17.175  0.00  0.00    +0.000 A 
ATOM     22  C   UNL     1       7.421   5.301  16.139  0.00  0.00    +0.000 A 
ATOM     23  C   UNL     1       7.184   4.979  14.806  0.00  0.00    +0.000 A 
ATOM     24  C   UNL     1       6.152   4.109  14.466  0.00  0.00    +0.000 A 
ATOM     25  C   UNL     1       5.342   3.577  15.483  0.00  0.00    +0.000 A 
ATOM     26  C   UNL     1       5.561   3.888  16.854  0.00  0.00    +0.000 A 
BRANCH  24  27
ATOM     27  C   UNL     1       5.949   3.845  13.013  0.00  0.00    +0.000 C 
ATOM     28  O   UNL     1       6.927   3.885  12.251  0.00  0.00    +0.000 OA
ATOM     29  N   UNL     1       4.683   3.506  12.581  0.00  0.00    +0.000 N 
ATOM     30  H   UNL     1       3.935   3.400  13.258  0.00  0.00    +0.000 HD
BRANCH  29  31
ATOM     31  C   UNL     1       4.412   3.186  11.213  0.00  0.00    +0.000 C 
ATOM     32  C   UNL     1       3.058   2.686  10.788  0.00  0.00    +0.000 C 
ATOM     33  C   UNL     1       3.502   4.065  10.401  0.00  0.00    +0.000 C 
ENDBRANCH  29  31
ENDBRANCH  24  27
ENDBRANCH  18  26
ENDBRANCH   1  18
TORSDOF 5
ENDMDL
MODEL 7
REMARK VINA RESULT:      -9.0      2.288      4.251
REMARK  Name = 
REMARK  6 active torsions:
REMARK  status: ('A' for Active; 'I' for Inactive)
REMARK    1  A    between atoms: C_1  and  C_2
REMARK    2  A    between atoms: C_5  and  C_6
REMARK    3  A    between atoms: N_8  and  C_9
REMARK    4  A    between atoms: C_13  and  N_14
REMARK    5  A    between atoms: N_14  and  C_15
REMARK    6  A    between atoms: N_23  and  C_24
REMARK                            x       y       z     vdW  Elec       q    Type
REMARK                         _______ _______ _______ _____ _____    ______ ____
ROOT
ATOM      1  C   UNL     1       1.922   7.876  19.905  0.00  0.00    +0.000 A 
ATOM      2  N   UNL     1       1.907   8.161  18.570  0.00  0.00    +0.000 NA
ATOM      3  N   UNL     1       1.460   9.366  18.050  0.00  0.00    +0.000 NA
ATOM      4  C   UNL     1       0.988  10.319  18.845  0.00  0.00    +0.000 A 
ATOM      5  C   UNL     1       0.836  10.036  20.193  0.00  0.00    +0.000 A 
ATOM      6  C   UNL     1       1.315   8.845  20.740  0.00  0.00    +0.000 A 
ATOM      7  C   UNL     1       1.078   8.999  22.126  0.00  0.00    +0.000 A 
ATOM      8  N   UNL     1       0.554  10.186  22.445  0.00  0.00    +0.000 NA
ATOM      9  N   UNL     1       0.340  10.792  21.247  0.00  0.00    +0.000 N 
ENDROOT
BRANCH   9  10
ATOM     10  C   UNL     1      -0.314  12.051  21.181  0.00  0.00    +0.000 A 
ATOM     11  C   UNL     1      -1.713  12.117  21.079  0.00  0.00    +0.000 A 
ATOM     12  C   UNL     1      -2.337  13.363  20.940  0.00  0.00    +0.000 A 
ATOM     13  C   UNL     1      -1.567  14.521  20.902  0.00  0.00    +0.000 A 
ATOM     14  F   UNL     1      -2.160  15.705  20.719  0.00  0.00    +0.000 F 
ATOM     15  C   UNL     1      -0.187  14.469  21.028  0.00  0.00    +0.000 A 
ATOM     16  C   UNL     1       0.427  13.237  21.167  0.00  0.00    +0.000 A 
ATOM     17  F   UNL     1       1.765  13.232  21.194  0.00  0.00    +0.000 F 
ENDBRANCH   9  10
BRANCH   1  18
ATOM     18  N   UNL     1       2.581   6.702  20.360  0.00  0.00    +0.000 N 
ATOM     19  H   UNL     1       3.335   6.915  21.009  0.00  0.00    +0.000 HD
BRANCH  18  26
ATOM     20  C   UNL     1       0.874   4.178  20.454  0.00  0.00    +0.000 C 
ATOM     21  C   UNL     1       2.107   4.372  19.609  0.00  0.00    +0.000 A 
ATOM     22  C   UNL     1       2.483   3.259  18.827  0.00  0.00    +0.000 A 
ATOM     23  C   UNL     1       3.597   3.305  17.993  0.00  0.00    +0.000 A 
ATOM     24  C   UNL     1       4.365   4.462  17.910  0.00  0.00    +0.000 A 
ATOM     25  C   UNL     1       4.014   5.575  18.694  0.00  0.00    +0.000 A 
ATOM     26  C   UNL     1       2.882   5.556  19.555  0.00  0.00    +0.000 A 
BRANCH  24  27
ATOM     27  C   UNL     1       5.558   4.413  17.018  0.00  0.00    +0.000 C 
ATOM     28  O   UNL     1       6.661   4.760  17.468  0.00  0.00    +0.000 OA
ATOM     29  N   UNL     1       5.398   3.924  15.738  0.00  0.00    +0.000 N 
ATOM     30  H   UNL     1       4.493   3.569  15.448  0.00  0.00    +0.000 HD
BRANCH  29  31
ATOM     31  C   UNL     1       6.500   3.793  14.836  0.00  0.00    +0.000 C 
ATOM     32  C   UNL     1       6.299   3.885  13.348  0.00  0.00    +0.000 C 
ATOM     33  C   UNL     1       6.998   4.993  14.077  0.00  0.00    +0.000 C 
ENDBRANCH  29  31
ENDBRANCH  24  27
ENDBRANCH  18  26
ENDBRANCH   1  18
TORSDOF 5
ENDMDL
MODEL 8
REMARK VINA RESULT:      -8.9      1.487      2.080
REMARK  Name = 
REMARK  6 active torsions:
REMARK  status: ('A' for Active; 'I' for Inactive)
REMARK    1  A    between atoms: C_1  and  C_2
REMARK    2  A    between atoms: C_5  and  C_6
REMARK    3  A    between atoms: N_8  and  C_9
REMARK    4  A    between atoms: C_13  and  N_14
REMARK    5  A    between atoms: N_14  and  C_15
REMARK    6  A    between atoms: N_23  and  C_24
REMARK                            x       y       z     vdW  Elec       q    Type
REMARK                         _______ _______ _______ _____ _____    ______ ____
ROOT
ATOM      1  C   UNL     1       4.018   3.996  18.084  0.00  0.00    +0.000 A 
ATOM      2  N   UNL     1       3.011   3.250  18.628  0.00  0.00    +0.000 NA
ATOM      3  N   UNL     1       1.798   3.783  19.032  0.00  0.00    +0.000 NA
ATOM      4  C   UNL     1       1.556   5.085  18.931  0.00  0.00    +0.000 A 
ATOM      5  C   UNL     1       2.589   5.917  18.529  0.00  0.00    +0.000 A 
ATOM      6  C   UNL     1       3.804   5.396  18.082  0.00  0.00    +0.000 A 
ATOM      7  C   UNL     1       4.519   6.541  17.660  0.00  0.00    +0.000 A 
ATOM      8  N   UNL     1       3.818   7.673  17.770  0.00  0.00    +0.000 NA
ATOM      9  N   UNL     1       2.660   7.294  18.372  0.00  0.00    +0.000 N 
ENDROOT
BRANCH   9  10
ATOM     10  C   UNL     1       1.694   8.262  18.753  0.00  0.00    +0.000 A 
ATOM     11  C   UNL     1       1.084   9.074  17.782  0.00  0.00    +0.000 A 
ATOM     12  C   UNL     1       0.188  10.074  18.181  0.00  0.00    +0.000 A 
ATOM     13  C   UNL     1      -0.087  10.256  19.533  0.00  0.00    +0.000 A 
ATOM     14  F   UNL     1      -0.903  11.243  19.916  0.00  0.00    +0.000 F 
ATOM     15  C   UNL     1       0.489   9.443  20.497  0.00  0.00    +0.000 A 
ATOM     16  C   UNL     1       1.372   8.455  20.101  0.00  0.00    +0.000 A 
ATOM     17  F   UNL     1       1.971   7.757  21.073  0.00  0.00    +0.000 F 
ENDBRANCH   9  10
BRANCH   1  18
ATOM     18  N   UNL     1       5.143   3.339  17.514  0.00  0.00    +0.000 N 
ATOM     19  H   UNL     1       5.734   2.914  18.224  0.00  0.00    +0.000 HD
BRANCH  18  26
ATOM     20  C   UNL     1       7.521   5.208  17.887  0.00  0.00    +0.000 C 
ATOM     21  C   UNL     1       7.000   4.706  16.566  0.00  0.00    +0.000 A 
ATOM     22  C   UNL     1       7.683   5.183  15.426  0.00  0.00    +0.000 A 
ATOM     23  C   UNL     1       7.311   4.790  14.144  0.00  0.00    +0.000 A 
ATOM     24  C   UNL     1       6.251   3.908  13.958  0.00  0.00    +0.000 A 
ATOM     25  C   UNL     1       5.549   3.436  15.081  0.00  0.00    +0.000 A 
ATOM     26  C   UNL     1       5.907   3.819  16.403  0.00  0.00    +0.000 A 
BRANCH  24  27
ATOM     27  C   UNL     1       5.899   3.568  12.550  0.00  0.00    +0.000 C 
ATOM     28  O   UNL     1       6.805   3.247  11.765  0.00  0.00    +0.000 OA
ATOM     29  N   UNL     1       4.568   3.565  12.191  0.00  0.00    +0.000 N 
ATOM     30  H   UNL     1       3.859   3.748  12.894  0.00  0.00    +0.000 HD
BRANCH  29  31
ATOM     31  C   UNL     1       4.141   3.198  10.875  0.00  0.00    +0.000 C 
ATOM     32  C   UNL     1       2.708   2.831  10.600  0.00  0.00    +0.000 C 
ATOM     33  C   UNL     1       3.260   4.126  10.085  0.00  0.00    +0.000 C 
ENDBRANCH  29  31
ENDBRANCH  24  27
ENDBRANCH  18  26
ENDBRANCH   1  18
TORSDOF 5
ENDMDL
MODEL 9
REMARK VINA RESULT:      -8.9      2.610      4.724
REMARK  Name = 
REMARK  6 active torsions:
REMARK  status: ('A' for Active; 'I' for Inactive)
REMARK    1  A    between atoms: C_1  and  C_2
REMARK    2  A    between atoms: C_5  and  C_6
REMARK    3  A    between atoms: N_8  and  C_9
REMARK    4  A    between atoms: C_13  and  N_14
REMARK    5  A    between atoms: N_14  and  C_15
REMARK    6  A    between atoms: N_23  and  C_24
REMARK                            x       y       z     vdW  Elec       q    Type
REMARK                         _______ _______ _______ _____ _____    ______ ____
ROOT
ATOM      1  C   UNL     1       1.423   8.425  20.402  0.00  0.00    +0.000 A 
ATOM      2  N   UNL     1       1.235   8.920  19.143  0.00  0.00    +0.000 NA
ATOM      3  N   UNL     1       0.613  10.130  18.882  0.00  0.00    +0.000 NA
ATOM      4  C   UNL     1       0.133  10.878  19.869  0.00  0.00    +0.000 A 
ATOM      5  C   UNL     1       0.157  10.364  21.155  0.00  0.00    +0.000 A 
ATOM      6  C   UNL     1       0.813   9.166  21.443  0.00  0.00    +0.000 A 
ATOM      7  C   UNL     1       0.711   9.064  22.850  0.00  0.00    +0.000 A 
ATOM      8  N   UNL     1       0.105  10.112  23.415  0.00  0.00    +0.000 NA
ATOM      9  N   UNL     1      -0.298  10.874  22.364  0.00  0.00    +0.000 N 
ENDROOT
BRANCH   9  10
ATOM     10  C   UNL     1      -1.082  12.038  22.575  0.00  0.00    +0.000 A 
ATOM     11  C   UNL     1      -2.421  11.926  22.986  0.00  0.00    +0.000 A 
ATOM     12  C   UNL     1      -3.201  13.081  23.118  0.00  0.00    +0.000 A 
ATOM     13  C   UNL     1      -2.647  14.326  22.839  0.00  0.00    +0.000 A 
ATOM     14  F   UNL     1      -3.407  15.423  22.917  0.00  0.00    +0.000 F 
ATOM     15  C   UNL     1      -1.319  14.451  22.459  0.00  0.00    +0.000 A 
ATOM     16  C   UNL     1      -0.549  13.308  22.330  0.00  0.00    +0.000 A 
ATOM     17  F   UNL     1       0.699  13.472  21.873  0.00  0.00    +0.000 F 
ENDBRANCH   9  10
BRANCH   1  18
ATOM     18  N   UNL     1       2.245   7.280  20.586  0.00  0.00    +0.000 N 
ATOM     19  H   UNL     1       3.050   7.480  21.174  0.00  0.00    +0.000 HD
BRANCH  18  26
ATOM     20  C   UNL     1       1.004   4.497  20.605  0.00  0.00    +0.000 C 
ATOM     21  C   UNL     1       1.997   5.007  19.592  0.00  0.00    +0.000 A 
ATOM     22  C   UNL     1       2.376   4.080  18.598  0.00  0.00    +0.000 A 
ATOM     23  C   UNL     1       3.279   4.424  17.596  0.00  0.00    +0.000 A 
ATOM     24  C   UNL     1       3.826   5.703  17.551  0.00  0.00    +0.000 A 
ATOM     25  C   UNL     1       3.472   6.634  18.542  0.00  0.00    +0.000 A 
ATOM     26  C   UNL     1       2.552   6.311  19.578  0.00  0.00    +0.000 A 
BRANCH  24  27
ATOM     27  C   UNL     1       4.809   5.975  16.463  0.00  0.00    +0.000 C 
ATOM     28  O   UNL     1       5.456   7.033  16.488  0.00  0.00    +0.000 OA
ATOM     29  N   UNL     1       5.003   5.006  15.500  0.00  0.00    +0.000 N 
ATOM     30  H   UNL     1       4.513   4.121  15.575  0.00  0.00    +0.000 HD
BRANCH  29  31
ATOM     31  C   UNL     1       5.964   5.164  14.453  0.00  0.00    +0.000 C 
ATOM     32  C   UNL     1       7.320   4.518  14.541  0.00  0.00    +0.000 C 
ATOM     33  C   UNL     1       6.307   4.000  13.565  0.00  0.00    +0.000 C 
ENDBRANCH  29  31
ENDBRANCH  24  27
ENDBRANCH  18  26
ENDBRANCH   1  18
TORSDOF 5
ENDMDL
