MODEL 1
REMARK VINA RESULT:      -7.6      0.000      0.000
REMARK  Name = 
REMARK  4 active torsions:
REMARK  status: ('A' for Active; 'I' for Inactive)
REMARK    1  A    between atoms: C_2  and  O_3
REMARK    2  A    between atoms: C_2  and  C_4
REMARK    3  A    between atoms: C_7  and  C_8
REMARK    4  A    between atoms: C_11  and  C_12
REMARK                            x       y       z     vdW  Elec       q    Type
REMARK                         _______ _______ _______ _____ _____    ______ ____
ROOT
ATOM      1  C   UNL     1      -2.133  14.796  20.599  0.00  0.00    +0.000 C 
ATOM      2  N   UNL     1      -1.744  15.973  21.432  0.00  0.00    +0.000 NA
ATOM      3  C   UNL     1      -0.494  15.660  22.185  0.00  0.00    +0.000 C 
ATOM      4  C   UNL     1       0.312  14.341  21.799  0.00  0.00    +0.000 C 
ATOM      5  C   UNL     1       0.521  14.660  20.400  0.00  0.00    +0.000 A 
ATOM      6  C   UNL     1      -0.650  14.534  19.698  0.00  0.00    +0.000 A 
ATOM      7  N   UNL     1       0.051  13.690  18.724  0.00  0.00    +0.000 N 
ATOM      8  C   UNL     1       1.460  14.000  18.742  0.00  0.00    +0.000 A 
ATOM      9  C   UNL     1       2.700  13.415  18.376  0.00  0.00    +0.000 A 
ATOM     10  C   UNL     1       3.854  14.242  18.431  0.00  0.00    +0.000 A 
ATOM     11  C   UNL     1       3.763  15.573  18.832  0.00  0.00    +0.000 A 
ATOM     12  C   UNL     1       2.595  16.006  19.465  0.00  0.00    +0.000 A 
ATOM     13  C   UNL     1       1.478  15.149  19.510  0.00  0.00    +0.000 A 
ATOM     14  H   UNL     1      -2.483  16.144  22.115  0.00  0.00    +0.000 HD
ATOM     15  H   UNL     1      -0.268  12.780  18.426  0.00  0.00    +0.000 HD
ENDROOT
BRANCH   4  16
ATOM     16  C   UNL     1      -0.175  12.690  21.704  0.00  0.00    +0.000 A 
ATOM     17  C   UNL     1      -1.086  12.329  22.703  0.00  0.00    +0.000 A 
ATOM     18  C   UNL     1      -1.275  10.973  23.080  0.00  0.00    +0.000 A 
ATOM     19  C   UNL     1      -0.507   9.948  22.596  0.00  0.00    +0.000 A 
ATOM     20  C   UNL     1       0.325  10.213  21.539  0.00  0.00    +0.000 A 
ATOM     21  C   UNL     1       0.351  11.509  20.992  0.00  0.00    +0.000 A 
ATOM     22 CL   UNL     1       0.842  11.243  19.297  0.00  0.00    +0.000 Cl
ENDBRANCH   4  16
BRANCH   1  26
ATOM     23  C   UNL     1      -5.516  13.152  23.228  0.00  0.00    +0.000 A 
ATOM     24  C   UNL     1      -5.118  12.544  22.032  0.00  0.00    +0.000 A 
ATOM     25  C   UNL     1      -3.924  12.960  21.339  0.00  0.00    +0.000 A 
ATOM     26  C   UNL     1      -3.067  14.010  21.784  0.00  0.00    +0.000 A 
ATOM     27  C   UNL     1      -3.520  14.566  23.020  0.00  0.00    +0.000 A 
ATOM     28  C   UNL     1      -4.686  14.147  23.727  0.00  0.00    +0.000 A 
BRANCH  23  30
ATOM     29  O   UNL     1      -7.243  11.689  24.077  0.00  0.00    +0.000 OA
ATOM     30  C   UNL     1      -6.767  12.825  24.008  0.00  0.00    +0.000 C 
BRANCH  30  31
ATOM     31  O   UNL     1      -7.261  13.871  24.698  0.00  0.00    +0.000 OA
ATOM     32  H   UNL     1      -8.133  14.193  24.439  0.00  0.00    +0.000 HD
ENDBRANCH  30  31
ENDBRANCH  23  30
ENDBRANCH   1  26
TORSDOF 4
ENDMDL
MODEL 2
REMARK VINA RESULT:      -7.5      4.585      7.078
REMARK  Name = 
REMARK  4 active torsions:
REMARK  status: ('A' for Active; 'I' for Inactive)
REMARK    1  A    between atoms: C_2  and  O_3
REMARK    2  A    between atoms: C_2  and  C_4
REMARK    3  A    between atoms: C_7  and  C_8
REMARK    4  A    between atoms: C_11  and  C_12
REMARK                            x       y       z     vdW  Elec       q    Type
REMARK                         _______ _______ _______ _____ _____    ______ ____
ROOT
ATOM      1  C   UNL     1       0.851  11.886  20.405  0.00  0.00    +0.000 C 
ATOM      2  N   UNL     1       1.820  12.699  19.611  0.00  0.00    +0.000 NA
ATOM      3  C   UNL     1       1.109  13.350  18.471  0.00  0.00    +0.000 C 
ATOM      4  C   UNL     1      -0.483  13.305  18.447  0.00  0.00    +0.000 C 
ATOM      5  C   UNL     1      -0.701  13.945  19.730  0.00  0.00    +0.000 A 
ATOM      6  C   UNL     1      -0.374  13.093  20.754  0.00  0.00    +0.000 A 
ATOM      7  N   UNL     1      -1.681  13.363  21.365  0.00  0.00    +0.000 N 
ATOM      8  C   UNL     1      -2.162  14.650  20.927  0.00  0.00    +0.000 A 
ATOM      9  C   UNL     1      -3.380  15.368  20.818  0.00  0.00    +0.000 A 
ATOM     10  C   UNL     1      -3.301  16.746  20.478  0.00  0.00    +0.000 A 
ATOM     11  C   UNL     1      -2.069  17.359  20.260  0.00  0.00    +0.000 A 
ATOM     12  C   UNL     1      -0.940  16.554  20.080  0.00  0.00    +0.000 A 
ATOM     13  C   UNL     1      -1.039  15.169  20.311  0.00  0.00    +0.000 A 
ATOM     14  H   UNL     1       2.525  12.073  19.220  0.00  0.00    +0.000 HD
ATOM     15  H   UNL     1      -2.329  12.647  21.658  0.00  0.00    +0.000 HD
ENDROOT
BRANCH   4  16
ATOM     16  C   UNL     1      -1.591  11.987  18.530  0.00  0.00    +0.000 A 
ATOM     17  C   UNL     1      -1.089  10.812  17.961  0.00  0.00    +0.000 A 
ATOM     18  C   UNL     1      -1.951   9.768  17.531  0.00  0.00    +0.000 A 
ATOM     19  C   UNL     1      -3.316   9.880  17.525  0.00  0.00    +0.000 A 
ATOM     20  C   UNL     1      -3.875  10.955  18.167  0.00  0.00    +0.000 A 
ATOM     21  C   UNL     1      -3.037  11.885  18.809  0.00  0.00    +0.000 A 
ATOM     22 CL   UNL     1      -4.066  12.558  20.103  0.00  0.00    +0.000 Cl
ENDBRANCH   4  16
BRANCH   1  26
ATOM     23  C   UNL     1       2.253   7.912  18.589  0.00  0.00    +0.000 A 
ATOM     24  C   UNL     1       1.556   7.992  19.799  0.00  0.00    +0.000 A 
ATOM     25  C   UNL     1       0.951   9.224  20.239  0.00  0.00    +0.000 A 
ATOM     26  C   UNL     1       1.014  10.449  19.510  0.00  0.00    +0.000 A 
ATOM     27  C   UNL     1       1.716  10.287  18.277  0.00  0.00    +0.000 A 
ATOM     28  C   UNL     1       2.299   9.067  17.820  0.00  0.00    +0.000 A 
BRANCH  23  30
ATOM     29  O   UNL     1       2.474   5.555  18.101  0.00  0.00    +0.000 OA
ATOM     30  C   UNL     1       2.959   6.688  18.059  0.00  0.00    +0.000 C 
BRANCH  30  31
ATOM     31  O   UNL     1       4.130   6.962  17.451  0.00  0.00    +0.000 OA
ATOM     32  H   UNL     1       4.125   6.994  16.486  0.00  0.00    +0.000 HD
ENDBRANCH  30  31
ENDBRANCH  23  30
ENDBRANCH   1  26
TORSDOF 4
ENDMDL
MODEL 3
REMARK VINA RESULT:      -7.2      4.159      7.558
REMARK  Name = 
REMARK  4 active torsions:
REMARK  status: ('A' for Active; 'I' for Inactive)
REMARK    1  A    between atoms: C_2  and  O_3
REMARK    2  A    between atoms: C_2  and  C_4
REMARK    3  A    between atoms: C_7  and  C_8
REMARK    4  A    between atoms: C_11  and  C_12
REMARK                            x       y       z     vdW  Elec       q    Type
REMARK                         _______ _______ _______ _____ _____    ______ ____
ROOT
ATOM      1  C   UNL     1      -2.024  12.650  21.962  0.00  0.00    +0.000 C 
ATOM      2  N   UNL     1      -1.550  14.060  21.833  0.00  0.00    +0.000 NA
ATOM      3  C   UNL     1      -2.543  14.849  21.046  0.00  0.00    +0.000 C 
ATOM      4  C   UNL     1      -3.960  14.190  20.738  0.00  0.00    +0.000 C 
ATOM      5  C   UNL     1      -4.348  13.944  22.113  0.00  0.00    +0.000 A 
ATOM      6  C   UNL     1      -3.622  12.906  22.640  0.00  0.00    +0.000 A 
ATOM      7  N   UNL     1      -4.876  12.281  23.076  0.00  0.00    +0.000 N 
ATOM      8  C   UNL     1      -5.889  13.294  23.239  0.00  0.00    +0.000 A 
ATOM      9  C   UNL     1      -7.302  13.411  23.287  0.00  0.00    +0.000 A 
ATOM     10  C   UNL     1      -7.843  14.668  23.671  0.00  0.00    +0.000 A 
ATOM     11  C   UNL     1      -7.009  15.740  23.984  0.00  0.00    +0.000 A 
ATOM     12  C   UNL     1      -5.659  15.667  23.631  0.00  0.00    +0.000 A 
ATOM     13  C   UNL     1      -5.139  14.451  23.146  0.00  0.00    +0.000 A 
ATOM     14  H   UNL     1      -0.672  14.060  21.312  0.00  0.00    +0.000 HD
ATOM     15  H   UNL     1      -5.135  11.326  22.876  0.00  0.00    +0.000 HD
ENDROOT
BRANCH   4  16
ATOM     16  C   UNL     1      -4.389  12.697  19.990  0.00  0.00    +0.000 A 
ATOM     17  C   UNL     1      -3.400  12.212  19.128  0.00  0.00    +0.000 A 
ATOM     18  C   UNL     1      -3.701  11.273  18.106  0.00  0.00    +0.000 A 
ATOM     19  C   UNL     1      -4.977  10.874  17.810  0.00  0.00    +0.000 A 
ATOM     20  C   UNL     1      -5.978  11.223  18.679  0.00  0.00    +0.000 A 
ATOM     21  C   UNL     1      -5.659  11.960  19.834  0.00  0.00    +0.000 A 
ATOM     22 CL   UNL     1      -6.939  11.506  20.992  0.00  0.00    +0.000 Cl
ENDBRANCH   4  16
BRANCH   1  26
ATOM     23  C   UNL     1       0.788  10.947  18.760  0.00  0.00    +0.000 A 
ATOM     24  C   UNL     1       0.070  10.140  19.648  0.00  0.00    +0.000 A 
ATOM     25  C   UNL     1      -0.957  10.688  20.499  0.00  0.00    +0.000 A 
ATOM     26  C   UNL     1      -1.319  12.068  20.527  0.00  0.00    +0.000 A 
ATOM     27  C   UNL     1      -0.565  12.825  19.580  0.00  0.00    +0.000 A 
ATOM     28  C   UNL     1       0.438  12.290  18.716  0.00  0.00    +0.000 A 
BRANCH  23  30
ATOM     29  O   UNL     1       2.104   9.301  17.576  0.00  0.00    +0.000 OA
ATOM     30  C   UNL     1       1.909  10.485  17.860  0.00  0.00    +0.000 C 
BRANCH  30  31
ATOM     31  O   UNL     1       2.620  11.495  17.322  0.00  0.00    +0.000 OA
ATOM     32  H   UNL     1       2.185  12.022  16.640  0.00  0.00    +0.000 HD
ENDBRANCH  30  31
ENDBRANCH  23  30
ENDBRANCH   1  26
TORSDOF 4
ENDMDL
MODEL 4
REMARK VINA RESULT:      -7.1      4.201      7.238
REMARK  Name = 
REMARK  4 active torsions:
REMARK  status: ('A' for Active; 'I' for Inactive)
REMARK    1  A    between atoms: C_2  and  O_3
REMARK    2  A    between atoms: C_2  and  C_4
REMARK    3  A    between atoms: C_7  and  C_8
REMARK    4  A    between atoms: C_11  and  C_12
REMARK                            x       y       z     vdW  Elec       q    Type
REMARK                         _______ _______ _______ _____ _____    ______ ____
ROOT
ATOM      1  C   UNL     1      -1.242  11.995  22.447  0.00  0.00    +0.000 C 
ATOM      2  N   UNL     1      -0.342  13.185  22.423  0.00  0.00    +0.000 NA
ATOM      3  C   UNL     1      -0.990  14.286  21.651  0.00  0.00    +0.000 C 
ATOM      4  C   UNL     1      -2.525  14.128  21.252  0.00  0.00    +0.000 C 
ATOM      5  C   UNL     1      -3.043  13.953  22.595  0.00  0.00    +0.000 A 
ATOM      6  C   UNL     1      -2.712  12.714  23.082  0.00  0.00    +0.000 A 
ATOM      7  N   UNL     1      -4.120  12.501  23.433  0.00  0.00    +0.000 N 
ATOM      8  C   UNL     1      -4.769  13.775  23.622  0.00  0.00    +0.000 A 
ATOM      9  C   UNL     1      -6.073  14.334  23.626  0.00  0.00    +0.000 A 
ATOM     10  C   UNL     1      -6.209  15.677  24.068  0.00  0.00    +0.000 A 
ATOM     11  C   UNL     1      -5.097  16.412  24.476  0.00  0.00    +0.000 A 
ATOM     12  C   UNL     1      -3.822  15.930  24.168  0.00  0.00    +0.000 A 
ATOM     13  C   UNL     1      -3.688  14.636  23.628  0.00  0.00    +0.000 A 
ATOM     14  H   UNL     1       0.519  12.930  21.935  0.00  0.00    +0.000 HD
ATOM     15  H   UNL     1      -4.656  11.689  23.165  0.00  0.00    +0.000 HD
ENDROOT
BRANCH   4  16
ATOM     16  C   UNL     1      -3.362  12.886  20.398  0.00  0.00    +0.000 A 
ATOM     17  C   UNL     1      -2.558  12.226  19.463  0.00  0.00    +0.000 A 
ATOM     18  C   UNL     1      -3.122  11.504  18.378  0.00  0.00    +0.000 A 
ATOM     19  C   UNL     1      -4.462  11.503  18.096  0.00  0.00    +0.000 A 
ATOM     20  C   UNL     1      -5.315  12.036  19.028  0.00  0.00    +0.000 A 
ATOM     21  C   UNL     1      -4.789  12.548  20.228  0.00  0.00    +0.000 A 
ATOM     22 CL   UNL     1      -6.131  12.363  21.390  0.00  0.00    +0.000 Cl
ENDBRANCH   4  16
BRANCH   1  26
ATOM     23  C   UNL     1       1.087   9.683  19.239  0.00  0.00    +0.000 A 
ATOM     24  C   UNL     1       0.144   9.079  20.079  0.00  0.00    +0.000 A 
ATOM     25  C   UNL     1      -0.717   9.863  20.929  0.00  0.00    +0.000 A 
ATOM     26  C   UNL     1      -0.682  11.288  21.005  0.00  0.00    +0.000 A 
ATOM     27  C   UNL     1       0.283  11.835  20.106  0.00  0.00    +0.000 A 
ATOM     28  C   UNL     1       1.125  11.071  19.243  0.00  0.00    +0.000 A 
BRANCH  23  30
ATOM     29  O   UNL     1       2.548   7.858  18.627  0.00  0.00    +0.000 OA
ATOM     30  C   UNL     1       2.063   8.957  18.346  0.00  0.00    +0.000 C 
BRANCH  30  31
ATOM     31  O   UNL     1       2.284   9.578  17.171  0.00  0.00    +0.000 OA
ATOM     32  H   UNL     1       1.921  10.466  17.070  0.00  0.00    +0.000 HD
ENDBRANCH  30  31
ENDBRANCH  23  30
ENDBRANCH   1  26
TORSDOF 4
ENDMDL
MODEL 5
REMARK VINA RESULT:      -6.9      1.033      1.114
REMARK  Name = 
REMARK  4 active torsions:
REMARK  status: ('A' for Active; 'I' for Inactive)
REMARK    1  A    between atoms: C_2  and  O_3
REMARK    2  A    between atoms: C_2  and  C_4
REMARK    3  A    between atoms: C_7  and  C_8
REMARK    4  A    between atoms: C_11  and  C_12
REMARK                            x       y       z     vdW  Elec       q    Type
REMARK                         _______ _______ _______ _____ _____    ______ ____
ROOT
ATOM      1  C   UNL     1      -2.637  13.854  19.941  0.00  0.00    +0.000 C 
ATOM      2  N   UNL     1      -2.397  15.114  20.705  0.00  0.00    +0.000 NA
ATOM      3  C   UNL     1      -1.197  14.947  21.578  0.00  0.00    +0.000 C 
ATOM      4  C   UNL     1      -0.279  13.664  21.364  0.00  0.00    +0.000 C 
ATOM      5  C   UNL     1       0.027  13.892  19.965  0.00  0.00    +0.000 A 
ATOM      6  C   UNL     1      -1.069  13.631  19.184  0.00  0.00    +0.000 A 
ATOM      7  N   UNL     1      -0.235  12.769  18.340  0.00  0.00    +0.000 N 
ATOM      8  C   UNL     1       1.144  13.178  18.446  0.00  0.00    +0.000 A 
ATOM      9  C   UNL     1       2.446  12.658  18.227  0.00  0.00    +0.000 A 
ATOM     10  C   UNL     1       3.536  13.565  18.307  0.00  0.00    +0.000 A 
ATOM     11  C   UNL     1       3.326  14.913  18.593  0.00  0.00    +0.000 A 
ATOM     12  C   UNL     1       2.082  15.308  19.094  0.00  0.00    +0.000 A 
ATOM     13  C   UNL     1       1.024  14.380  19.118  0.00  0.00    +0.000 A 
ATOM     14  H   UNL     1      -3.200  15.283  21.312  0.00  0.00    +0.000 HD
ATOM     15  H   UNL     1      -0.469  11.819  18.091  0.00  0.00    +0.000 HD
ENDROOT
BRANCH   4  16
ATOM     16  C   UNL     1      -0.649  11.979  21.363  0.00  0.00    +0.000 A 
ATOM     17  C   UNL     1      -0.659  11.420  22.645  0.00  0.00    +0.000 A 
ATOM     18  C   UNL     1      -0.504  10.023  22.846  0.00  0.00    +0.000 A 
ATOM     19  C   UNL     1      -0.213   9.149  21.832  0.00  0.00    +0.000 A 
ATOM     20  C   UNL     1      -0.297   9.609  20.544  0.00  0.00    +0.000 A 
ATOM     21  C   UNL     1      -0.684  10.942  20.313  0.00  0.00    +0.000 A 
ATOM     22 CL   UNL     1      -1.427  10.892  18.691  0.00  0.00    +0.000 Cl
ENDBRANCH   4  16
BRANCH   1  26
ATOM     23  C   UNL     1      -5.988  12.659  22.839  0.00  0.00    +0.000 A 
ATOM     24  C   UNL     1      -5.996  12.315  21.483  0.00  0.00    +0.000 A 
ATOM     25  C   UNL     1      -4.840  12.522  20.648  0.00  0.00    +0.000 A 
ATOM     26  C   UNL     1      -3.616  13.095  21.107  0.00  0.00    +0.000 A 
ATOM     27  C   UNL     1      -3.671  13.397  22.501  0.00  0.00    +0.000 A 
ATOM     28  C   UNL     1      -4.802  13.175  23.343  0.00  0.00    +0.000 A 
BRANCH  23  30
ATOM     29  O   UNL     1      -7.834  11.501  23.886  0.00  0.00    +0.000 OA
ATOM     30  C   UNL     1      -7.155  12.526  23.788  0.00  0.00    +0.000 C 
BRANCH  30  31
ATOM     31  O   UNL     1      -7.327  13.598  24.585  0.00  0.00    +0.000 OA
ATOM     32  H   UNL     1      -8.018  13.539  25.256  0.00  0.00    +0.000 HD
ENDBRANCH  30  31
ENDBRANCH  23  30
ENDBRANCH   1  26
TORSDOF 4
ENDMDL
MODEL 6
REMARK VINA RESULT:      -6.7      4.264      6.813
REMARK  Name = 
REMARK  4 active torsions:
REMARK  status: ('A' for Active; 'I' for Inactive)
REMARK    1  A    between atoms: C_2  and  O_3
REMARK    2  A    between atoms: C_2  and  C_4
REMARK    3  A    between atoms: C_7  and  C_8
REMARK    4  A    between atoms: C_11  and  C_12
REMARK                            x       y       z     vdW  Elec       q    Type
REMARK                         _______ _______ _______ _____ _____    ______ ____
ROOT
ATOM      1  C   UNL     1      -0.244  11.728  21.524  0.00  0.00    +0.000 C 
ATOM      2  N   UNL     1       0.934  12.538  21.095  0.00  0.00    +0.000 NA
ATOM      3  C   UNL     1       0.616  13.245  19.820  0.00  0.00    +0.000 C 
ATOM      4  C   UNL     1      -0.895  13.248  19.313  0.00  0.00    +0.000 C 
ATOM      5  C   UNL     1      -1.480  13.852  20.494  0.00  0.00    +0.000 A 
ATOM      6  C   UNL     1      -1.495  12.959  21.535  0.00  0.00    +0.000 A 
ATOM      7  N   UNL     1      -2.921  13.246  21.731  0.00  0.00    +0.000 N 
ATOM      8  C   UNL     1      -3.223  14.560  21.220  0.00  0.00    +0.000 A 
ATOM      9  C   UNL     1      -4.338  15.317  20.775  0.00  0.00    +0.000 A 
ATOM     10  C   UNL     1      -4.134  16.702  20.531  0.00  0.00    +0.000 A 
ATOM     11  C   UNL     1      -2.883  17.285  20.720  0.00  0.00    +0.000 A 
ATOM     12  C   UNL     1      -1.767  16.454  20.859  0.00  0.00    +0.000 A 
ATOM     13  C   UNL     1      -1.957  15.066  20.994  0.00  0.00    +0.000 A 
ATOM     14  H   UNL     1       1.713  11.904  20.911  0.00  0.00    +0.000 HD
ATOM     15  H   UNL     1      -3.641  12.540  21.785  0.00  0.00    +0.000 HD
ENDROOT
BRANCH   4  16
ATOM     16  C   UNL     1      -2.000  11.961  19.004  0.00  0.00    +0.000 A 
ATOM     17  C   UNL     1      -1.381  10.823  18.475  0.00  0.00    +0.000 A 
ATOM     18  C   UNL     1      -2.118   9.844  17.756  0.00  0.00    +0.000 A 
ATOM     19  C   UNL     1      -3.438   9.997  17.423  0.00  0.00    +0.000 A 
ATOM     20  C   UNL     1      -4.130  11.030  18.000  0.00  0.00    +0.000 A 
ATOM     21  C   UNL     1      -3.470  11.878  18.908  0.00  0.00    +0.000 A 
ATOM     22 CL   UNL     1      -4.783  12.471  19.963  0.00  0.00    +0.000 Cl
ENDBRANCH   4  16
BRANCH   1  26
ATOM     23  C   UNL     1       1.662   7.848  19.985  0.00  0.00    +0.000 A 
ATOM     24  C   UNL     1       0.731   7.876  21.029  0.00  0.00    +0.000 A 
ATOM     25  C   UNL     1      -0.002   9.075  21.351  0.00  0.00    +0.000 A 
ATOM     26  C   UNL     1       0.157  10.316  20.664  0.00  0.00    +0.000 A 
ATOM     27  C   UNL     1       1.101  10.207  19.598  0.00  0.00    +0.000 A 
ATOM     28  C   UNL     1       1.815   9.019  19.256  0.00  0.00    +0.000 A 
BRANCH  23  30
ATOM     29  O   UNL     1       3.003   6.522  18.473  0.00  0.00    +0.000 OA
ATOM     30  C   UNL     1       2.511   6.663  19.595  0.00  0.00    +0.000 C 
BRANCH  30  31
ATOM     31  O   UNL     1       2.761   5.819  20.616  0.00  0.00    +0.000 OA
ATOM     32  H   UNL     1       3.686   5.685  20.857  0.00  0.00    +0.000 HD
ENDBRANCH  30  31
ENDBRANCH  23  30
ENDBRANCH   1  26
TORSDOF 4
ENDMDL
MODEL 7
REMARK VINA RESULT:      -6.7      4.077      6.371
REMARK  Name = 
REMARK  4 active torsions:
REMARK  status: ('A' for Active; 'I' for Inactive)
REMARK    1  A    between atoms: C_2  and  O_3
REMARK    2  A    between atoms: C_2  and  C_4
REMARK    3  A    between atoms: C_7  and  C_8
REMARK    4  A    between atoms: C_11  and  C_12
REMARK                            x       y       z     vdW  Elec       q    Type
REMARK                         _______ _______ _______ _____ _____    ______ ____
ROOT
ATOM      1  C   UNL     1       1.084  12.571  20.602  0.00  0.00    +0.000 C 
ATOM      2  N   UNL     1       2.166  12.858  19.614  0.00  0.00    +0.000 NA
ATOM      3  C   UNL     1       1.559  13.240  18.306  0.00  0.00    +0.000 C 
ATOM      4  C   UNL     1      -0.006  13.530  18.255  0.00  0.00    +0.000 C 
ATOM      5  C   UNL     1      -0.028  14.582  19.253  0.00  0.00    +0.000 A 
ATOM      6  C   UNL     1       0.158  14.059  20.507  0.00  0.00    +0.000 A 
ATOM      7  N   UNL     1      -1.035  14.783  20.961  0.00  0.00    +0.000 N 
ATOM      8  C   UNL     1      -1.253  15.931  20.115  0.00  0.00    +0.000 A 
ATOM      9  C   UNL     1      -2.297  16.817  19.745  0.00  0.00    +0.000 A 
ATOM     10  C   UNL     1      -1.945  17.960  18.978  0.00  0.00    +0.000 A 
ATOM     11  C   UNL     1      -0.622  18.192  18.605  0.00  0.00    +0.000 A 
ATOM     12  C   UNL     1       0.303  17.152  18.728  0.00  0.00    +0.000 A 
ATOM     13  C   UNL     1      -0.075  15.970  19.394  0.00  0.00    +0.000 A 
ATOM     14  H   UNL     1       2.706  12.003  19.468  0.00  0.00    +0.000 HD
ATOM     15  H   UNL     1      -1.806  14.356  21.453  0.00  0.00    +0.000 HD
ENDROOT
BRANCH   4  16
ATOM     16  C   UNL     1      -1.363  12.579  18.731  0.00  0.00    +0.000 A 
ATOM     17  C   UNL     1      -1.896  11.820  17.683  0.00  0.00    +0.000 A 
ATOM     18  C   UNL     1      -3.226  11.326  17.727  0.00  0.00    +0.000 A 
ATOM     19  C   UNL     1      -4.113  11.653  18.718  0.00  0.00    +0.000 A 
ATOM     20  C   UNL     1      -3.629  12.299  19.826  0.00  0.00    +0.000 A 
ATOM     21  C   UNL     1      -2.255  12.589  19.907  0.00  0.00    +0.000 A 
ATOM     22 CL   UNL     1      -1.936  12.635  21.663  0.00  0.00    +0.000 Cl
ENDBRANCH   4  16
BRANCH   1  26
ATOM     23  C   UNL     1       1.629   8.048  20.052  0.00  0.00    +0.000 A 
ATOM     24  C   UNL     1       1.186   8.621  21.249  0.00  0.00    +0.000 A 
ATOM     25  C   UNL     1       0.828  10.015  21.328  0.00  0.00    +0.000 A 
ATOM     26  C   UNL     1       0.901  10.922  20.228  0.00  0.00    +0.000 A 
ATOM     27  C   UNL     1       1.335  10.265  19.038  0.00  0.00    +0.000 A 
ATOM     28  C   UNL     1       1.671   8.880  18.942  0.00  0.00    +0.000 A 
BRANCH  23  30
ATOM     29  O   UNL     1       2.296   6.111  18.770  0.00  0.00    +0.000 OA
ATOM     30  C   UNL     1       2.070   6.616  19.872  0.00  0.00    +0.000 C 
BRANCH  30  31
ATOM     31  O   UNL     1       2.285   5.968  21.033  0.00  0.00    +0.000 OA
ATOM     32  H   UNL     1       2.269   5.003  21.006  0.00  0.00    +0.000 HD
ENDBRANCH  30  31
ENDBRANCH  23  30
ENDBRANCH   1  26
TORSDOF 4
ENDMDL
MODEL 8
REMARK VINA RESULT:      -6.6      4.023      6.911
REMARK  Name = 
REMARK  4 active torsions:
REMARK  status: ('A' for Active; 'I' for Inactive)
REMARK    1  A    between atoms: C_2  and  O_3
REMARK    2  A    between atoms: C_2  and  C_4
REMARK    3  A    between atoms: C_7  and  C_8
REMARK    4  A    between atoms: C_11  and  C_12
REMARK                            x       y       z     vdW  Elec       q    Type
REMARK                         _______ _______ _______ _____ _____    ______ ____
ROOT
ATOM      1  C   UNL     1      -1.525  13.294  23.669  0.00  0.00    +0.000 C 
ATOM      2  N   UNL     1      -0.535  14.241  23.077  0.00  0.00    +0.000 NA
ATOM      3  C   UNL     1      -1.183  15.019  21.980  0.00  0.00    +0.000 C 
ATOM      4  C   UNL     1      -2.765  14.923  21.818  0.00  0.00    +0.000 C 
ATOM      5  C   UNL     1      -3.111  15.371  23.152  0.00  0.00    +0.000 A 
ATOM      6  C   UNL     1      -2.827  14.398  24.076  0.00  0.00    +0.000 A 
ATOM      7  N   UNL     1      -4.188  14.535  24.606  0.00  0.00    +0.000 N 
ATOM      8  C   UNL     1      -4.691  15.853  24.308  0.00  0.00    +0.000 A 
ATOM      9  C   UNL     1      -5.929  16.537  24.196  0.00  0.00    +0.000 A 
ATOM     10  C   UNL     1      -5.886  17.950  24.053  0.00  0.00    +0.000 A 
ATOM     11  C   UNL     1      -4.670  18.630  24.023  0.00  0.00    +0.000 A 
ATOM     12  C   UNL     1      -3.495  17.897  23.831  0.00  0.00    +0.000 A 
ATOM     13  C   UNL     1      -3.549  16.490  23.863  0.00  0.00    +0.000 A 
ATOM     14  H   UNL     1       0.226  13.700  22.665  0.00  0.00    +0.000 HD
ATOM     15  H   UNL     1      -4.824  13.764  24.744  0.00  0.00    +0.000 HD
ENDROOT
BRANCH   4  16
ATOM     16  C   UNL     1      -3.816  13.569  21.629  0.00  0.00    +0.000 A 
ATOM     17  C   UNL     1      -3.944  13.156  20.298  0.00  0.00    +0.000 A 
ATOM     18  C   UNL     1      -5.052  12.381  19.865  0.00  0.00    +0.000 A 
ATOM     19  C   UNL     1      -6.122  12.091  20.669  0.00  0.00    +0.000 A 
ATOM     20  C   UNL     1      -6.013  12.369  22.008  0.00  0.00    +0.000 A 
ATOM     21  C   UNL     1      -4.819  12.925  22.500  0.00  0.00    +0.000 A 
ATOM     22 CL   UNL     1      -4.769  12.383  24.200  0.00  0.00    +0.000 Cl
ENDBRANCH   4  16
BRANCH   1  26
ATOM     23  C   UNL     1       0.276   9.773  21.341  0.00  0.00    +0.000 A 
ATOM     24  C   UNL     1      -0.356   9.622  22.580  0.00  0.00    +0.000 A 
ATOM     25  C   UNL     1      -1.091  10.704  23.186  0.00  0.00    +0.000 A 
ATOM     26  C   UNL     1      -1.228  12.000  22.605  0.00  0.00    +0.000 A 
ATOM     27  C   UNL     1      -0.581  12.074  21.334  0.00  0.00    +0.000 A 
ATOM     28  C   UNL     1       0.130  11.002  20.713  0.00  0.00    +0.000 A 
BRANCH  23  30
ATOM     29  O   UNL     1       1.449   8.808  19.460  0.00  0.00    +0.000 OA
ATOM     30  C   UNL     1       1.104   8.722  20.641  0.00  0.00    +0.000 C 
BRANCH  30  31
ATOM     31  O   UNL     1       1.511   7.728  21.454  0.00  0.00    +0.000 OA
ATOM     32  H   UNL     1       2.460   7.555  21.494  0.00  0.00    +0.000 HD
ENDBRANCH  30  31
ENDBRANCH  23  30
ENDBRANCH   1  26
TORSDOF 4
ENDMDL
MODEL 9
REMARK VINA RESULT:      -6.5      4.361      7.320
REMARK  Name = 
REMARK  4 active torsions:
REMARK  status: ('A' for Active; 'I' for Inactive)
REMARK    1  A    between atoms: C_2  and  O_3
REMARK    2  A    between atoms: C_2  and  C_4
REMARK    3  A    between atoms: C_7  and  C_8
REMARK    4  A    between atoms: C_11  and  C_12
REMARK                            x       y       z     vdW  Elec       q    Type
REMARK                         _______ _______ _______ _____ _____    ______ ____
ROOT
ATOM      1  C   UNL     1      -0.999  10.385  20.203  0.00  0.00    +0.000 C 
ATOM      2  N   UNL     1      -0.981   9.905  21.617  0.00  0.00    +0.000 NA
ATOM      3  C   UNL     1      -0.315  10.924  22.481  0.00  0.00    +0.000 C 
ATOM      4  C   UNL     1      -0.010  12.359  21.860  0.00  0.00    +0.000 C 
ATOM      5  C   UNL     1      -1.372  12.689  21.489  0.00  0.00    +0.000 A 
ATOM      6  C   UNL     1      -1.767  11.950  20.403  0.00  0.00    +0.000 A 
ATOM      7  N   UNL     1      -2.198  13.189  19.745  0.00  0.00    +0.000 N 
ATOM      8  C   UNL     1      -2.499  14.186  20.744  0.00  0.00    +0.000 A 
ATOM      9  C   UNL     1      -2.620  15.594  20.863  0.00  0.00    +0.000 A 
ATOM     10  C   UNL     1      -3.143  16.107  22.080  0.00  0.00    +0.000 A 
ATOM     11  C   UNL     1      -3.517  15.251  23.114  0.00  0.00    +0.000 A 
ATOM     12  C   UNL     1      -3.100  13.918  23.068  0.00  0.00    +0.000 A 
ATOM     13  C   UNL     1      -2.481  13.430  21.901  0.00  0.00    +0.000 A 
ATOM     14  H   UNL     1      -0.425   9.050  21.662  0.00  0.00    +0.000 HD
ATOM     15  H   UNL     1      -1.921  13.465  18.815  0.00  0.00    +0.000 HD
ENDROOT
BRANCH   4  16
ATOM     16  C   UNL     1       0.855  12.834  20.446  0.00  0.00    +0.000 A 
ATOM     17  C   UNL     1       2.229  12.973  20.665  0.00  0.00    +0.000 A 
ATOM     18  C   UNL     1       3.043  13.752  19.801  0.00  0.00    +0.000 A 
ATOM     19  C   UNL     1       2.537  14.514  18.782  0.00  0.00    +0.000 A 
ATOM     20  C   UNL     1       1.219  14.340  18.444  0.00  0.00    +0.000 A 
ATOM     21  C   UNL     1       0.450  13.391  19.141  0.00  0.00    +0.000 A 
ATOM     22 CL   UNL     1      -0.801  12.913  17.960  0.00  0.00    +0.000 Cl
ENDBRANCH   4  16
BRANCH   1  26
ATOM     23  C   UNL     1       2.440   7.932  18.410  0.00  0.00    +0.000 A 
ATOM     24  C   UNL     1       1.805   8.970  17.719  0.00  0.00    +0.000 A 
ATOM     25  C   UNL     1       0.876   9.853  18.378  0.00  0.00    +0.000 A 
ATOM     26  C   UNL     1       0.514   9.749  19.755  0.00  0.00    +0.000 A 
ATOM     27  C   UNL     1       1.217   8.687  20.400  0.00  0.00    +0.000 A 
ATOM     28  C   UNL     1       2.156   7.820  19.764  0.00  0.00    +0.000 A 
BRANCH  23  30
ATOM     29  O   UNL     1       4.511   7.224  17.384  0.00  0.00    +0.000 OA
ATOM     30  C   UNL     1       3.391   6.926  17.807  0.00  0.00    +0.000 C 
BRANCH  30  31
ATOM     31  O   UNL     1       2.940   5.658  17.860  0.00  0.00    +0.000 OA
ATOM     32  H   UNL     1       2.508   5.313  17.068  0.00  0.00    +0.000 HD
ENDBRANCH  30  31
ENDBRANCH  23  30
ENDBRANCH   1  26
TORSDOF 4
ENDMDL
