MODEL 1
REMARK VINA RESULT:      -7.8      0.000      0.000
REMARK  Name = 
REMARK  10 active torsions:
REMARK  status: ('A' for Active; 'I' for Inactive)
REMARK    1  A    between atoms: C_1  and  C_2
REMARK    2  A    between atoms: C_2  and  C_3
REMARK    3  A    between atoms: C_2  and  N_7
REMARK    4  A    between atoms: N_5  and  O_6
REMARK    5  A    between atoms: N_7  and  C_8
REMARK    6  A    between atoms: N_7  and  C_18
REMARK    7  A    between atoms: C_8  and  C_9
REMARK    8  A    between atoms: C_14  and  N_15
REMARK    9  A    between atoms: C_18  and  N_20
REMARK   10  A    between atoms: C_21  and  C_23
REMARK                            x       y       z     vdW  Elec       q    Type
REMARK                         _______ _______ _______ _____ _____    ______ ____
ROOT
ATOM      1  N   UNL     1       5.298   4.906  18.634  0.00  0.00    +0.000 N 
ENDROOT
BRANCH   1   3
ATOM      2  C   UNL     1       4.478   6.653  16.993  0.00  0.00    +0.000 C 
ATOM      3  C   UNL     1       4.443   6.138  18.436  0.00  0.00    +0.000 C 
BRANCH   3   4
ATOM      4  C   UNL     1       2.975   6.237  18.929  0.00  0.00    +0.000 C 
ATOM      5  O   UNL     1       1.979   6.037  18.237  0.00  0.00    +0.000 OA
ATOM      6  N   UNL     1       2.869   6.677  20.229  0.00  0.00    +0.000 N 
ATOM      7  H   UNL     1       3.645   6.896  20.848  0.00  0.00    +0.000 HD
BRANCH   6   8
ATOM      8  O   UNL     1       1.577   6.856  20.762  0.00  0.00    +0.000 OA
ATOM      9  H   UNL     1       1.494   7.830  20.807  0.00  0.00    +0.000 HD
ENDBRANCH   6   8
ENDBRANCH   3   4
ENDBRANCH   1   3
BRANCH   1  10
ATOM     10  C   UNL     1       6.645   4.939  18.151  0.00  0.00    +0.000 C 
ATOM     11  S   UNL     1       7.957   5.531  19.044  0.00  0.00    +0.000 S 
BRANCH  10  12
ATOM     12  N   UNL     1       6.813   4.448  16.856  0.00  0.00    +0.000 N 
ATOM     13  C   UNL     1       7.137   5.205  15.726  0.00  0.00    +0.000 C 
ATOM     14  O   UNL     1       7.772   6.255  15.747  0.00  0.00    +0.000 OA
ATOM     15  H   UNL     1       6.361   3.567  16.685  0.00  0.00    +0.000 HD
BRANCH  13  16
ATOM     16  C   UNL     1       6.784   4.645  14.394  0.00  0.00    +0.000 A 
ATOM     17  C   UNL     1       7.633   4.951  13.317  0.00  0.00    +0.000 A 
ATOM     18  C   UNL     1       7.396   4.414  12.052  0.00  0.00    +0.000 A 
ATOM     19  C   UNL     1       6.310   3.564  11.856  0.00  0.00    +0.000 A 
ATOM     20  C   UNL     1       5.466   3.249  12.922  0.00  0.00    +0.000 A 
ATOM     21  C   UNL     1       5.701   3.782  14.194  0.00  0.00    +0.000 A 
ENDBRANCH  13  16
ENDBRANCH  10  12
ENDBRANCH   1  10
BRANCH   1  22
ATOM     22  C   UNL     1       4.785   3.823  19.526  0.00  0.00    +0.000 C 
BRANCH  22  23
ATOM     23  C   UNL     1       3.463   3.166  19.136  0.00  0.00    +0.000 A 
ATOM     24  C   UNL     1       3.272   2.619  17.854  0.00  0.00    +0.000 A 
ATOM     25  C   UNL     1       2.026   2.107  17.455  0.00  0.00    +0.000 A 
ATOM     26  C   UNL     1       0.938   2.124  18.324  0.00  0.00    +0.000 A 
ATOM     27  C   UNL     1       1.115   2.560  19.631  0.00  0.00    +0.000 A 
ATOM     28  C   UNL     1       2.378   3.035  20.049  0.00  0.00    +0.000 A 
BRANCH  28  29
ATOM     29  N   UNL     1       2.538   3.258  21.499  0.00  0.00    +0.000 N 
ATOM     30  O   UNL     1       2.825   2.283  22.206  0.00  0.00    +0.000 OA
ATOM     31  O   UNL     1       2.281   4.388  21.942  0.00  0.00    +0.000 OA
ENDBRANCH  28  29
ENDBRANCH  22  23
ENDBRANCH   1  22
TORSDOF 9
ENDMDL
MODEL 2
REMARK VINA RESULT:      -7.7      1.696      3.608
REMARK  Name = 
REMARK  10 active torsions:
REMARK  status: ('A' for Active; 'I' for Inactive)
REMARK    1  A    between atoms: C_1  and  C_2
REMARK    2  A    between atoms: C_2  and  C_3
REMARK    3  A    between atoms: C_2  and  N_7
REMARK    4  A    between atoms: N_5  and  O_6
REMARK    5  A    between atoms: N_7  and  C_8
REMARK    6  A    between atoms: N_7  and  C_18
REMARK    7  A    between atoms: C_8  and  C_9
REMARK    8  A    between atoms: C_14  and  N_15
REMARK    9  A    between atoms: C_18  and  N_20
REMARK   10  A    between atoms: C_21  and  C_23
REMARK                            x       y       z     vdW  Elec       q    Type
REMARK                         _______ _______ _______ _____ _____    ______ ____
ROOT
ATOM      1  N   UNL     1       3.859   3.983  18.302  0.00  0.00    +0.000 N 
ENDROOT
BRANCH   1   3
ATOM      2  C   UNL     1       3.917   1.480  17.914  0.00  0.00    +0.000 C 
ATOM      3  C   UNL     1       3.570   2.616  18.883  0.00  0.00    +0.000 C 
BRANCH   3   4
ATOM      4  C   UNL     1       4.038   2.181  20.296  0.00  0.00    +0.000 C 
ATOM      5  O   UNL     1       3.458   2.442  21.348  0.00  0.00    +0.000 OA
ATOM      6  N   UNL     1       5.254   1.536  20.289  0.00  0.00    +0.000 N 
ATOM      7  H   UNL     1       5.806   1.318  19.464  0.00  0.00    +0.000 HD
BRANCH   6   8
ATOM      8  O   UNL     1       5.801   1.144  21.527  0.00  0.00    +0.000 OA
ATOM      9  H   UNL     1       6.618   0.674  21.265  0.00  0.00    +0.000 HD
ENDBRANCH   6   8
ENDBRANCH   3   4
ENDBRANCH   1   3
BRANCH   1  10
ATOM     10  C   UNL     1       5.228   4.375  18.155  0.00  0.00    +0.000 C 
ATOM     11  S   UNL     1       6.121   5.163  19.359  0.00  0.00    +0.000 S 
BRANCH  10  12
ATOM     12  N   UNL     1       5.793   4.068  16.917  0.00  0.00    +0.000 N 
ATOM     13  C   UNL     1       6.497   4.952  16.093  0.00  0.00    +0.000 C 
ATOM     14  O   UNL     1       7.127   5.927  16.492  0.00  0.00    +0.000 OA
ATOM     15  H   UNL     1       5.391   3.265  16.465  0.00  0.00    +0.000 HD
BRANCH  13  16
ATOM     16  C   UNL     1       6.580   4.628  14.644  0.00  0.00    +0.000 A 
ATOM     17  C   UNL     1       7.574   5.277  13.891  0.00  0.00    +0.000 A 
ATOM     18  C   UNL     1       7.747   4.980  12.540  0.00  0.00    +0.000 A 
ATOM     19  C   UNL     1       6.930   4.030  11.931  0.00  0.00    +0.000 A 
ATOM     20  C   UNL     1       5.946   3.376  12.674  0.00  0.00    +0.000 A 
ATOM     21  C   UNL     1       5.769   3.667  14.030  0.00  0.00    +0.000 A 
ENDBRANCH  13  16
ENDBRANCH  10  12
ENDBRANCH   1  10
BRANCH   1  22
ATOM     22  C   UNL     1       2.729   4.746  17.692  0.00  0.00    +0.000 C 
BRANCH  22  23
ATOM     23  C   UNL     1       2.371   6.089  18.325  0.00  0.00    +0.000 A 
ATOM     24  C   UNL     1       2.370   7.274  17.566  0.00  0.00    +0.000 A 
ATOM     25  C   UNL     1       2.144   8.525  18.165  0.00  0.00    +0.000 A 
ATOM     26  C   UNL     1       1.910   8.628  19.533  0.00  0.00    +0.000 A 
ATOM     27  C   UNL     1       1.800   7.471  20.296  0.00  0.00    +0.000 A 
ATOM     28  C   UNL     1       1.983   6.209  19.689  0.00  0.00    +0.000 A 
BRANCH  28  29
ATOM     29  N   UNL     1       1.624   5.037  20.512  0.00  0.00    +0.000 N 
ATOM     30  O   UNL     1       0.667   4.344  20.143  0.00  0.00    +0.000 OA
ATOM     31  O   UNL     1       2.238   4.868  21.576  0.00  0.00    +0.000 OA
ENDBRANCH  28  29
ENDBRANCH  22  23
ENDBRANCH   1  22
TORSDOF 9
ENDMDL
MODEL 3
REMARK VINA RESULT:      -7.7      1.898      3.857
REMARK  Name = 
REMARK  10 active torsions:
REMARK  status: ('A' for Active; 'I' for Inactive)
REMARK    1  A    between atoms: C_1  and  C_2
REMARK    2  A    between atoms: C_2  and  C_3
REMARK    3  A    between atoms: C_2  and  N_7
REMARK    4  A    between atoms: N_5  and  O_6
REMARK    5  A    between atoms: N_7  and  C_8
REMARK    6  A    between atoms: N_7  and  C_18
REMARK    7  A    between atoms: C_8  and  C_9
REMARK    8  A    between atoms: C_14  and  N_15
REMARK    9  A    between atoms: C_18  and  N_20
REMARK   10  A    between atoms: C_21  and  C_23
REMARK                            x       y       z     vdW  Elec       q    Type
REMARK                         _______ _______ _______ _____ _____    ______ ____
ROOT
ATOM      1  N   UNL     1       3.835   4.177  18.262  0.00  0.00    +0.000 N 
ENDROOT
BRANCH   1   3
ATOM      2  C   UNL     1       2.827   1.928  17.674  0.00  0.00    +0.000 C 
ATOM      3  C   UNL     1       3.454   2.802  18.766  0.00  0.00    +0.000 C 
BRANCH   3   4
ATOM      4  C   UNL     1       4.418   1.904  19.584  0.00  0.00    +0.000 C 
ATOM      5  O   UNL     1       5.038   2.255  20.585  0.00  0.00    +0.000 OA
ATOM      6  N   UNL     1       4.606   0.661  19.024  0.00  0.00    +0.000 N 
ATOM      7  H   UNL     1       4.156   0.315  18.181  0.00  0.00    +0.000 HD
BRANCH   6   8
ATOM      8  O   UNL     1       5.506  -0.219  19.657  0.00  0.00    +0.000 OA
ATOM      9  H   UNL     1       6.231  -0.295  19.003  0.00  0.00    +0.000 HD
ENDBRANCH   6   8
ENDBRANCH   3   4
ENDBRANCH   1   3
BRANCH   1  10
ATOM     10  C   UNL     1       5.227   4.484  18.134  0.00  0.00    +0.000 C 
ATOM     11  S   UNL     1       6.144   5.242  19.339  0.00  0.00    +0.000 S 
BRANCH  10  12
ATOM     12  N   UNL     1       5.794   4.119  16.913  0.00  0.00    +0.000 N 
ATOM     13  C   UNL     1       6.627   4.917  16.122  0.00  0.00    +0.000 C 
ATOM     14  O   UNL     1       7.355   5.807  16.552  0.00  0.00    +0.000 OA
ATOM     15  H   UNL     1       5.315   3.373  16.440  0.00  0.00    +0.000 HD
BRANCH  13  16
ATOM     16  C   UNL     1       6.723   4.594  14.674  0.00  0.00    +0.000 A 
ATOM     17  C   UNL     1       5.781   3.694  14.148  0.00  0.00    +0.000 A 
ATOM     18  C   UNL     1       5.775   3.388  12.787  0.00  0.00    +0.000 A 
ATOM     19  C   UNL     1       6.708   3.984  11.942  0.00  0.00    +0.000 A 
ATOM     20  C   UNL     1       7.642   4.885  12.455  0.00  0.00    +0.000 A 
ATOM     21  C   UNL     1       7.651   5.198  13.819  0.00  0.00    +0.000 A 
ENDBRANCH  13  16
ENDBRANCH  10  12
ENDBRANCH   1  10
BRANCH   1  22
ATOM     22  C   UNL     1       2.759   5.048  17.700  0.00  0.00    +0.000 C 
BRANCH  22  23
ATOM     23  C   UNL     1       2.329   6.253  18.533  0.00  0.00    +0.000 A 
ATOM     24  C   UNL     1       2.255   7.540  17.968  0.00  0.00    +0.000 A 
ATOM     25  C   UNL     1       1.961   8.667  18.753  0.00  0.00    +0.000 A 
ATOM     26  C   UNL     1       1.731   8.543  20.120  0.00  0.00    +0.000 A 
ATOM     27  C   UNL     1       1.694   7.277  20.694  0.00  0.00    +0.000 A 
ATOM     28  C   UNL     1       1.945   6.137  19.899  0.00  0.00    +0.000 A 
BRANCH  28  29
ATOM     29  N   UNL     1       1.659   4.833  20.529  0.00  0.00    +0.000 N 
ATOM     30  O   UNL     1       0.655   4.216  20.151  0.00  0.00    +0.000 OA
ATOM     31  O   UNL     1       2.385   4.474  21.468  0.00  0.00    +0.000 OA
ENDBRANCH  28  29
ENDBRANCH  22  23
ENDBRANCH   1  22
TORSDOF 9
ENDMDL
MODEL 4
REMARK VINA RESULT:      -7.6      2.452      3.590
REMARK  Name = 
REMARK  10 active torsions:
REMARK  status: ('A' for Active; 'I' for Inactive)
REMARK    1  A    between atoms: C_1  and  C_2
REMARK    2  A    between atoms: C_2  and  C_3
REMARK    3  A    between atoms: C_2  and  N_7
REMARK    4  A    between atoms: N_5  and  O_6
REMARK    5  A    between atoms: N_7  and  C_8
REMARK    6  A    between atoms: N_7  and  C_18
REMARK    7  A    between atoms: C_8  and  C_9
REMARK    8  A    between atoms: C_14  and  N_15
REMARK    9  A    between atoms: C_18  and  N_20
REMARK   10  A    between atoms: C_21  and  C_23
REMARK                            x       y       z     vdW  Elec       q    Type
REMARK                         _______ _______ _______ _____ _____    ______ ____
ROOT
ATOM      1  N   UNL     1       5.506   5.419  18.303  0.00  0.00    +0.000 N 
ENDROOT
BRANCH   1   3
ATOM      2  C   UNL     1       7.894   4.591  18.123  0.00  0.00    +0.000 C 
ATOM      3  C   UNL     1       6.970   5.768  18.455  0.00  0.00    +0.000 C 
BRANCH   3   4
ATOM      4  C   UNL     1       7.604   7.044  17.840  0.00  0.00    +0.000 C 
ATOM      5  O   UNL     1       7.708   7.276  16.638  0.00  0.00    +0.000 OA
ATOM      6  N   UNL     1       8.148   7.886  18.783  0.00  0.00    +0.000 N 
ATOM      7  H   UNL     1       8.132   7.742  19.789  0.00  0.00    +0.000 HD
BRANCH   6   8
ATOM      8  O   UNL     1       8.800   9.050  18.330  0.00  0.00    +0.000 OA
ATOM      9  H   UNL     1       9.294   8.733  17.548  0.00  0.00    +0.000 HD
ENDBRANCH   6   8
ENDBRANCH   3   4
ENDBRANCH   1   3
BRANCH   1  10
ATOM     10  C   UNL     1       4.747   6.120  17.312  0.00  0.00    +0.000 C 
ATOM     11  S   UNL     1       3.576   7.289  17.670  0.00  0.00    +0.000 S 
BRANCH  10  12
ATOM     12  N   UNL     1       5.034   5.761  15.995  0.00  0.00    +0.000 N 
ATOM     13  C   UNL     1       5.449   4.499  15.559  0.00  0.00    +0.000 C 
ATOM     14  O   UNL     1       5.176   3.441  16.119  0.00  0.00    +0.000 OA
ATOM     15  H   UNL     1       5.260   6.534  15.394  0.00  0.00    +0.000 HD
BRANCH  13  16
ATOM     16  C   UNL     1       6.180   4.420  14.266  0.00  0.00    +0.000 A 
ATOM     17  C   UNL     1       5.671   3.552  13.286  0.00  0.00    +0.000 A 
ATOM     18  C   UNL     1       6.272   3.470  12.030  0.00  0.00    +0.000 A 
ATOM     19  C   UNL     1       7.385   4.257  11.744  0.00  0.00    +0.000 A 
ATOM     20  C   UNL     1       7.893   5.127  12.710  0.00  0.00    +0.000 A 
ATOM     21  C   UNL     1       7.292   5.217  13.971  0.00  0.00    +0.000 A 
ENDBRANCH  13  16
ENDBRANCH  10  12
ENDBRANCH   1  10
BRANCH   1  22
ATOM     22  C   UNL     1       4.990   4.208  19.010  0.00  0.00    +0.000 C 
BRANCH  22  23
ATOM     23  C   UNL     1       3.545   4.251  19.503  0.00  0.00    +0.000 A 
ATOM     24  C   UNL     1       3.069   5.330  20.270  0.00  0.00    +0.000 A 
ATOM     25  C   UNL     1       1.773   5.325  20.813  0.00  0.00    +0.000 A 
ATOM     26  C   UNL     1       0.917   4.247  20.605  0.00  0.00    +0.000 A 
ATOM     27  C   UNL     1       1.315   3.212  19.768  0.00  0.00    +0.000 A 
ATOM     28  C   UNL     1       2.601   3.234  19.184  0.00  0.00    +0.000 A 
BRANCH  28  29
ATOM     29  N   UNL     1       2.854   2.225  18.136  0.00  0.00    +0.000 N 
ATOM     30  O   UNL     1       3.616   1.288  18.408  0.00  0.00    +0.000 OA
ATOM     31  O   UNL     1       2.367   2.424  17.013  0.00  0.00    +0.000 OA
ENDBRANCH  28  29
ENDBRANCH  22  23
ENDBRANCH   1  22
TORSDOF 9
ENDMDL
MODEL 5
REMARK VINA RESULT:      -7.6      2.528      5.690
REMARK  Name = 
REMARK  10 active torsions:
REMARK  status: ('A' for Active; 'I' for Inactive)
REMARK    1  A    between atoms: C_1  and  C_2
REMARK    2  A    between atoms: C_2  and  C_3
REMARK    3  A    between atoms: C_2  and  N_7
REMARK    4  A    between atoms: N_5  and  O_6
REMARK    5  A    between atoms: N_7  and  C_8
REMARK    6  A    between atoms: N_7  and  C_18
REMARK    7  A    between atoms: C_8  and  C_9
REMARK    8  A    between atoms: C_14  and  N_15
REMARK    9  A    between atoms: C_18  and  N_20
REMARK   10  A    between atoms: C_21  and  C_23
REMARK                            x       y       z     vdW  Elec       q    Type
REMARK                         _______ _______ _______ _____ _____    ______ ____
ROOT
ATOM      1  N   UNL     1       5.211   3.815  17.884  0.00  0.00    +0.000 N 
ENDROOT
BRANCH   1   3
ATOM      2  C   UNL     1       4.567   4.377  15.499  0.00  0.00    +0.000 C 
ATOM      3  C   UNL     1       5.648   3.826  16.436  0.00  0.00    +0.000 C 
BRANCH   3   4
ATOM      4  C   UNL     1       7.009   4.404  15.966  0.00  0.00    +0.000 C 
ATOM      5  O   UNL     1       8.051   4.383  16.617  0.00  0.00    +0.000 OA
ATOM      6  N   UNL     1       6.933   5.051  14.754  0.00  0.00    +0.000 N 
ATOM      7  H   UNL     1       6.100   5.139  14.178  0.00  0.00    +0.000 HD
BRANCH   6   8
ATOM      8  O   UNL     1       8.101   5.662  14.258  0.00  0.00    +0.000 OA
ATOM      9  H   UNL     1       7.754   6.273  13.577  0.00  0.00    +0.000 HD
ENDBRANCH   6   8
ENDBRANCH   3   4
ENDBRANCH   1   3
BRANCH   1  10
ATOM     10  C   UNL     1       5.251   5.050  18.607  0.00  0.00    +0.000 C 
ATOM     11  S   UNL     1       6.632   5.649  19.383  0.00  0.00    +0.000 S 
BRANCH  10  12
ATOM     12  N   UNL     1       4.042   5.745  18.642  0.00  0.00    +0.000 N 
ATOM     13  C   UNL     1       3.754   6.931  17.958  0.00  0.00    +0.000 C 
ATOM     14  O   UNL     1       4.283   7.275  16.905  0.00  0.00    +0.000 OA
ATOM     15  H   UNL     1       3.475   5.550  19.449  0.00  0.00    +0.000 HD
BRANCH  13  16
ATOM     16  C   UNL     1       2.655   7.783  18.484  0.00  0.00    +0.000 A 
ATOM     17  C   UNL     1       2.224   7.545  19.800  0.00  0.00    +0.000 A 
ATOM     18  C   UNL     1       1.236   8.342  20.377  0.00  0.00    +0.000 A 
ATOM     19  C   UNL     1       0.674   9.385  19.644  0.00  0.00    +0.000 A 
ATOM     20  C   UNL     1       1.102   9.632  18.339  0.00  0.00    +0.000 A 
ATOM     21  C   UNL     1       2.094   8.838  17.755  0.00  0.00    +0.000 A 
ENDBRANCH  13  16
ENDBRANCH  10  12
ENDBRANCH   1  10
BRANCH   1  22
ATOM     22  C   UNL     1       4.539   2.590  18.412  0.00  0.00    +0.000 C 
BRANCH  22  23
ATOM     23  C   UNL     1       3.381   2.794  19.387  0.00  0.00    +0.000 A 
ATOM     24  C   UNL     1       3.578   2.717  20.778  0.00  0.00    +0.000 A 
ATOM     25  C   UNL     1       2.499   2.799  21.675  0.00  0.00    +0.000 A 
ATOM     26  C   UNL     1       1.197   2.965  21.209  0.00  0.00    +0.000 A 
ATOM     27  C   UNL     1       0.977   3.149  19.850  0.00  0.00    +0.000 A 
ATOM     28  C   UNL     1       2.064   3.111  18.949  0.00  0.00    +0.000 A 
BRANCH  28  29
ATOM     29  N   UNL     1       1.775   3.542  17.567  0.00  0.00    +0.000 N 
ATOM     30  O   UNL     1       1.167   4.609  17.410  0.00  0.00    +0.000 OA
ATOM     31  O   UNL     1       2.071   2.767  16.646  0.00  0.00    +0.000 OA
ENDBRANCH  28  29
ENDBRANCH  22  23
ENDBRANCH   1  22
TORSDOF 9
ENDMDL
MODEL 6
REMARK VINA RESULT:      -7.6      3.411      7.410
REMARK  Name = 
REMARK  10 active torsions:
REMARK  status: ('A' for Active; 'I' for Inactive)
REMARK    1  A    between atoms: C_1  and  C_2
REMARK    2  A    between atoms: C_2  and  C_3
REMARK    3  A    between atoms: C_2  and  N_7
REMARK    4  A    between atoms: N_5  and  O_6
REMARK    5  A    between atoms: N_7  and  C_8
REMARK    6  A    between atoms: N_7  and  C_18
REMARK    7  A    between atoms: C_8  and  C_9
REMARK    8  A    between atoms: C_14  and  N_15
REMARK    9  A    between atoms: C_18  and  N_20
REMARK   10  A    between atoms: C_21  and  C_23
REMARK                            x       y       z     vdW  Elec       q    Type
REMARK                         _______ _______ _______ _____ _____    ______ ____
ROOT
ATOM      1  N   UNL     1       3.087   5.715  18.891  0.00  0.00    +0.000 N 
ENDROOT
BRANCH   1   3
ATOM      2  C   UNL     1       1.395   4.218  17.744  0.00  0.00    +0.000 C 
ATOM      3  C   UNL     1       1.929   4.759  19.075  0.00  0.00    +0.000 C 
BRANCH   3   4
ATOM      4  C   UNL     1       1.959   3.576  20.078  0.00  0.00    +0.000 C 
ATOM      5  O   UNL     1       1.784   2.395  19.789  0.00  0.00    +0.000 OA
ATOM      6  N   UNL     1       2.109   3.979  21.386  0.00  0.00    +0.000 N 
ATOM      7  H   UNL     1       2.223   4.938  21.703  0.00  0.00    +0.000 HD
BRANCH   6   8
ATOM      8  O   UNL     1       2.096   2.989  22.388  0.00  0.00    +0.000 OA
ATOM      9  H   UNL     1       2.985   2.589  22.311  0.00  0.00    +0.000 HD
ENDBRANCH   6   8
ENDBRANCH   3   4
ENDBRANCH   1   3
BRANCH   1  10
ATOM     10  C   UNL     1       2.790   7.102  18.701  0.00  0.00    +0.000 C 
ATOM     11  S   UNL     1       3.526   8.076  17.528  0.00  0.00    +0.000 S 
BRANCH  10  12
ATOM     12  N   UNL     1       1.835   7.619  19.577  0.00  0.00    +0.000 N 
ATOM     13  C   UNL     1       1.139   8.822  19.418  0.00  0.00    +0.000 C 
ATOM     14  O   UNL     1       0.888   9.346  18.337  0.00  0.00    +0.000 OA
ATOM     15  H   UNL     1       1.897   7.263  20.515  0.00  0.00    +0.000 HD
BRANCH  13  16
ATOM     16  C   UNL     1       0.568   9.456  20.636  0.00  0.00    +0.000 A 
ATOM     17  C   UNL     1       0.419  10.852  20.630  0.00  0.00    +0.000 A 
ATOM     18  C   UNL     1      -0.162  11.509  21.714  0.00  0.00    +0.000 A 
ATOM     19  C   UNL     1      -0.602  10.773  22.812  0.00  0.00    +0.000 A 
ATOM     20  C   UNL     1      -0.465   9.384  22.823  0.00  0.00    +0.000 A 
ATOM     21  C   UNL     1       0.115   8.720  21.737  0.00  0.00    +0.000 A 
ENDBRANCH  13  16
ENDBRANCH  10  12
ENDBRANCH   1  10
BRANCH   1  22
ATOM     22  C   UNL     1       4.469   5.212  19.155  0.00  0.00    +0.000 C 
BRANCH  22  23
ATOM     23  C   UNL     1       5.345   4.906  17.943  0.00  0.00    +0.000 A 
ATOM     24  C   UNL     1       4.781   4.482  16.725  0.00  0.00    +0.000 A 
ATOM     25  C   UNL     1       5.587   4.099  15.640  0.00  0.00    +0.000 A 
ATOM     26  C   UNL     1       6.975   4.132  15.737  0.00  0.00    +0.000 A 
ATOM     27  C   UNL     1       7.567   4.644  16.886  0.00  0.00    +0.000 A 
ATOM     28  C   UNL     1       6.759   5.071  17.963  0.00  0.00    +0.000 A 
BRANCH  28  29
ATOM     29  N   UNL     1       7.451   5.807  19.039  0.00  0.00    +0.000 N 
ATOM     30  O   UNL     1       8.043   6.852  18.736  0.00  0.00    +0.000 OA
ATOM     31  O   UNL     1       7.483   5.290  20.165  0.00  0.00    +0.000 OA
ENDBRANCH  28  29
ENDBRANCH  22  23
ENDBRANCH   1  22
TORSDOF 9
ENDMDL
MODEL 7
REMARK VINA RESULT:      -7.6      2.807      6.066
REMARK  Name = 
REMARK  10 active torsions:
REMARK  status: ('A' for Active; 'I' for Inactive)
REMARK    1  A    between atoms: C_1  and  C_2
REMARK    2  A    between atoms: C_2  and  C_3
REMARK    3  A    between atoms: C_2  and  N_7
REMARK    4  A    between atoms: N_5  and  O_6
REMARK    5  A    between atoms: N_7  and  C_8
REMARK    6  A    between atoms: N_7  and  C_18
REMARK    7  A    between atoms: C_8  and  C_9
REMARK    8  A    between atoms: C_14  and  N_15
REMARK    9  A    between atoms: C_18  and  N_20
REMARK   10  A    between atoms: C_21  and  C_23
REMARK                            x       y       z     vdW  Elec       q    Type
REMARK                         _______ _______ _______ _____ _____    ______ ____
ROOT
ATOM      1  N   UNL     1       4.534   4.958  17.817  0.00  0.00    +0.000 N 
ENDROOT
BRANCH   1   3
ATOM      2  C   UNL     1       6.711   4.429  16.632  0.00  0.00    +0.000 C 
ATOM      3  C   UNL     1       6.001   4.626  17.977  0.00  0.00    +0.000 C 
BRANCH   3   4
ATOM      4  C   UNL     1       6.957   5.436  18.892  0.00  0.00    +0.000 C 
ATOM      5  O   UNL     1       7.045   5.314  20.112  0.00  0.00    +0.000 OA
ATOM      6  N   UNL     1       7.659   6.408  18.216  0.00  0.00    +0.000 N 
ATOM      7  H   UNL     1       7.611   6.591  17.218  0.00  0.00    +0.000 HD
BRANCH   6   8
ATOM      8  O   UNL     1       8.518   7.240  18.961  0.00  0.00    +0.000 OA
ATOM      9  H   UNL     1       7.995   8.062  19.057  0.00  0.00    +0.000 HD
ENDBRANCH   6   8
ENDBRANCH   3   4
ENDBRANCH   1   3
BRANCH   1  10
ATOM     10  C   UNL     1       4.179   6.317  17.540  0.00  0.00    +0.000 C 
ATOM     11  S   UNL     1       4.947   7.278  16.376  0.00  0.00    +0.000 S 
BRANCH  10  12
ATOM     12  N   UNL     1       3.137   6.818  18.320  0.00  0.00    +0.000 N 
ATOM     13  C   UNL     1       2.448   8.015  18.101  0.00  0.00    +0.000 C 
ATOM     14  O   UNL     1       2.300   8.545  17.004  0.00  0.00    +0.000 OA
ATOM     15  H   UNL     1       3.109   6.456  19.257  0.00  0.00    +0.000 HD
BRANCH  13  16
ATOM     16  C   UNL     1       1.751   8.634  19.260  0.00  0.00    +0.000 A 
ATOM     17  C   UNL     1       1.689   7.891  20.450  0.00  0.00    +0.000 A 
ATOM     18  C   UNL     1       1.101   8.431  21.594  0.00  0.00    +0.000 A 
ATOM     19  C   UNL     1       0.575   9.720  21.556  0.00  0.00    +0.000 A 
ATOM     20  C   UNL     1       0.639  10.468  20.380  0.00  0.00    +0.000 A 
ATOM     21  C   UNL     1       1.230   9.933  19.230  0.00  0.00    +0.000 A 
ENDBRANCH  13  16
ENDBRANCH  10  12
ENDBRANCH   1  10
BRANCH   1  22
ATOM     22  C   UNL     1       3.560   3.830  17.712  0.00  0.00    +0.000 C 
BRANCH  22  23
ATOM     23  C   UNL     1       2.728   3.510  18.952  0.00  0.00    +0.000 A 
ATOM     24  C   UNL     1       1.449   4.068  19.134  0.00  0.00    +0.000 A 
ATOM     25  C   UNL     1       0.723   3.860  20.319  0.00  0.00    +0.000 A 
ATOM     26  C   UNL     1       1.249   3.089  21.351  0.00  0.00    +0.000 A 
ATOM     27  C   UNL     1       2.463   2.437  21.166  0.00  0.00    +0.000 A 
ATOM     28  C   UNL     1       3.175   2.608  19.959  0.00  0.00    +0.000 A 
BRANCH  28  29
ATOM     29  N   UNL     1       4.327   1.708  19.754  0.00  0.00    +0.000 N 
ATOM     30  O   UNL     1       4.245   0.860  18.855  0.00  0.00    +0.000 OA
ATOM     31  O   UNL     1       5.271   1.785  20.554  0.00  0.00    +0.000 OA
ENDBRANCH  28  29
ENDBRANCH  22  23
ENDBRANCH   1  22
TORSDOF 9
ENDMDL
MODEL 8
REMARK VINA RESULT:      -7.6      1.687      3.041
REMARK  Name = 
REMARK  10 active torsions:
REMARK  status: ('A' for Active; 'I' for Inactive)
REMARK    1  A    between atoms: C_1  and  C_2
REMARK    2  A    between atoms: C_2  and  C_3
REMARK    3  A    between atoms: C_2  and  N_7
REMARK    4  A    between atoms: N_5  and  O_6
REMARK    5  A    between atoms: N_7  and  C_8
REMARK    6  A    between atoms: N_7  and  C_18
REMARK    7  A    between atoms: C_8  and  C_9
REMARK    8  A    between atoms: C_14  and  N_15
REMARK    9  A    between atoms: C_18  and  N_20
REMARK   10  A    between atoms: C_21  and  C_23
REMARK                            x       y       z     vdW  Elec       q    Type
REMARK                         _______ _______ _______ _____ _____    ______ ____
ROOT
ATOM      1  N   UNL     1       4.819   3.698  18.471  0.00  0.00    +0.000 N 
ENDROOT
BRANCH   1   3
ATOM      2  C   UNL     1       4.288   1.338  17.717  0.00  0.00    +0.000 C 
ATOM      3  C   UNL     1       3.940   2.827  17.602  0.00  0.00    +0.000 C 
BRANCH   3   4
ATOM      4  C   UNL     1       2.393   2.942  17.578  0.00  0.00    +0.000 C 
ATOM      5  O   UNL     1       1.758   3.878  17.096  0.00  0.00    +0.000 OA
ATOM      6  N   UNL     1       1.764   1.920  18.251  0.00  0.00    +0.000 N 
ATOM      7  H   UNL     1       2.223   1.134  18.703  0.00  0.00    +0.000 HD
BRANCH   6   8
ATOM      8  O   UNL     1       0.358   1.955  18.339  0.00  0.00    +0.000 OA
ATOM      9  H   UNL     1       0.118   1.006  18.365  0.00  0.00    +0.000 HD
ENDBRANCH   6   8
ENDBRANCH   3   4
ENDBRANCH   1   3
BRANCH   1  10
ATOM     10  C   UNL     1       5.953   4.327  17.864  0.00  0.00    +0.000 C 
ATOM     11  S   UNL     1       6.910   5.495  18.630  0.00  0.00    +0.000 S 
BRANCH  10  12
ATOM     12  N   UNL     1       6.220   3.913  16.559  0.00  0.00    +0.000 N 
ATOM     13  C   UNL     1       6.651   4.730  15.509  0.00  0.00    +0.000 C 
ATOM     14  O   UNL     1       7.299   5.763  15.649  0.00  0.00    +0.000 OA
ATOM     15  H   UNL     1       5.770   3.054  16.296  0.00  0.00    +0.000 HD
BRANCH  13  16
ATOM     16  C   UNL     1       6.402   4.261  14.120  0.00  0.00    +0.000 A 
ATOM     17  C   UNL     1       5.121   3.766  13.824  0.00  0.00    +0.000 A 
ATOM     18  C   UNL     1       4.798   3.361  12.529  0.00  0.00    +0.000 A 
ATOM     19  C   UNL     1       5.754   3.452  11.519  0.00  0.00    +0.000 A 
ATOM     20  C   UNL     1       7.027   3.949  11.804  0.00  0.00    +0.000 A 
ATOM     21  C   UNL     1       7.355   4.359  13.101  0.00  0.00    +0.000 A 
ENDBRANCH  13  16
ENDBRANCH  10  12
ENDBRANCH   1  10
BRANCH   1  22
ATOM     22  C   UNL     1       4.334   4.052  19.839  0.00  0.00    +0.000 C 
BRANCH  22  23
ATOM     23  C   UNL     1       3.278   5.150  19.943  0.00  0.00    +0.000 A 
ATOM     24  C   UNL     1       3.372   6.326  19.176  0.00  0.00    +0.000 A 
ATOM     25  C   UNL     1       2.461   7.383  19.343  0.00  0.00    +0.000 A 
ATOM     26  C   UNL     1       1.432   7.294  20.276  0.00  0.00    +0.000 A 
ATOM     27  C   UNL     1       1.245   6.109  20.977  0.00  0.00    +0.000 A 
ATOM     28  C   UNL     1       2.132   5.028  20.779  0.00  0.00    +0.000 A 
BRANCH  28  29
ATOM     29  N   UNL     1       1.730   3.742  21.382  0.00  0.00    +0.000 N 
ATOM     30  O   UNL     1       2.361   3.345  22.371  0.00  0.00    +0.000 OA
ATOM     31  O   UNL     1       0.849   3.085  20.808  0.00  0.00    +0.000 OA
ENDBRANCH  28  29
ENDBRANCH  22  23
ENDBRANCH   1  22
TORSDOF 9
ENDMDL
MODEL 9
REMARK VINA RESULT:      -7.5      1.889      3.574
REMARK  Name = 
REMARK  10 active torsions:
REMARK  status: ('A' for Active; 'I' for Inactive)
REMARK    1  A    between atoms: C_1  and  C_2
REMARK    2  A    between atoms: C_2  and  C_3
REMARK    3  A    between atoms: C_2  and  N_7
REMARK    4  A    between atoms: N_5  and  O_6
REMARK    5  A    between atoms: N_7  and  C_8
REMARK    6  A    between atoms: N_7  and  C_18
REMARK    7  A    between atoms: C_8  and  C_9
REMARK    8  A    between atoms: C_14  and  N_15
REMARK    9  A    between atoms: C_18  and  N_20
REMARK   10  A    between atoms: C_21  and  C_23
REMARK                            x       y       z     vdW  Elec       q    Type
REMARK                         _______ _______ _______ _____ _____    ______ ____
ROOT
ATOM      1  N   UNL     1       4.186   4.329  18.074  0.00  0.00    +0.000 N 
ENDROOT
BRANCH   1   3
ATOM      2  C   UNL     1       4.456   2.510  19.816  0.00  0.00    +0.000 C 
ATOM      3  C   UNL     1       4.007   2.862  18.393  0.00  0.00    +0.000 C 
BRANCH   3   4
ATOM      4  C   UNL     1       2.689   2.090  18.118  0.00  0.00    +0.000 C 
ATOM      5  O   UNL     1       2.210   1.878  17.006  0.00  0.00    +0.000 OA
ATOM      6  N   UNL     1       2.023   1.729  19.267  0.00  0.00    +0.000 N 
ATOM      7  H   UNL     1       2.340   1.902  20.217  0.00  0.00    +0.000 HD
BRANCH   6   8
ATOM      8  O   UNL     1       0.785   1.070  19.132  0.00  0.00    +0.000 OA
ATOM      9  H   UNL     1       0.867   0.629  18.263  0.00  0.00    +0.000 HD
ENDBRANCH   6   8
ENDBRANCH   3   4
ENDBRANCH   1   3
BRANCH   1  10
ATOM     10  C   UNL     1       5.518   4.851  18.036  0.00  0.00    +0.000 C 
ATOM     11  S   UNL     1       6.281   5.598  19.351  0.00  0.00    +0.000 S 
BRANCH  10  12
ATOM     12  N   UNL     1       6.165   4.711  16.808  0.00  0.00    +0.000 N 
ATOM     13  C   UNL     1       5.905   5.456  15.653  0.00  0.00    +0.000 C 
ATOM     14  O   UNL     1       5.462   6.601  15.645  0.00  0.00    +0.000 OA
ATOM     15  H   UNL     1       6.604   3.818  16.670  0.00  0.00    +0.000 HD
BRANCH  13  16
ATOM     16  C   UNL     1       6.295   4.864  14.346  0.00  0.00    +0.000 A 
ATOM     17  C   UNL     1       5.423   3.921  13.776  0.00  0.00    +0.000 A 
ATOM     18  C   UNL     1       5.697   3.366  12.526  0.00  0.00    +0.000 A 
ATOM     19  C   UNL     1       6.842   3.753  11.835  0.00  0.00    +0.000 A 
ATOM     20  C   UNL     1       7.710   4.695  12.390  0.00  0.00    +0.000 A 
ATOM     21  C   UNL     1       7.440   5.257  13.643  0.00  0.00    +0.000 A 
ENDBRANCH  13  16
ENDBRANCH  10  12
ENDBRANCH   1  10
BRANCH   1  22
ATOM     22  C   UNL     1       3.003   5.096  17.582  0.00  0.00    +0.000 C 
BRANCH  22  23
ATOM     23  C   UNL     1       2.519   6.263  18.441  0.00  0.00    +0.000 A 
ATOM     24  C   UNL     1       2.501   7.578  17.940  0.00  0.00    +0.000 A 
ATOM     25  C   UNL     1       2.157   8.667  18.758  0.00  0.00    +0.000 A 
ATOM     26  C   UNL     1       1.819   8.475  20.095  0.00  0.00    +0.000 A 
ATOM     27  C   UNL     1       1.725   7.182  20.596  0.00  0.00    +0.000 A 
ATOM     28  C   UNL     1       2.028   6.081  19.765  0.00  0.00    +0.000 A 
BRANCH  28  29
ATOM     29  N   UNL     1       1.683   4.750  20.301  0.00  0.00    +0.000 N 
ATOM     30  O   UNL     1       0.717   4.159  19.801  0.00  0.00    +0.000 OA
ATOM     31  O   UNL     1       2.317   4.342  21.286  0.00  0.00    +0.000 OA
ENDBRANCH  28  29
ENDBRANCH  22  23
ENDBRANCH   1  22
TORSDOF 9
ENDMDL
